# generated using pymatgen
data_VPb2N3
_symmetry_space_group_name_H-M   'P 1'
_cell_length_a   8.13496140
_cell_length_b   5.75467314
_cell_length_c   5.32021400
_cell_angle_alpha   90.00000000
_cell_angle_beta   90.00000000
_cell_angle_gamma   110.71379268
_symmetry_Int_Tables_number   1
_chemical_formula_structural   VPb2N3
_chemical_formula_sum   'V2 Pb4 N6'
_cell_volume   232.96117489
_cell_formula_units_Z   2
loop_
 _symmetry_equiv_pos_site_id
 _symmetry_equiv_pos_as_xyz
  1  'x, y, z'
loop_
 _atom_site_type_symbol
 _atom_site_label
 _atom_site_symmetry_multiplicity
 _atom_site_fract_x
 _atom_site_fract_y
 _atom_site_fract_z
 _atom_site_occupancy
  V  V0  1  0.00000000  0.67407200  0.48719000  1
  V  V1  1  0.00000000  0.32592800  0.98719000  1
  Pb  Pb2  1  0.27657700  0.34913100  0.46891600  1
  Pb  Pb3  1  0.72342300  0.07255400  0.46891600  1
  Pb  Pb4  1  0.72342300  0.65086900  0.96891600  1
  Pb  Pb5  1  0.27657700  0.92744600  0.96891600  1
  N  N6  1  0.19322200  0.27109800  0.90331100  1
  N  N7  1  0.80677800  0.07787600  0.90331100  1
  N  N8  1  0.80677800  0.72890200  0.40331100  1
  N  N9  1  0.19322200  0.92212400  0.40331100  1
  N  N10  1  0.00000000  0.62876100  0.84035700  1
  N  N11  1  0.00000000  0.37123900  0.34035700  1
