# generated using pymatgen
data_Zr2CrN3
_symmetry_space_group_name_H-M   'P 1'
_cell_length_a   6.49696743
_cell_length_b   3.10543108
_cell_length_c   12.09015573
_cell_angle_alpha   90.00000375
_cell_angle_beta   21.49553409
_cell_angle_gamma   76.17302136
_symmetry_Int_Tables_number   1
_chemical_formula_structural   Zr2CrN3
_chemical_formula_sum   'Zr2 Cr1 N3'
_cell_volume   67.75510770
_cell_formula_units_Z   1
loop_
 _symmetry_equiv_pos_site_id
 _symmetry_equiv_pos_as_xyz
  1  'x, y, z'
loop_
 _atom_site_type_symbol
 _atom_site_label
 _atom_site_symmetry_multiplicity
 _atom_site_fract_x
 _atom_site_fract_y
 _atom_site_fract_z
 _atom_site_occupancy
  Zr  Zr0  1  0.00000000  0.00000000  0.64966800  1
  Zr  Zr1  1  0.00000000  0.00000000  0.35033200  1
  Cr  Cr2  1  0.00000000  0.00000000  0.00000000  1
  N  N3  1  0.00000000  0.50000000  0.50000000  1
  N  N4  1  0.00000000  0.00000000  0.83148600  1
  N  N5  1  0.00000000  0.00000000  0.16851400  1
