# generated using pymatgen
data_Ba7TiN6
_symmetry_space_group_name_H-M   'P 1'
_cell_length_a   12.63641200
_cell_length_b   7.07076700
_cell_length_c   14.58961000
_cell_angle_alpha   90.00000000
_cell_angle_beta   90.00000000
_cell_angle_gamma   90.00000000
_symmetry_Int_Tables_number   1
_chemical_formula_structural   Ba7TiN6
_chemical_formula_sum   'Ba28 Ti4 N24'
_cell_volume   1303.56888712
_cell_formula_units_Z   4
loop_
 _symmetry_equiv_pos_site_id
 _symmetry_equiv_pos_as_xyz
  1  'x, y, z'
loop_
 _atom_site_type_symbol
 _atom_site_label
 _atom_site_symmetry_multiplicity
 _atom_site_fract_x
 _atom_site_fract_y
 _atom_site_fract_z
 _atom_site_occupancy
  Ba  Ba0  1  0.03427700  0.74225200  0.98010000  1
  Ba  Ba1  1  0.46572300  0.75774800  0.48010000  1
  Ba  Ba2  1  0.53427700  0.75774800  0.01990000  1
  Ba  Ba3  1  0.96572300  0.74225200  0.51990000  1
  Ba  Ba4  1  0.96572300  0.25774800  0.01990000  1
  Ba  Ba5  1  0.53427700  0.24225200  0.51990000  1
  Ba  Ba6  1  0.46572300  0.24225200  0.98010000  1
  Ba  Ba7  1  0.03427700  0.25774800  0.48010000  1
  Ba  Ba8  1  0.22673200  0.83643400  0.62733500  1
  Ba  Ba9  1  0.27326800  0.66356600  0.12733500  1
  Ba  Ba10  1  0.72673200  0.66356600  0.37266500  1
  Ba  Ba11  1  0.77326800  0.83643400  0.87266500  1
  Ba  Ba12  1  0.77326800  0.16356600  0.37266500  1
  Ba  Ba13  1  0.72673200  0.33643400  0.87266500  1
  Ba  Ba14  1  0.27326800  0.33643400  0.62733500  1
  Ba  Ba15  1  0.22673200  0.16356600  0.12733500  1
  Ba  Ba16  1  0.28735000  0.59791200  0.87426600  1
  Ba  Ba17  1  0.21265000  0.90208800  0.37426600  1
  Ba  Ba18  1  0.78735000  0.90208800  0.12573400  1
  Ba  Ba19  1  0.71265000  0.59791200  0.62573400  1
  Ba  Ba20  1  0.71265000  0.40208800  0.12573400  1
  Ba  Ba21  1  0.78735000  0.09791200  0.62573400  1
  Ba  Ba22  1  0.21265000  0.09791200  0.87426600  1
  Ba  Ba23  1  0.28735000  0.40208800  0.37426600  1
  Ba  Ba24  1  0.00000000  0.42938000  0.75000000  1
  Ba  Ba25  1  0.50000000  0.07062000  0.25000000  1
  Ba  Ba26  1  0.00000000  0.57062000  0.25000000  1
  Ba  Ba27  1  0.50000000  0.92938000  0.75000000  1
  Ti  Ti28  1  0.00000000  0.92305900  0.75000000  1
  Ti  Ti29  1  0.50000000  0.57694100  0.25000000  1
  Ti  Ti30  1  0.00000000  0.07694100  0.25000000  1
  Ti  Ti31  1  0.50000000  0.42305900  0.75000000  1
  N  N32  1  0.11697400  0.75658400  0.79030500  1
  N  N33  1  0.38302600  0.74341600  0.29030500  1
  N  N34  1  0.61697400  0.74341600  0.20969500  1
  N  N35  1  0.88302600  0.75658400  0.70969500  1
  N  N36  1  0.88302600  0.24341600  0.20969500  1
  N  N37  1  0.61697400  0.25658400  0.70969500  1
  N  N38  1  0.38302600  0.25658400  0.79030500  1
  N  N39  1  0.11697400  0.24341600  0.29030500  1
  N  N40  1  0.16280000  0.60199300  0.49827600  1
  N  N41  1  0.33720000  0.89800700  0.99827600  1
  N  N42  1  0.66280000  0.89800700  0.50172400  1
  N  N43  1  0.83720000  0.60199300  0.00172400  1
  N  N44  1  0.83720000  0.39800700  0.50172400  1
  N  N45  1  0.66280000  0.10199300  0.00172400  1
  N  N46  1  0.33720000  0.10199300  0.49827600  1
  N  N47  1  0.16280000  0.39800700  0.99827600  1
  N  N48  1  0.44830000  0.58037900  0.64945900  1
  N  N49  1  0.05170000  0.91962100  0.14945900  1
  N  N50  1  0.94830000  0.91962100  0.35054100  1
  N  N51  1  0.55170000  0.58037900  0.85054100  1
  N  N52  1  0.55170000  0.41962100  0.35054100  1
  N  N53  1  0.94830000  0.08037900  0.85054100  1
  N  N54  1  0.05170000  0.08037900  0.64945900  1
  N  N55  1  0.44830000  0.41962100  0.14945900  1
