# generated using pymatgen
data_KPdN
_symmetry_space_group_name_H-M   'P 1'
_cell_length_a   5.07613600
_cell_length_b   5.07643848
_cell_length_c   3.73789300
_cell_angle_alpha   90.00000000
_cell_angle_beta   90.00000000
_cell_angle_gamma   119.99802896
_symmetry_Int_Tables_number   1
_chemical_formula_structural   KPdN
_chemical_formula_sum   'K1 Pd1 N1'
_cell_volume   83.41775527
_cell_formula_units_Z   1
loop_
 _symmetry_equiv_pos_site_id
 _symmetry_equiv_pos_as_xyz
  1  'x, y, z'
loop_
 _atom_site_type_symbol
 _atom_site_label
 _atom_site_symmetry_multiplicity
 _atom_site_fract_x
 _atom_site_fract_y
 _atom_site_fract_z
 _atom_site_occupancy
  K  K0  1  0.00001000  0.00002100  0.50000000  1
  Pd  Pd1  1  0.66669600  0.33339300  0.00000000  1
  N  N2  1  0.66669200  0.33338600  0.50000000  1
