# generated using pymatgen
data_Ru(CN)2
_symmetry_space_group_name_H-M   'P 1'
_cell_length_a   6.06104300
_cell_length_b   7.12012900
_cell_length_c   11.45423600
_cell_angle_alpha   90.00000000
_cell_angle_beta   90.00000000
_cell_angle_gamma   90.00000000
_symmetry_Int_Tables_number   1
_chemical_formula_structural   Ru(CN)2
_chemical_formula_sum   'Ru8 C16 N16'
_cell_volume   494.31222830
_cell_formula_units_Z   8
loop_
 _symmetry_equiv_pos_site_id
 _symmetry_equiv_pos_as_xyz
  1  'x, y, z'
loop_
 _atom_site_type_symbol
 _atom_site_label
 _atom_site_symmetry_multiplicity
 _atom_site_fract_x
 _atom_site_fract_y
 _atom_site_fract_z
 _atom_site_occupancy
  Ru  Ru0  1  0.50152800  0.11292800  0.36917200  1
  Ru  Ru1  1  0.00152800  0.38707200  0.63082800  1
  Ru  Ru2  1  0.49847200  0.61292800  0.13082800  1
  Ru  Ru3  1  0.99847200  0.88707200  0.86917200  1
  Ru  Ru4  1  0.49847200  0.88707200  0.63082800  1
  Ru  Ru5  1  0.99847200  0.61292800  0.36917200  1
  Ru  Ru6  1  0.50152800  0.38707200  0.86917200  1
  Ru  Ru7  1  0.00152800  0.11292800  0.13082800  1
  C  C8  1  0.74408800  0.24390300  0.42222500  1
  C  C9  1  0.24408800  0.25609700  0.57777500  1
  C  C10  1  0.25591200  0.74390300  0.07777500  1
  C  C11  1  0.75591200  0.75609700  0.92222500  1
  C  C12  1  0.25591200  0.75609700  0.57777500  1
  C  C13  1  0.75591200  0.74390300  0.42222500  1
  C  C14  1  0.74408800  0.25609700  0.92222500  1
  C  C15  1  0.24408800  0.24390300  0.07777500  1
  C  C16  1  0.39881500  0.34650800  0.31598700  1
  C  C17  1  0.89881500  0.15349200  0.68401300  1
  C  C18  1  0.60118500  0.84650800  0.18401300  1
  C  C19  1  0.10118500  0.65349200  0.81598700  1
  C  C20  1  0.60118500  0.65349200  0.68401300  1
  C  C21  1  0.10118500  0.84650800  0.31598700  1
  C  C22  1  0.39881500  0.15349200  0.81598700  1
  C  C23  1  0.89881500  0.34650800  0.18401300  1
  N  N24  1  0.87872900  0.35169100  0.46066700  1
  N  N25  1  0.37872900  0.14830900  0.53933300  1
  N  N26  1  0.12127100  0.85169100  0.03933300  1
  N  N27  1  0.62127100  0.64830900  0.96066700  1
  N  N28  1  0.12127100  0.64830900  0.53933300  1
  N  N29  1  0.62127100  0.85169100  0.46066700  1
  N  N30  1  0.87872900  0.14830900  0.96066700  1
  N  N31  1  0.37872900  0.35169100  0.03933300  1
  N  N32  1  0.33768000  0.50193900  0.28848200  1
  N  N33  1  0.83768000  0.99806100  0.71151800  1
  N  N34  1  0.66232000  0.00193900  0.21151800  1
  N  N35  1  0.16232000  0.49806100  0.78848200  1
  N  N36  1  0.66232000  0.49806100  0.71151800  1
  N  N37  1  0.16232000  0.00193900  0.28848200  1
  N  N38  1  0.33768000  0.99806100  0.78848200  1
  N  N39  1  0.83768000  0.50193900  0.21151800  1
