# generated using pymatgen
data_KCdN
_symmetry_space_group_name_H-M   'P 1'
_cell_length_a   9.39253914
_cell_length_b   4.61920209
_cell_length_c   6.19154181
_cell_angle_alpha   47.91781696
_cell_angle_beta   131.22910260
_cell_angle_gamma   116.21284851
_symmetry_Int_Tables_number   1
_chemical_formula_structural   KCdN
_chemical_formula_sum   'K2 Cd2 N2'
_cell_volume   149.94248967
_cell_formula_units_Z   2
loop_
 _symmetry_equiv_pos_site_id
 _symmetry_equiv_pos_as_xyz
  1  'x, y, z'
loop_
 _atom_site_type_symbol
 _atom_site_label
 _atom_site_symmetry_multiplicity
 _atom_site_fract_x
 _atom_site_fract_y
 _atom_site_fract_z
 _atom_site_occupancy
  K  K0  1  0.38303300  0.59687900  0.59351900  1
  K  K1  1  0.88303300  0.40312100  0.19039800  1
  Cd  Cd2  1  0.13206300  0.49947000  0.89129700  1
  Cd  Cd3  1  0.63206300  0.50053000  0.39076700  1
  N  N4  1  0.38190400  0.81213300  0.98494300  1
  N  N5  1  0.88190400  0.18786700  0.79707600  1
