# generated using pymatgen
data_Mn7SnN6
_symmetry_space_group_name_H-M   'P 1'
_cell_length_a   9.32367500
_cell_length_b   5.39366400
_cell_length_c   11.76631100
_cell_angle_alpha   90.00000000
_cell_angle_beta   90.00000000
_cell_angle_gamma   90.00000000
_symmetry_Int_Tables_number   1
_chemical_formula_structural   Mn7SnN6
_chemical_formula_sum   'Mn28 Sn4 N24'
_cell_volume   591.71330992
_cell_formula_units_Z   4
loop_
 _symmetry_equiv_pos_site_id
 _symmetry_equiv_pos_as_xyz
  1  'x, y, z'
loop_
 _atom_site_type_symbol
 _atom_site_label
 _atom_site_symmetry_multiplicity
 _atom_site_fract_x
 _atom_site_fract_y
 _atom_site_fract_z
 _atom_site_occupancy
  Mn  Mn0  1  0.96176600  0.80616200  0.95635500  1
  Mn  Mn1  1  0.53823400  0.69383800  0.45635500  1
  Mn  Mn2  1  0.46176600  0.69383800  0.04364500  1
  Mn  Mn3  1  0.03823400  0.80616200  0.54364500  1
  Mn  Mn4  1  0.03823400  0.19383800  0.04364500  1
  Mn  Mn5  1  0.46176600  0.30616200  0.54364500  1
  Mn  Mn6  1  0.53823400  0.30616200  0.95635500  1
  Mn  Mn7  1  0.96176600  0.19383800  0.45635500  1
  Mn  Mn8  1  0.31324200  0.86630100  0.60032100  1
  Mn  Mn9  1  0.18675800  0.63369900  0.10032100  1
  Mn  Mn10  1  0.81324200  0.63369900  0.39967900  1
  Mn  Mn11  1  0.68675800  0.86630100  0.89967900  1
  Mn  Mn12  1  0.68675800  0.13369900  0.39967900  1
  Mn  Mn13  1  0.81324200  0.36630100  0.89967900  1
  Mn  Mn14  1  0.18675800  0.36630100  0.60032100  1
  Mn  Mn15  1  0.31324200  0.13369900  0.10032100  1
  Mn  Mn16  1  0.26299700  0.60164200  0.88143000  1
  Mn  Mn17  1  0.23700300  0.89835800  0.38143000  1
  Mn  Mn18  1  0.76299700  0.89835800  0.11857000  1
  Mn  Mn19  1  0.73700300  0.60164200  0.61857000  1
  Mn  Mn20  1  0.73700300  0.39835800  0.11857000  1
  Mn  Mn21  1  0.76299700  0.10164200  0.61857000  1
  Mn  Mn22  1  0.23700300  0.10164200  0.88143000  1
  Mn  Mn23  1  0.26299700  0.39835800  0.38143000  1
  Mn  Mn24  1  0.00000000  0.22440200  0.75000000  1
  Mn  Mn25  1  0.50000000  0.27559800  0.25000000  1
  Mn  Mn26  1  0.00000000  0.77559800  0.25000000  1
  Mn  Mn27  1  0.50000000  0.72440200  0.75000000  1
  Sn  Sn28  1  0.00000000  0.70374200  0.75000000  1
  Sn  Sn29  1  0.50000000  0.79625800  0.25000000  1
  Sn  Sn30  1  0.00000000  0.29625800  0.25000000  1
  Sn  Sn31  1  0.50000000  0.20374200  0.75000000  1
  N  N32  1  0.19234100  0.35533200  0.76909400  1
  N  N33  1  0.30765900  0.14466800  0.26909400  1
  N  N34  1  0.69234100  0.14466800  0.23090600  1
  N  N35  1  0.80765900  0.35533200  0.73090600  1
  N  N36  1  0.80765900  0.64466800  0.23090600  1
  N  N37  1  0.69234100  0.85533200  0.73090600  1
  N  N38  1  0.30765900  0.85533200  0.76909400  1
  N  N39  1  0.19234100  0.64466800  0.26909400  1
  N  N40  1  0.20270300  0.64564200  0.50551200  1
  N  N41  1  0.29729700  0.85435800  0.00551100  1
  N  N42  1  0.70270300  0.85435800  0.49448800  1
  N  N43  1  0.79729700  0.64564200  0.99448800  1
  N  N44  1  0.79729700  0.35435800  0.49448800  1
  N  N45  1  0.70270300  0.14564200  0.99448800  1
  N  N46  1  0.29729700  0.14564200  0.50551200  1
  N  N47  1  0.20270300  0.35435800  0.00551100  1
  N  N48  1  0.45687800  0.62947300  0.59743400  1
  N  N49  1  0.04312200  0.87052700  0.09743400  1
  N  N50  1  0.95687800  0.87052700  0.40256600  1
  N  N51  1  0.54312200  0.62947300  0.90256600  1
  N  N52  1  0.54312200  0.37052700  0.40256600  1
  N  N53  1  0.95687800  0.12947300  0.90256600  1
  N  N54  1  0.04312200  0.12947300  0.59743400  1
  N  N55  1  0.45687800  0.37052700  0.09743400  1
