# generated using pymatgen
data_Zn2PbN2
_symmetry_space_group_name_H-M   'P 1'
_cell_length_a   5.98433565
_cell_length_b   6.66625151
_cell_length_c   7.37368707
_cell_angle_alpha   89.99999952
_cell_angle_beta   51.96939573
_cell_angle_gamma   56.15312814
_symmetry_Int_Tables_number   1
_chemical_formula_structural   Zn2PbN2
_chemical_formula_sum   'Zn4 Pb2 N4'
_cell_volume   163.83929755
_cell_formula_units_Z   2
loop_
 _symmetry_equiv_pos_site_id
 _symmetry_equiv_pos_as_xyz
  1  'x, y, z'
loop_
 _atom_site_type_symbol
 _atom_site_label
 _atom_site_symmetry_multiplicity
 _atom_site_fract_x
 _atom_site_fract_y
 _atom_site_fract_z
 _atom_site_occupancy
  Zn  Zn0  1  0.72502200  0.50000000  0.63748900  1
  Zn  Zn1  1  0.27497800  0.50000000  0.36251100  1
  Zn  Zn2  1  0.27497800  0.22502200  0.86251100  1
  Zn  Zn3  1  0.72502200  0.77497800  0.13748900  1
  Pb  Pb4  1  0.00000000  0.00000000  0.25000000  1
  Pb  Pb5  1  0.00000000  0.00000000  0.75000000  1
  N  N6  1  0.67753700  0.50000000  0.16123100  1
  N  N7  1  0.32246300  0.50000000  0.83876900  1
  N  N8  1  0.32246300  0.17753700  0.33876900  1
  N  N9  1  0.67753700  0.82246300  0.66123100  1
