# generated using pymatgen
data_Sr3TiN3
_symmetry_space_group_name_H-M   'P 1'
_cell_length_a   7.86788300
_cell_length_b   7.86784672
_cell_length_c   5.40140000
_cell_angle_alpha   90.00000000
_cell_angle_beta   90.00000000
_cell_angle_gamma   120.00406540
_symmetry_Int_Tables_number   1
_chemical_formula_structural   Sr3TiN3
_chemical_formula_sum   'Sr6 Ti2 N6'
_cell_volume   289.55626310
_cell_formula_units_Z   2
loop_
 _symmetry_equiv_pos_site_id
 _symmetry_equiv_pos_as_xyz
  1  'x, y, z'
loop_
 _atom_site_type_symbol
 _atom_site_label
 _atom_site_symmetry_multiplicity
 _atom_site_fract_x
 _atom_site_fract_y
 _atom_site_fract_z
 _atom_site_occupancy
  Sr  Sr0  1  0.91378400  0.64113800  0.25000000  1
  Sr  Sr1  1  0.72735700  0.08621300  0.25000000  1
  Sr  Sr2  1  0.35885800  0.27266300  0.25000000  1
  Sr  Sr3  1  0.08621600  0.35886200  0.75000000  1
  Sr  Sr4  1  0.27264300  0.91378700  0.75000000  1
  Sr  Sr5  1  0.64114200  0.72733700  0.75000000  1
  Ti  Ti6  1  0.66669500  0.33341800  0.75000000  1
  Ti  Ti7  1  0.33330500  0.66658200  0.25000000  1
  N  N8  1  0.88320000  0.59691600  0.75000000  1
  N  N9  1  0.71373000  0.11672100  0.75000000  1
  N  N10  1  0.40303200  0.28625300  0.75000000  1
  N  N11  1  0.11680000  0.40308400  0.25000000  1
  N  N12  1  0.28627000  0.88327900  0.25000000  1
  N  N13  1  0.59696800  0.71374700  0.25000000  1
