# generated using pymatgen
data_Sr2IrN3
_symmetry_space_group_name_H-M   'P 1'
_cell_length_a   6.30932612
_cell_length_b   11.34360524
_cell_length_c   12.49502904
_cell_angle_alpha   90.00000124
_cell_angle_beta   92.37714016
_cell_angle_gamma   154.02109092
_symmetry_Int_Tables_number   1
_chemical_formula_structural   Sr2IrN3
_chemical_formula_sum   'Sr8 Ir4 N12'
_cell_volume   389.96866564
_cell_formula_units_Z   4
loop_
 _symmetry_equiv_pos_site_id
 _symmetry_equiv_pos_as_xyz
  1  'x, y, z'
loop_
 _atom_site_type_symbol
 _atom_site_label
 _atom_site_symmetry_multiplicity
 _atom_site_fract_x
 _atom_site_fract_y
 _atom_site_fract_z
 _atom_site_occupancy
  Sr  Sr0  1  0.44209500  0.02143400  0.85582800  1
  Sr  Sr1  1  0.55790500  0.57933900  0.64417200  1
  Sr  Sr2  1  0.55790500  0.97856600  0.14417200  1
  Sr  Sr3  1  0.44209500  0.42066100  0.35582800  1
  Sr  Sr4  1  0.53190000  0.87402500  0.57473400  1
  Sr  Sr5  1  0.46810000  0.34212500  0.92526600  1
  Sr  Sr6  1  0.46810000  0.12597500  0.42526600  1
  Sr  Sr7  1  0.53190000  0.65787500  0.07473400  1
  Ir  Ir8  1  0.58747800  0.28955000  0.66884000  1
  Ir  Ir9  1  0.41252200  0.70207200  0.83116000  1
  Ir  Ir10  1  0.41252200  0.71045000  0.33116000  1
  Ir  Ir11  1  0.58747800  0.29792800  0.16884000  1
  N  N12  1  0.00000000  0.61783600  0.75000000  1
  N  N13  1  0.00000000  0.38216400  0.25000000  1
  N  N14  1  0.58504600  0.12498300  0.63368200  1
  N  N15  1  0.41495400  0.53993700  0.86631800  1
  N  N16  1  0.41495400  0.87501700  0.36631800  1
  N  N17  1  0.58504600  0.46006300  0.13368200  1
  N  N18  1  0.50386700  0.15714400  0.04300500  1
  N  N19  1  0.49613300  0.65327800  0.45699500  1
  N  N20  1  0.49613300  0.84285600  0.95699500  1
  N  N21  1  0.50386700  0.34672200  0.54300500  1
  N  N22  1  0.00000000  0.00122600  0.75000000  1
  N  N23  1  0.00000000  0.99877400  0.25000000  1
