# generated using pymatgen
data_NaCrN
_symmetry_space_group_name_H-M   'P 1'
_cell_length_a   3.10843800
_cell_length_b   3.10710801
_cell_length_c   10.49922600
_cell_angle_alpha   90.00000000
_cell_angle_beta   90.00000000
_cell_angle_gamma   120.01413943
_symmetry_Int_Tables_number   1
_chemical_formula_structural   NaCrN
_chemical_formula_sum   'Na2 Cr2 N2'
_cell_volume   87.80607828
_cell_formula_units_Z   2
loop_
 _symmetry_equiv_pos_site_id
 _symmetry_equiv_pos_as_xyz
  1  'x, y, z'
loop_
 _atom_site_type_symbol
 _atom_site_label
 _atom_site_symmetry_multiplicity
 _atom_site_fract_x
 _atom_site_fract_y
 _atom_site_fract_z
 _atom_site_occupancy
  Na  Na0  1  0.66594700  0.33189300  0.75852000  1
  Na  Na1  1  0.33405300  0.66810700  0.25852000  1
  Cr  Cr2  1  0.00050800  0.00101700  0.51779500  1
  Cr  Cr3  1  0.99949200  0.99898300  0.01779500  1
  N  N4  1  0.33394700  0.66789500  0.56832500  1
  N  N5  1  0.66605300  0.33210500  0.06832500  1
