# generated using pymatgen
data_VCoN2
_symmetry_space_group_name_H-M   'P 1'
_cell_length_a   2.83750000
_cell_length_b   2.83745143
_cell_length_c   9.58924100
_cell_angle_alpha   90.00000000
_cell_angle_beta   90.00000000
_cell_angle_gamma   120.00056624
_symmetry_Int_Tables_number   1
_chemical_formula_structural   VCoN2
_chemical_formula_sum   'V2 Co2 N4'
_cell_volume   66.86158903
_cell_formula_units_Z   2
loop_
 _symmetry_equiv_pos_site_id
 _symmetry_equiv_pos_as_xyz
  1  'x, y, z'
loop_
 _atom_site_type_symbol
 _atom_site_label
 _atom_site_symmetry_multiplicity
 _atom_site_fract_x
 _atom_site_fract_y
 _atom_site_fract_z
 _atom_site_occupancy
  V  V0  1  0.66656300  0.33312500  0.25000000  1
  V  V1  1  0.33343700  0.66687500  0.75000000  1
  Co  Co2  1  0.00000000  0.00000000  0.00000000  1
  Co  Co3  1  0.00000000  0.00000000  0.50000000  1
  N  N4  1  0.66669100  0.33338100  0.87927900  1
  N  N5  1  0.33330900  0.66661900  0.12072100  1
  N  N6  1  0.33330900  0.66661900  0.37927900  1
  N  N7  1  0.66669100  0.33338100  0.62072100  1
