# generated using pymatgen
data_Na3YN2
_symmetry_space_group_name_H-M   'P 1'
_cell_length_a   10.06121600
_cell_length_b   11.61769182
_cell_length_c   11.61769072
_cell_angle_alpha   89.99999977
_cell_angle_beta   125.26439049
_cell_angle_gamma   54.73561333
_symmetry_Int_Tables_number   1
_chemical_formula_structural   Na3YN2
_chemical_formula_sum   'Na24 Y8 N16'
_cell_volume   784.02431175
_cell_formula_units_Z   8
loop_
 _symmetry_equiv_pos_site_id
 _symmetry_equiv_pos_as_xyz
  1  'x, y, z'
loop_
 _atom_site_type_symbol
 _atom_site_label
 _atom_site_symmetry_multiplicity
 _atom_site_fract_x
 _atom_site_fract_y
 _atom_site_fract_z
 _atom_site_occupancy
  Na  Na0  1  0.21856100  0.04781700  0.98817900  1
  Na  Na1  1  0.78143900  0.76637800  0.51182100  1
  Na  Na2  1  0.78143900  0.45218300  0.76961800  1
  Na  Na3  1  0.21856100  0.73362200  0.73038200  1
  Na  Na4  1  0.24220300  0.76961800  0.27820000  1
  Na  Na5  1  0.75779700  0.73038200  0.03599600  1
  Na  Na6  1  0.24220300  0.98817900  0.46400400  1
  Na  Na7  1  0.75779700  0.51182100  0.22180000  1
  Na  Na8  1  0.68580400  0.03599600  0.73362200  1
  Na  Na9  1  0.68580400  0.27820000  0.45218300  1
  Na  Na10  1  0.31419600  0.22180000  0.76637800  1
  Na  Na11  1  0.31419600  0.46400400  0.04781700  1
  Na  Na12  1  0.78143900  0.95218300  0.01182100  1
  Na  Na13  1  0.21856100  0.23362200  0.48817900  1
  Na  Na14  1  0.21856100  0.54781700  0.23038200  1
  Na  Na15  1  0.78143900  0.26637800  0.26961800  1
  Na  Na16  1  0.75779700  0.23038200  0.72180000  1
  Na  Na17  1  0.24220300  0.26961800  0.96400400  1
  Na  Na18  1  0.75779700  0.01182100  0.53599600  1
  Na  Na19  1  0.24220300  0.48817900  0.77820000  1
  Na  Na20  1  0.31419600  0.96400400  0.26637800  1
  Na  Na21  1  0.31419600  0.72180000  0.54781700  1
  Na  Na22  1  0.68580400  0.77820000  0.23362200  1
  Na  Na23  1  0.68580400  0.53599600  0.95218300  1
  Y  Y24  1  0.23058500  0.00000000  0.73058500  1
  Y  Y25  1  0.76941500  0.73058500  0.76941500  1
  Y  Y26  1  0.76941500  0.50000000  0.50000000  1
  Y  Y27  1  0.23058500  0.76941500  0.00000000  1
  Y  Y28  1  0.76941500  0.00000000  0.26941500  1
  Y  Y29  1  0.23058500  0.26941500  0.23058500  1
  Y  Y30  1  0.23058500  0.50000000  0.50000000  1
  Y  Y31  1  0.76941500  0.23058500  0.00000000  1
  N  N32  1  0.00000000  0.00000000  0.50000000  1
  N  N33  1  0.00000000  0.50000000  0.00000000  1
  N  N34  1  0.00000000  0.50000000  0.50000000  1
  N  N35  1  0.00000000  0.00000000  0.00000000  1
  N  N36  1  0.50000000  0.96134700  0.75000000  1
  N  N37  1  0.50000000  0.53865300  0.25000000  1
  N  N38  1  0.00000000  0.25000000  0.71134700  1
  N  N39  1  0.00000000  0.75000000  0.78865300  1
  N  N40  1  0.57730800  0.71134700  0.53865300  1
  N  N41  1  0.42269200  0.78865300  0.96134700  1
  N  N42  1  0.50000000  0.03865300  0.25000000  1
  N  N43  1  0.50000000  0.46134700  0.75000000  1
  N  N44  1  0.00000000  0.75000000  0.28865300  1
  N  N45  1  0.00000000  0.25000000  0.21134700  1
  N  N46  1  0.42269200  0.28865300  0.46134700  1
  N  N47  1  0.57730800  0.21134700  0.03865300  1
