# generated using pymatgen
data_Na3BiN2
_symmetry_space_group_name_H-M   'P 1'
_cell_length_a   10.25411300
_cell_length_b   11.84043064
_cell_length_c   11.84042995
_cell_angle_alpha   90.00000353
_cell_angle_beta   125.26439313
_cell_angle_gamma   54.73560922
_symmetry_Int_Tables_number   1
_chemical_formula_structural   Na3BiN2
_chemical_formula_sum   'Na24 Bi8 N16'
_cell_volume   829.98916021
_cell_formula_units_Z   8
loop_
 _symmetry_equiv_pos_site_id
 _symmetry_equiv_pos_as_xyz
  1  'x, y, z'
loop_
 _atom_site_type_symbol
 _atom_site_label
 _atom_site_symmetry_multiplicity
 _atom_site_fract_x
 _atom_site_fract_y
 _atom_site_fract_z
 _atom_site_occupancy
  Na  Na0  1  0.23331800  0.02855200  0.99784600  1
  Na  Na1  1  0.76668200  0.76187000  0.50215400  1
  Na  Na2  1  0.76668200  0.47144800  0.76452900  1
  Na  Na3  1  0.23331800  0.73813000  0.73547100  1
  Na  Na4  1  0.23762500  0.76452900  0.26402400  1
  Na  Na5  1  0.76237500  0.73547100  0.02639900  1
  Na  Na6  1  0.23762500  0.99784600  0.47360100  1
  Na  Na7  1  0.76237500  0.50215400  0.23597600  1
  Na  Na8  1  0.70957800  0.02639900  0.73813000  1
  Na  Na9  1  0.70957800  0.26402400  0.47144800  1
  Na  Na10  1  0.29042200  0.23597600  0.76187000  1
  Na  Na11  1  0.29042200  0.47360100  0.02855200  1
  Na  Na12  1  0.76668200  0.97144800  0.00215400  1
  Na  Na13  1  0.23331800  0.23813000  0.49784600  1
  Na  Na14  1  0.23331800  0.52855200  0.23547100  1
  Na  Na15  1  0.76668200  0.26187000  0.26452900  1
  Na  Na16  1  0.76237500  0.23547100  0.73597600  1
  Na  Na17  1  0.23762500  0.26452900  0.97360100  1
  Na  Na18  1  0.76237500  0.00215400  0.52639900  1
  Na  Na19  1  0.23762500  0.49784600  0.76402400  1
  Na  Na20  1  0.29042200  0.97360100  0.26187000  1
  Na  Na21  1  0.29042200  0.73597600  0.52855200  1
  Na  Na22  1  0.70957800  0.76402400  0.23813000  1
  Na  Na23  1  0.70957800  0.52639900  0.97144800  1
  Bi  Bi24  1  0.24142400  0.00000000  0.74142400  1
  Bi  Bi25  1  0.75857600  0.74142400  0.75857600  1
  Bi  Bi26  1  0.75857600  0.50000000  0.50000000  1
  Bi  Bi27  1  0.24142400  0.75857600  0.00000000  1
  Bi  Bi28  1  0.75857600  0.00000000  0.25857600  1
  Bi  Bi29  1  0.24142400  0.25857600  0.24142400  1
  Bi  Bi30  1  0.24142400  0.50000000  0.50000000  1
  Bi  Bi31  1  0.75857600  0.24142400  0.00000000  1
  N  N32  1  0.00000000  0.00000000  0.50000000  1
  N  N33  1  0.00000000  0.50000000  0.00000000  1
  N  N34  1  0.00000000  0.50000000  0.50000000  1
  N  N35  1  0.00000000  0.00000000  0.00000000  1
  N  N36  1  0.50000000  0.97803400  0.75000000  1
  N  N37  1  0.50000000  0.52196600  0.25000000  1
  N  N38  1  0.00000000  0.25000000  0.72803400  1
  N  N39  1  0.00000000  0.75000000  0.77196600  1
  N  N40  1  0.54393200  0.72803400  0.52196600  1
  N  N41  1  0.45606800  0.77196600  0.97803400  1
  N  N42  1  0.50000000  0.02196600  0.25000000  1
  N  N43  1  0.50000000  0.47803400  0.75000000  1
  N  N44  1  0.00000000  0.75000000  0.27196600  1
  N  N45  1  0.00000000  0.25000000  0.22803400  1
  N  N46  1  0.45606800  0.27196600  0.47803400  1
  N  N47  1  0.54393200  0.22803400  0.02196600  1
