# generated using pymatgen
data_KMnN
_symmetry_space_group_name_H-M   'P 1'
_cell_length_a   10.12585900
_cell_length_b   3.60289700
_cell_length_c   6.71471500
_cell_angle_alpha   90.00000000
_cell_angle_beta   90.00000000
_cell_angle_gamma   90.00000000
_symmetry_Int_Tables_number   1
_chemical_formula_structural   KMnN
_chemical_formula_sum   'K4 Mn4 N4'
_cell_volume   244.96909990
_cell_formula_units_Z   4
loop_
 _symmetry_equiv_pos_site_id
 _symmetry_equiv_pos_as_xyz
  1  'x, y, z'
loop_
 _atom_site_type_symbol
 _atom_site_label
 _atom_site_symmetry_multiplicity
 _atom_site_fract_x
 _atom_site_fract_y
 _atom_site_fract_z
 _atom_site_occupancy
  K  K0  1  0.67892300  0.25000000  0.94795100  1
  K  K1  1  0.17892300  0.25000000  0.55204900  1
  K  K2  1  0.32107700  0.75000000  0.05204900  1
  K  K3  1  0.82107700  0.75000000  0.44795100  1
  Mn  Mn4  1  0.52683100  0.25000000  0.39386900  1
  Mn  Mn5  1  0.02683100  0.25000000  0.10613100  1
  Mn  Mn6  1  0.47316900  0.75000000  0.60613100  1
  Mn  Mn7  1  0.97316900  0.75000000  0.89386900  1
  N  N8  1  0.95883900  0.25000000  0.84190900  1
  N  N9  1  0.45883900  0.25000000  0.65809100  1
  N  N10  1  0.04116100  0.75000000  0.15809100  1
  N  N11  1  0.54116100  0.75000000  0.34190900  1
