# generated using pymatgen
data_CaReN2
_symmetry_space_group_name_H-M   'P 1'
_cell_length_a   5.70326784
_cell_length_b   5.70326776
_cell_length_c   5.70326813
_cell_angle_alpha   32.12053781
_cell_angle_beta   32.12054454
_cell_angle_gamma   32.12054300
_symmetry_Int_Tables_number   1
_chemical_formula_structural   CaReN2
_chemical_formula_sum   'Ca1 Re1 N2'
_cell_volume   46.60637252
_cell_formula_units_Z   1
loop_
 _symmetry_equiv_pos_site_id
 _symmetry_equiv_pos_as_xyz
  1  'x, y, z'
loop_
 _atom_site_type_symbol
 _atom_site_label
 _atom_site_symmetry_multiplicity
 _atom_site_fract_x
 _atom_site_fract_y
 _atom_site_fract_z
 _atom_site_occupancy
  Ca  Ca0  1  0.00000000  0.00000000  0.00000000  1
  Re  Re1  1  0.50000000  0.50000000  0.50000000  1
  N  N2  1  0.76325900  0.76325900  0.76325900  1
  N  N3  1  0.23674100  0.23674100  0.23674100  1
