# generated using pymatgen
data_SrC7N10
_symmetry_space_group_name_H-M   'P 1'
_cell_length_a   5.86468990
_cell_length_b   5.68532400
_cell_length_c   8.16661883
_cell_angle_alpha   90.00000000
_cell_angle_beta   106.40794051
_cell_angle_gamma   90.00000000
_symmetry_Int_Tables_number   1
_chemical_formula_structural   SrC7N10
_chemical_formula_sum   'Sr2 C14 N20'
_cell_volume   261.20748096
_cell_formula_units_Z   2
loop_
 _symmetry_equiv_pos_site_id
 _symmetry_equiv_pos_as_xyz
  1  'x, y, z'
loop_
 _atom_site_type_symbol
 _atom_site_label
 _atom_site_symmetry_multiplicity
 _atom_site_fract_x
 _atom_site_fract_y
 _atom_site_fract_z
 _atom_site_occupancy
  Sr  Sr0  1  0.96071100  0.12056200  0.67227000  1
  Sr  Sr1  1  0.96071100  0.87943800  0.17227000  1
  C  C2  1  0.54007300  0.97452300  0.82816700  1
  C  C3  1  0.54007300  0.02547700  0.32816700  1
  C  C4  1  0.35785100  0.02998400  0.02023600  1
  C  C5  1  0.35785100  0.97001600  0.52023600  1
  C  C6  1  0.11115500  0.38885200  0.07334200  1
  C  C7  1  0.11115500  0.61114800  0.57334200  1
  C  C8  1  0.66305200  0.36690300  0.98932700  1
  C  C9  1  0.66305200  0.63309700  0.48932700  1
  C  C10  1  0.84088800  0.63190300  0.80961800  1
  C  C11  1  0.84088800  0.36809700  0.30961800  1
  C  C12  1  0.29671600  0.62342100  0.88611400  1
  C  C13  1  0.29671600  0.37657900  0.38611400  1
  C  C14  1  0.48354700  0.37631800  0.68617700  1
  C  C15  1  0.48354700  0.62368200  0.18617700  1
  N  N16  1  0.74926800  0.84556000  0.83761600  1
  N  N17  1  0.74926800  0.15444000  0.33761600  1
  N  N18  1  0.57550500  0.12630900  0.97981700  1
  N  N19  1  0.57550500  0.87369100  0.47981700  1
  N  N20  1  0.31907200  0.87487800  0.86701100  1
  N  N21  1  0.31907200  0.12512200  0.36701100  1
  N  N22  1  0.15629100  0.16977800  0.01012800  1
  N  N23  1  0.15629100  0.83022200  0.51012800  1
  N  N24  1  0.28338500  0.50318900  0.72594700  1
  N  N25  1  0.28338500  0.49681100  0.22594700  1
  N  N26  1  0.44173600  0.11734800  0.67537200  1
  N  N27  1  0.44173600  0.88265200  0.17537200  1
  N  N28  1  0.88231900  0.40308400  0.12405400  1
  N  N29  1  0.88231900  0.59691600  0.62405400  1
  N  N30  1  0.07982800  0.59209000  0.94071800  1
  N  N31  1  0.07982800  0.40791000  0.44071800  1
  N  N32  1  0.70397100  0.41198300  0.82170200  1
  N  N33  1  0.70397100  0.58801700  0.32170200  1
  N  N34  1  0.49693200  0.54017200  0.02168200  1
  N  N35  1  0.49693200  0.45982800  0.52168200  1
