# generated using pymatgen
data_Na3V6N11
_symmetry_space_group_name_H-M   'P 1'
_cell_length_a   10.56932900
_cell_length_b   10.56932900
_cell_length_c   5.17919600
_cell_angle_alpha   90.00000000
_cell_angle_beta   90.00000000
_cell_angle_gamma   90.00000000
_symmetry_Int_Tables_number   1
_chemical_formula_structural   Na3V6N11
_chemical_formula_sum   'Na6 V12 N22'
_cell_volume   578.57169093
_cell_formula_units_Z   2
loop_
 _symmetry_equiv_pos_site_id
 _symmetry_equiv_pos_as_xyz
  1  'x, y, z'
loop_
 _atom_site_type_symbol
 _atom_site_label
 _atom_site_symmetry_multiplicity
 _atom_site_fract_x
 _atom_site_fract_y
 _atom_site_fract_z
 _atom_site_occupancy
  Na  Na0  1  0.32357600  0.82357600  0.98734300  1
  Na  Na1  1  0.67642400  0.17642400  0.98734300  1
  Na  Na2  1  0.17642400  0.32357600  0.98734300  1
  Na  Na3  1  0.82357600  0.67642400  0.98734300  1
  Na  Na4  1  0.50000000  0.50000000  0.99113200  1
  Na  Na5  1  0.00000000  0.00000000  0.99113200  1
  V  V6  1  0.42452600  0.28802200  0.53556100  1
  V  V7  1  0.57547400  0.71197800  0.53556100  1
  V  V8  1  0.07547400  0.78802200  0.53556100  1
  V  V9  1  0.92452600  0.21197800  0.53556100  1
  V  V10  1  0.28802200  0.57547400  0.53556100  1
  V  V11  1  0.71197800  0.42452600  0.53556100  1
  V  V12  1  0.78802200  0.92452600  0.53556100  1
  V  V13  1  0.21197800  0.07547400  0.53556100  1
  V  V14  1  0.88067900  0.38067900  0.05454400  1
  V  V15  1  0.11932100  0.61932100  0.05454400  1
  V  V16  1  0.61932100  0.88067900  0.05454400  1
  V  V17  1  0.38067900  0.11932100  0.05454400  1
  N  N18  1  0.32368900  0.41703600  0.62583800  1
  N  N19  1  0.67631100  0.58296400  0.62583800  1
  N  N20  1  0.17631100  0.91703600  0.62583800  1
  N  N21  1  0.82368900  0.08296400  0.62583800  1
  N  N22  1  0.41703600  0.67631100  0.62583800  1
  N  N23  1  0.58296400  0.32368900  0.62583800  1
  N  N24  1  0.91703600  0.82368900  0.62583800  1
  N  N25  1  0.08296400  0.17631100  0.62583800  1
  N  N26  1  0.42758100  0.26743700  0.19043600  1
  N  N27  1  0.57241900  0.73256300  0.19043600  1
  N  N28  1  0.07241900  0.76743700  0.19043600  1
  N  N29  1  0.92758100  0.23256300  0.19043600  1
  N  N30  1  0.26743700  0.57241900  0.19043600  1
  N  N31  1  0.73256300  0.42758100  0.19043600  1
  N  N32  1  0.76743700  0.92758100  0.19043600  1
  N  N33  1  0.23256300  0.07241900  0.19043600  1
  N  N34  1  0.85524500  0.35524500  0.69930000  1
  N  N35  1  0.14475500  0.64475500  0.69930000  1
  N  N36  1  0.64475500  0.85524500  0.69930000  1
  N  N37  1  0.35524500  0.14475500  0.69930000  1
  N  N38  1  0.50000000  0.00000000  0.08769200  1
  N  N39  1  0.00000000  0.50000000  0.08769200  1
