# generated using pymatgen
data_Fe2(CN2)3
_symmetry_space_group_name_H-M   'P 1'
_cell_length_a   5.65135894
_cell_length_b   5.22746367
_cell_length_c   14.33393041
_cell_angle_alpha   89.99999434
_cell_angle_beta   147.72085395
_cell_angle_gamma   62.45170526
_symmetry_Int_Tables_number   1
_chemical_formula_structural   Fe2(CN2)3
_chemical_formula_sum   'Fe2 C3 N6'
_cell_volume   113.07248347
_cell_formula_units_Z   1
loop_
 _symmetry_equiv_pos_site_id
 _symmetry_equiv_pos_as_xyz
  1  'x, y, z'
loop_
 _atom_site_type_symbol
 _atom_site_label
 _atom_site_symmetry_multiplicity
 _atom_site_fract_x
 _atom_site_fract_y
 _atom_site_fract_z
 _atom_site_occupancy
  Fe  Fe0  1  0.00000000  0.00000000  0.82814300  1
  Fe  Fe1  1  0.00000000  0.00000000  0.17185700  1
  C  C2  1  0.06989800  0.62006800  0.68996600  1
  C  C3  1  0.00000000  0.68996600  0.00000000  1
  C  C4  1  0.93010200  0.68996600  0.31003400  1
  N  N5  1  0.79209100  0.80796400  0.18085700  1
  N  N6  1  0.99192500  0.60005500  0.58080200  1
  N  N7  1  0.21598400  0.59198000  0.98882100  1
  N  N8  1  0.00807500  0.59198000  0.41919800  1
  N  N9  1  0.78401600  0.80796400  0.01117900  1
  N  N10  1  0.20790900  0.60005500  0.81914300  1
