# generated using pymatgen
data_MnGe7N10
_symmetry_space_group_name_H-M   'P 1'
_cell_length_a   7.01396360
_cell_length_b   7.33936700
_cell_length_c   10.30036671
_cell_angle_alpha   90.00000000
_cell_angle_beta   104.32635005
_cell_angle_gamma   90.00000000
_symmetry_Int_Tables_number   1
_chemical_formula_structural   MnGe7N10
_chemical_formula_sum   'Mn2 Ge14 N20'
_cell_volume   513.75335105
_cell_formula_units_Z   2
loop_
 _symmetry_equiv_pos_site_id
 _symmetry_equiv_pos_as_xyz
  1  'x, y, z'
loop_
 _atom_site_type_symbol
 _atom_site_label
 _atom_site_symmetry_multiplicity
 _atom_site_fract_x
 _atom_site_fract_y
 _atom_site_fract_z
 _atom_site_occupancy
  Mn  Mn0  1  0.99007600  0.92176800  0.70233400  1
  Mn  Mn1  1  0.99007600  0.07823200  0.20233400  1
  Ge  Ge2  1  0.54187600  0.97782800  0.82093700  1
  Ge  Ge3  1  0.54187600  0.02217200  0.32093700  1
  Ge  Ge4  1  0.33535700  0.02052200  0.01856000  1
  Ge  Ge5  1  0.33535700  0.97947800  0.51856000  1
  Ge  Ge6  1  0.11287100  0.39460300  0.07274100  1
  Ge  Ge7  1  0.11287100  0.60539700  0.57274100  1
  Ge  Ge8  1  0.66109900  0.35580400  0.99337700  1
  Ge  Ge9  1  0.66109900  0.64419600  0.49337700  1
  Ge  Ge10  1  0.84336800  0.61430300  0.81205600  1
  Ge  Ge11  1  0.84336800  0.38569700  0.31205600  1
  Ge  Ge12  1  0.30391300  0.62243200  0.88068500  1
  Ge  Ge13  1  0.30391300  0.37756800  0.38068500  1
  Ge  Ge14  1  0.49099300  0.36246300  0.68461000  1
  Ge  Ge15  1  0.49099300  0.63753700  0.18461000  1
  N  N16  1  0.76183300  0.85505300  0.80323800  1
  N  N17  1  0.76183300  0.14494700  0.30323800  1
  N  N18  1  0.54328800  0.13398800  0.96600500  1
  N  N19  1  0.54328800  0.86601200  0.46600500  1
  N  N20  1  0.29994100  0.87481800  0.85863800  1
  N  N21  1  0.29994100  0.12518200  0.35863800  1
  N  N22  1  0.12884900  0.14554900  0.04983400  1
  N  N23  1  0.12884900  0.85445100  0.54983400  1
  N  N24  1  0.30010200  0.51545300  0.71919800  1
  N  N25  1  0.30010200  0.48454700  0.21919800  1
  N  N26  1  0.44109500  0.11879200  0.66971400  1
  N  N27  1  0.44109500  0.88120800  0.16971400  1
  N  N28  1  0.88479400  0.37621100  0.13503400  1
  N  N29  1  0.88479400  0.62378900  0.63503400  1
  N  N30  1  0.08059800  0.56967300  0.93789600  1
  N  N31  1  0.08059800  0.43032700  0.43789600  1
  N  N32  1  0.70988800  0.40171000  0.82556900  1
  N  N33  1  0.70988800  0.59829000  0.32556900  1
  N  N34  1  0.51235900  0.55358300  0.01887400  1
  N  N35  1  0.51235900  0.44641700  0.51887400  1
