# generated using pymatgen
data_Ba3W3N5
_symmetry_space_group_name_H-M   'P 1'
_cell_length_a   6.23154270
_cell_length_b   7.57942537
_cell_length_c   9.28282206
_cell_angle_alpha   106.60998330
_cell_angle_beta   101.39272177
_cell_angle_gamma   95.03063781
_symmetry_Int_Tables_number   1
_chemical_formula_structural   Ba3W3N5
_chemical_formula_sum   'Ba6 W6 N10'
_cell_volume   406.99000441
_cell_formula_units_Z   2
loop_
 _symmetry_equiv_pos_site_id
 _symmetry_equiv_pos_as_xyz
  1  'x, y, z'
loop_
 _atom_site_type_symbol
 _atom_site_label
 _atom_site_symmetry_multiplicity
 _atom_site_fract_x
 _atom_site_fract_y
 _atom_site_fract_z
 _atom_site_occupancy
  Ba  Ba0  1  0.81916500  0.42706000  0.61198600  1
  Ba  Ba1  1  0.18083500  0.57294000  0.38801400  1
  Ba  Ba2  1  0.64398500  0.86040700  0.88139900  1
  Ba  Ba3  1  0.35601500  0.13959300  0.11860100  1
  Ba  Ba4  1  0.64243200  0.65057700  0.21353900  1
  Ba  Ba5  1  0.35756800  0.34942300  0.78646100  1
  W  W6  1  0.91518800  0.31228300  0.97088800  1
  W  W7  1  0.08481200  0.68771700  0.02911200  1
  W  W8  1  0.69510500  0.95547100  0.56862900  1
  W  W9  1  0.30489500  0.04452900  0.43137100  1
  W  W10  1  0.11262100  0.90643300  0.70159800  1
  W  W11  1  0.88737900  0.09356700  0.29840200  1
  N  N12  1  0.90658700  0.11400800  0.77561000  1
  N  N13  1  0.09341300  0.88599200  0.22439000  1
  N  N14  1  0.86647000  0.74545300  0.52634300  1
  N  N15  1  0.13353000  0.25454700  0.47365700  1
  N  N16  1  0.78202800  0.53528200  0.93726300  1
  N  N17  1  0.21797200  0.46471800  0.06273700  1
  N  N18  1  0.38449900  0.94661800  0.62176300  1
  N  N19  1  0.61550100  0.05338200  0.37823700  1
  N  N20  1  0.14477400  0.79756700  0.87055300  1
  N  N21  1  0.85522600  0.20243300  0.12944700  1
