# generated using pymatgen
data_NaFeN
_symmetry_space_group_name_H-M   'P 1'
_cell_length_a   3.00739400
_cell_length_b   3.00739175
_cell_length_c   9.87161000
_cell_angle_alpha   90.00000000
_cell_angle_beta   90.00000000
_cell_angle_gamma   120.00002480
_symmetry_Int_Tables_number   1
_chemical_formula_structural   NaFeN
_chemical_formula_sum   'Na2 Fe2 N2'
_cell_volume   77.32124615
_cell_formula_units_Z   2
loop_
 _symmetry_equiv_pos_site_id
 _symmetry_equiv_pos_as_xyz
  1  'x, y, z'
loop_
 _atom_site_type_symbol
 _atom_site_label
 _atom_site_symmetry_multiplicity
 _atom_site_fract_x
 _atom_site_fract_y
 _atom_site_fract_z
 _atom_site_occupancy
  Na  Na0  1  0.66667100  0.33334300  0.76163600  1
  Na  Na1  1  0.33332900  0.66665700  0.26163600  1
  Fe  Fe2  1  0.99999800  0.99999500  0.51809400  1
  Fe  Fe3  1  0.00000200  0.00000500  0.01809400  1
  N  N4  1  0.33333100  0.66666100  0.56490900  1
  N  N5  1  0.66666900  0.33333900  0.06490900  1
