# generated using pymatgen
data_In7GeN6
_symmetry_space_group_name_H-M   'P 1'
_cell_length_a   10.94326600
_cell_length_b   6.14552300
_cell_length_c   15.00930500
_cell_angle_alpha   90.00000000
_cell_angle_beta   90.00000000
_cell_angle_gamma   90.00000000
_symmetry_Int_Tables_number   1
_chemical_formula_structural   In7GeN6
_chemical_formula_sum   'In28 Ge4 N24'
_cell_volume   1009.40717420
_cell_formula_units_Z   4
loop_
 _symmetry_equiv_pos_site_id
 _symmetry_equiv_pos_as_xyz
  1  'x, y, z'
loop_
 _atom_site_type_symbol
 _atom_site_label
 _atom_site_symmetry_multiplicity
 _atom_site_fract_x
 _atom_site_fract_y
 _atom_site_fract_z
 _atom_site_occupancy
  In  In0  1  0.99789900  0.81300800  0.05344800  1
  In  In1  1  0.50210100  0.68699200  0.55344800  1
  In  In2  1  0.49789900  0.68699200  0.94655200  1
  In  In3  1  0.00210100  0.81300800  0.44655200  1
  In  In4  1  0.00210100  0.18699200  0.94655200  1
  In  In5  1  0.49789900  0.31300800  0.44655200  1
  In  In6  1  0.50210100  0.31300800  0.05344800  1
  In  In7  1  0.99789900  0.18699200  0.55344800  1
  In  In8  1  0.23069800  0.64034200  0.64117900  1
  In  In9  1  0.26930200  0.85965800  0.14117900  1
  In  In10  1  0.73069800  0.85965800  0.35882100  1
  In  In11  1  0.76930200  0.64034200  0.85882100  1
  In  In12  1  0.76930200  0.35965800  0.35882100  1
  In  In13  1  0.73069800  0.14034200  0.85882100  1
  In  In14  1  0.26930200  0.14034200  0.64117900  1
  In  In15  1  0.23069800  0.35965800  0.14117900  1
  In  In16  1  0.22933200  0.62605200  0.90927700  1
  In  In17  1  0.27066800  0.87394800  0.40927700  1
  In  In18  1  0.72933200  0.87394800  0.09072300  1
  In  In19  1  0.77066800  0.62605200  0.59072300  1
  In  In20  1  0.77066800  0.37394800  0.09072300  1
  In  In21  1  0.72933200  0.12605200  0.59072300  1
  In  In22  1  0.27066800  0.12605200  0.90927700  1
  In  In23  1  0.22933200  0.37394800  0.40927700  1
  In  In24  1  0.00000000  0.34768800  0.75000000  1
  In  In25  1  0.50000000  0.15231200  0.25000000  1
  In  In26  1  0.00000000  0.65231200  0.25000000  1
  In  In27  1  0.50000000  0.84768800  0.75000000  1
  Ge  Ge28  1  0.00000000  0.84613400  0.75000000  1
  Ge  Ge29  1  0.50000000  0.65386600  0.25000000  1
  Ge  Ge30  1  0.00000000  0.15386600  0.25000000  1
  Ge  Ge31  1  0.50000000  0.34613400  0.75000000  1
  N  N32  1  0.12516600  0.63263100  0.77352900  1
  N  N33  1  0.37483400  0.86736900  0.27352900  1
  N  N34  1  0.62516600  0.86736900  0.22647100  1
  N  N35  1  0.87483400  0.63263100  0.72647100  1
  N  N36  1  0.87483400  0.36736900  0.22647100  1
  N  N37  1  0.62516600  0.13263100  0.72647100  1
  N  N38  1  0.37483400  0.13263100  0.77352900  1
  N  N39  1  0.12516600  0.36736900  0.27352900  1
  N  N40  1  0.16712100  0.38055600  0.55482600  1
  N  N41  1  0.33287900  0.11944400  0.05482600  1
  N  N42  1  0.66712100  0.11944400  0.44517400  1
  N  N43  1  0.83287900  0.38055600  0.94517400  1
  N  N44  1  0.83287900  0.61944400  0.44517400  1
  N  N45  1  0.66712100  0.88055600  0.94517400  1
  N  N46  1  0.33287900  0.88055600  0.55482600  1
  N  N47  1  0.16712100  0.61944400  0.05482600  1
  N  N48  1  0.42218500  0.55444100  0.67814400  1
  N  N49  1  0.07781500  0.94555900  0.17814400  1
  N  N50  1  0.92218500  0.94555900  0.32185600  1
  N  N51  1  0.57781500  0.55444100  0.82185600  1
  N  N52  1  0.57781500  0.44555900  0.32185600  1
  N  N53  1  0.92218500  0.05444100  0.82185600  1
  N  N54  1  0.07781500  0.05444100  0.67814400  1
  N  N55  1  0.42218500  0.44555900  0.17814400  1
