# generated using pymatgen
data_MgGaN
_symmetry_space_group_name_H-M   'P 1'
_cell_length_a   7.63417900
_cell_length_b   3.69228400
_cell_length_c   5.80318500
_cell_angle_alpha   90.00000000
_cell_angle_beta   90.00000000
_cell_angle_gamma   90.00000000
_symmetry_Int_Tables_number   1
_chemical_formula_structural   MgGaN
_chemical_formula_sum   'Mg4 Ga4 N4'
_cell_volume   163.57760782
_cell_formula_units_Z   4
loop_
 _symmetry_equiv_pos_site_id
 _symmetry_equiv_pos_as_xyz
  1  'x, y, z'
loop_
 _atom_site_type_symbol
 _atom_site_label
 _atom_site_symmetry_multiplicity
 _atom_site_fract_x
 _atom_site_fract_y
 _atom_site_fract_z
 _atom_site_occupancy
  Mg  Mg0  1  0.61514900  0.25000000  0.38607900  1
  Mg  Mg1  1  0.11514900  0.25000000  0.11392100  1
  Mg  Mg2  1  0.38485100  0.75000000  0.61392100  1
  Mg  Mg3  1  0.88485100  0.75000000  0.88607900  1
  Ga  Ga4  1  0.60095500  0.25000000  0.89872100  1
  Ga  Ga5  1  0.10095500  0.25000000  0.60127900  1
  Ga  Ga6  1  0.39904500  0.75000000  0.10127900  1
  Ga  Ga7  1  0.89904500  0.75000000  0.39872100  1
  N  N8  1  0.82008100  0.25000000  0.07437100  1
  N  N9  1  0.32008100  0.25000000  0.42562900  1
  N  N10  1  0.17991900  0.75000000  0.92562900  1
  N  N11  1  0.67991900  0.75000000  0.57437100  1
