# generated using pymatgen
data_MnGa2N3
_symmetry_space_group_name_H-M   'P 1'
_cell_length_a   5.63547611
_cell_length_b   5.56651865
_cell_length_c   5.20817500
_cell_angle_alpha   90.00000000
_cell_angle_beta   90.00000000
_cell_angle_gamma   119.59605652
_symmetry_Int_Tables_number   1
_chemical_formula_structural   MnGa2N3
_chemical_formula_sum   'Mn2 Ga4 N6'
_cell_volume   142.06394915
_cell_formula_units_Z   2
loop_
 _symmetry_equiv_pos_site_id
 _symmetry_equiv_pos_as_xyz
  1  'x, y, z'
loop_
 _atom_site_type_symbol
 _atom_site_label
 _atom_site_symmetry_multiplicity
 _atom_site_fract_x
 _atom_site_fract_y
 _atom_site_fract_z
 _atom_site_occupancy
  Mn  Mn0  1  0.00000000  0.65579400  0.49229900  1
  Mn  Mn1  1  0.00000000  0.34420600  0.99229900  1
  Ga  Ga2  1  0.33658900  0.33260300  0.49505600  1
  Ga  Ga3  1  0.66341100  0.99601300  0.49505600  1
  Ga  Ga4  1  0.66341100  0.66739700  0.99505600  1
  Ga  Ga5  1  0.33658900  0.00398700  0.99505600  1
  N  N6  1  0.33695500  0.33694400  0.87199700  1
  N  N7  1  0.66304500  0.99998900  0.87199700  1
  N  N8  1  0.66304500  0.66305600  0.37199700  1
  N  N9  1  0.33695500  0.00001100  0.37199700  1
  N  N10  1  0.00000000  0.67556500  0.86159500  1
  N  N11  1  0.00000000  0.32443500  0.36159500  1
