# generated using pymatgen
data_Ru3Pb3N5
_symmetry_space_group_name_H-M   'P 1'
_cell_length_a   6.21550422
_cell_length_b   7.63126177
_cell_length_c   8.22676361
_cell_angle_alpha   104.34941141
_cell_angle_beta   104.09830006
_cell_angle_gamma   89.88715351
_symmetry_Int_Tables_number   1
_chemical_formula_structural   Ru3Pb3N5
_chemical_formula_sum   'Ru6 Pb6 N10'
_cell_volume   365.94359156
_cell_formula_units_Z   2
loop_
 _symmetry_equiv_pos_site_id
 _symmetry_equiv_pos_as_xyz
  1  'x, y, z'
loop_
 _atom_site_type_symbol
 _atom_site_label
 _atom_site_symmetry_multiplicity
 _atom_site_fract_x
 _atom_site_fract_y
 _atom_site_fract_z
 _atom_site_occupancy
  Ru  Ru0  1  0.85796100  0.31221700  0.96915400  1
  Ru  Ru1  1  0.14203900  0.68778300  0.03084600  1
  Ru  Ru2  1  0.66218200  0.95629600  0.61330200  1
  Ru  Ru3  1  0.33781800  0.04370400  0.38669800  1
  Ru  Ru4  1  0.09988900  0.93030200  0.71189900  1
  Ru  Ru5  1  0.90011100  0.06969800  0.28810100  1
  Pb  Pb6  1  0.77950800  0.45700200  0.59874500  1
  Pb  Pb7  1  0.22049200  0.54299800  0.40125500  1
  Pb  Pb8  1  0.64074100  0.82406100  0.90921000  1
  Pb  Pb9  1  0.35925900  0.17593900  0.09079000  1
  Pb  Pb10  1  0.65668200  0.66708000  0.24869100  1
  Pb  Pb11  1  0.34331800  0.33292000  0.75130900  1
  N  N12  1  0.90254400  0.12698400  0.78590900  1
  N  N13  1  0.09745600  0.87301600  0.21409100  1
  N  N14  1  0.86499600  0.75319500  0.55678800  1
  N  N15  1  0.13500400  0.24680500  0.44321200  1
  N  N16  1  0.83706000  0.55722100  0.90720300  1
  N  N17  1  0.16294000  0.44277900  0.09279700  1
  N  N18  1  0.34104600  0.97097000  0.61182200  1
  N  N19  1  0.65895400  0.02903000  0.38817800  1
  N  N20  1  0.22761300  0.78025000  0.86704500  1
  N  N21  1  0.77238700  0.21975000  0.13295500  1
