# generated using pymatgen
data_Cd(C4N3)2
_symmetry_space_group_name_H-M   'P 1'
_cell_length_a   13.24310108
_cell_length_b   13.24087171
_cell_length_c   5.74348700
_cell_angle_alpha   89.99789944
_cell_angle_beta   90.00069912
_cell_angle_gamma   119.99330052
_symmetry_Int_Tables_number   1
_chemical_formula_structural   Cd(C4N3)2
_chemical_formula_sum   'Cd3 C24 N18'
_cell_volume   872.25177104
_cell_formula_units_Z   3
loop_
 _symmetry_equiv_pos_site_id
 _symmetry_equiv_pos_as_xyz
  1  'x, y, z'
loop_
 _atom_site_type_symbol
 _atom_site_label
 _atom_site_symmetry_multiplicity
 _atom_site_fract_x
 _atom_site_fract_y
 _atom_site_fract_z
 _atom_site_occupancy
  Cd  Cd0  1  0.99999900  0.99999800  0.19199400  1
  Cd  Cd1  1  0.33335100  0.66667500  0.86868100  1
  Cd  Cd2  1  0.66665100  0.33332500  0.86868200  1
  C  C3  1  0.99999700  0.66214000  0.22585000  1
  C  C4  1  0.66218700  0.99999900  0.22587700  1
  C  C5  1  0.33782200  0.33781000  0.22588900  1
  C  C6  1  0.99999900  0.76039000  0.31514400  1
  C  C7  1  0.76037800  0.99996100  0.31507300  1
  C  C8  1  0.23961300  0.23957600  0.31513200  1
  C  C9  1  0.10407900  0.66501300  0.16536700  1
  C  C10  1  0.56093200  0.89587400  0.16538700  1
  C  C11  1  0.33496500  0.43906500  0.16538000  1
  C  C12  1  0.89591000  0.56091600  0.16535000  1
  C  C13  1  0.66502500  0.10408700  0.16539000  1
  C  C14  1  0.43906700  0.33493800  0.16539800  1
  C  C15  1  0.68324100  0.68326900  0.73873000  1
  C  C16  1  0.99999700  0.31677400  0.73867900  1
  C  C17  1  0.31676600  0.00003700  0.73872800  1
  C  C18  1  0.77721300  0.77723600  0.85247200  1
  C  C19  1  0.00000100  0.22278200  0.85248700  1
  C  C20  1  0.22278900  0.00002400  0.85246700  1
  C  C21  1  0.58098900  0.68659600  0.69413500  1
  C  C22  1  0.10557100  0.41903600  0.69407500  1
  C  C23  1  0.31343700  0.89444200  0.69407600  1
  C  C24  1  0.41901800  0.10560300  0.69414100  1
  C  C25  1  0.68656200  0.58099200  0.69405400  1
  C  C26  1  0.89444100  0.31346100  0.69409400  1
  N  N27  1  0.99999900  0.84334400  0.38778700  1
  N  N28  1  0.84333900  0.99999100  0.38774200  1
  N  N29  1  0.15666300  0.15665600  0.38773600  1
  N  N30  1  0.18754100  0.66216400  0.10929700  1
  N  N31  1  0.47461900  0.81244300  0.10933400  1
  N  N32  1  0.33782900  0.52537200  0.10932000  1
  N  N33  1  0.81246000  0.47462300  0.10929600  1
  N  N34  1  0.66217200  0.18754200  0.10931800  1
  N  N35  1  0.52538500  0.33782600  0.10933900  1
  N  N36  1  0.85454500  0.85454600  0.95078500  1
  N  N37  1  0.00000200  0.14545400  0.95082000  1
  N  N38  1  0.14545600  0.00000200  0.95079400  1
  N  N39  1  0.49515700  0.68923800  0.65807700  1
  N  N40  1  0.19406300  0.50484000  0.65804800  1
  N  N41  1  0.31076900  0.80592500  0.65800600  1
  N  N42  1  0.50483900  0.19407800  0.65808300  1
  N  N43  1  0.68923000  0.49515500  0.65801300  1
  N  N44  1  0.80593300  0.31077900  0.65803700  1
