# generated using pymatgen
data_V2AgN3
_symmetry_space_group_name_H-M   'P 1'
_cell_length_a   2.94929300
_cell_length_b   2.94929304
_cell_length_c   26.20222200
_cell_angle_alpha   90.00000000
_cell_angle_beta   90.00000000
_cell_angle_gamma   119.99998830
_symmetry_Int_Tables_number   1
_chemical_formula_structural   V2AgN3
_chemical_formula_sum   'V6 Ag3 N9'
_cell_volume   197.38068476
_cell_formula_units_Z   3
loop_
 _symmetry_equiv_pos_site_id
 _symmetry_equiv_pos_as_xyz
  1  'x, y, z'
loop_
 _atom_site_type_symbol
 _atom_site_label
 _atom_site_symmetry_multiplicity
 _atom_site_fract_x
 _atom_site_fract_y
 _atom_site_fract_z
 _atom_site_occupancy
  V  V0  1  0.76515000  0.71016900  0.21375300  1
  V  V1  1  0.94502000  0.23485000  0.88041900  1
  V  V2  1  0.28983100  0.05498000  0.54708600  1
  V  V3  1  0.23485000  0.94502000  0.11958100  1
  V  V4  1  0.71016900  0.76515000  0.78624700  1
  V  V5  1  0.05498000  0.28983100  0.45291400  1
  Ag  Ag6  1  0.00000000  0.36217900  0.66666700  1
  Ag  Ag7  1  0.36217900  0.00000000  0.33333300  1
  Ag  Ag8  1  0.63782100  0.63782100  0.00000000  1
  N  N9  1  0.00000000  0.32703400  0.16666700  1
  N  N10  1  0.32703400  0.00000000  0.83333300  1
  N  N11  1  0.67296600  0.67296600  0.50000000  1
  N  N12  1  0.35522000  0.98942600  0.41508000  1
  N  N13  1  0.63420700  0.64478000  0.08174600  1
  N  N14  1  0.01057400  0.36579300  0.74841300  1
  N  N15  1  0.64478000  0.63420700  0.91825400  1
  N  N16  1  0.98942600  0.35522000  0.58492000  1
  N  N17  1  0.36579300  0.01057400  0.25158700  1
