# generated using pymatgen
data_Sn7GeN6
_symmetry_space_group_name_H-M   'P 1'
_cell_length_a   12.40048600
_cell_length_b   7.01955800
_cell_length_c   12.18963000
_cell_angle_alpha   90.00000000
_cell_angle_beta   90.00000000
_cell_angle_gamma   90.00000000
_symmetry_Int_Tables_number   1
_chemical_formula_structural   Sn7GeN6
_chemical_formula_sum   'Sn28 Ge4 N24'
_cell_volume   1061.05768830
_cell_formula_units_Z   4
loop_
 _symmetry_equiv_pos_site_id
 _symmetry_equiv_pos_as_xyz
  1  'x, y, z'
loop_
 _atom_site_type_symbol
 _atom_site_label
 _atom_site_symmetry_multiplicity
 _atom_site_fract_x
 _atom_site_fract_y
 _atom_site_fract_z
 _atom_site_occupancy
  Sn  Sn0  1  0.00179000  0.76567400  0.03175900  1
  Sn  Sn1  1  0.49821000  0.73432600  0.53175900  1
  Sn  Sn2  1  0.50179000  0.73432600  0.96824100  1
  Sn  Sn3  1  0.99821000  0.76567400  0.46824100  1
  Sn  Sn4  1  0.99821000  0.23432600  0.96824100  1
  Sn  Sn5  1  0.50179000  0.26567400  0.46824100  1
  Sn  Sn6  1  0.49821000  0.26567400  0.03175900  1
  Sn  Sn7  1  0.00179000  0.23432600  0.53175900  1
  Sn  Sn8  1  0.21482300  0.80402600  0.62665600  1
  Sn  Sn9  1  0.28517700  0.69597400  0.12665600  1
  Sn  Sn10  1  0.71482300  0.69597400  0.37334400  1
  Sn  Sn11  1  0.78517700  0.80402600  0.87334400  1
  Sn  Sn12  1  0.78517700  0.19597400  0.37334400  1
  Sn  Sn13  1  0.71482300  0.30402600  0.87334400  1
  Sn  Sn14  1  0.28517700  0.30402600  0.62665600  1
  Sn  Sn15  1  0.21482300  0.19597400  0.12665600  1
  Sn  Sn16  1  0.25516200  0.53888800  0.85766600  1
  Sn  Sn17  1  0.24483800  0.96111200  0.35766600  1
  Sn  Sn18  1  0.75516200  0.96111200  0.14233400  1
  Sn  Sn19  1  0.74483800  0.53888800  0.64233400  1
  Sn  Sn20  1  0.74483800  0.46111200  0.14233400  1
  Sn  Sn21  1  0.75516200  0.03888800  0.64233400  1
  Sn  Sn22  1  0.24483800  0.03888800  0.85766600  1
  Sn  Sn23  1  0.25516200  0.46111200  0.35766600  1
  Sn  Sn24  1  0.00000000  0.42261100  0.75000000  1
  Sn  Sn25  1  0.50000000  0.07738900  0.25000000  1
  Sn  Sn26  1  0.00000000  0.57738900  0.25000000  1
  Sn  Sn27  1  0.50000000  0.92261100  0.75000000  1
  Ge  Ge28  1  0.00000000  0.84395800  0.75000000  1
  Ge  Ge29  1  0.50000000  0.65604200  0.25000000  1
  Ge  Ge30  1  0.00000000  0.15604200  0.25000000  1
  Ge  Ge31  1  0.50000000  0.34395800  0.75000000  1
  N  N32  1  0.11283600  0.65638100  0.75965200  1
  N  N33  1  0.38716400  0.84361900  0.25965200  1
  N  N34  1  0.61283600  0.84361900  0.24034800  1
  N  N35  1  0.88716400  0.65638100  0.74034800  1
  N  N36  1  0.88716400  0.34361900  0.24034800  1
  N  N37  1  0.61283600  0.15638100  0.74034800  1
  N  N38  1  0.38716400  0.15638100  0.75965200  1
  N  N39  1  0.11283600  0.34361900  0.25965200  1
  N  N40  1  0.17833500  0.71148800  0.45746600  1
  N  N41  1  0.32166500  0.78851200  0.95746600  1
  N  N42  1  0.67833500  0.78851200  0.54253400  1
  N  N43  1  0.82166500  0.71148800  0.04253400  1
  N  N44  1  0.82166500  0.28851200  0.54253400  1
  N  N45  1  0.67833500  0.21148800  0.04253400  1
  N  N46  1  0.32166500  0.21148800  0.45746600  1
  N  N47  1  0.17833500  0.28851200  0.95746600  1
  N  N48  1  0.46048300  0.45114000  0.61400400  1
  N  N49  1  0.03951700  0.04886000  0.11400300  1
  N  N50  1  0.96048300  0.04886000  0.38599700  1
  N  N51  1  0.53951700  0.45114000  0.88599600  1
  N  N52  1  0.53951700  0.54886000  0.38599700  1
  N  N53  1  0.96048300  0.95114000  0.88599600  1
  N  N54  1  0.03951700  0.95114000  0.61400400  1
  N  N55  1  0.46048300  0.54886000  0.11400300  1
