# generated using pymatgen
data_Si7RuN10
_symmetry_space_group_name_H-M   'P 1'
_cell_length_a   6.71518495
_cell_length_b   6.92972700
_cell_length_c   9.75905196
_cell_angle_alpha   90.00000000
_cell_angle_beta   105.18737017
_cell_angle_gamma   90.00000000
_symmetry_Int_Tables_number   1
_chemical_formula_structural   Si7RuN10
_chemical_formula_sum   'Si14 Ru2 N20'
_cell_volume   438.27073284
_cell_formula_units_Z   2
loop_
 _symmetry_equiv_pos_site_id
 _symmetry_equiv_pos_as_xyz
  1  'x, y, z'
loop_
 _atom_site_type_symbol
 _atom_site_label
 _atom_site_symmetry_multiplicity
 _atom_site_fract_x
 _atom_site_fract_y
 _atom_site_fract_z
 _atom_site_occupancy
  Si  Si0  1  0.53620400  0.98225100  0.81843200  1
  Si  Si1  1  0.53620400  0.01774900  0.31843200  1
  Si  Si2  1  0.34893600  0.01976000  0.01810300  1
  Si  Si3  1  0.34893600  0.98024000  0.51810300  1
  Si  Si4  1  0.11476500  0.39848300  0.07604600  1
  Si  Si5  1  0.11476500  0.60151700  0.57604600  1
  Si  Si6  1  0.65688900  0.36007300  0.98649000  1
  Si  Si7  1  0.65688900  0.63992700  0.48649000  1
  Si  Si8  1  0.84915600  0.62037300  0.81178400  1
  Si  Si9  1  0.84915600  0.37962700  0.31178400  1
  Si  Si10  1  0.29512900  0.61834400  0.88058900  1
  Si  Si11  1  0.29512900  0.38165600  0.38058900  1
  Si  Si12  1  0.48736100  0.36972700  0.68422700  1
  Si  Si13  1  0.48736100  0.63027300  0.18422700  1
  Ru  Ru14  1  0.99697500  0.89781200  0.70744700  1
  Ru  Ru15  1  0.99697500  0.10218800  0.20744700  1
  N  N16  1  0.74088000  0.84249600  0.81281900  1
  N  N17  1  0.74088000  0.15750400  0.31281900  1
  N  N18  1  0.55124400  0.13349900  0.96539300  1
  N  N19  1  0.55124400  0.86650100  0.46539300  1
  N  N20  1  0.30531400  0.87057500  0.85937800  1
  N  N21  1  0.30531400  0.12942500  0.35937800  1
  N  N22  1  0.15875500  0.16053200  0.04716500  1
  N  N23  1  0.15875500  0.83946800  0.54716500  1
  N  N24  1  0.29081600  0.50387700  0.72349600  1
  N  N25  1  0.29081600  0.49612300  0.22349600  1
  N  N26  1  0.44634100  0.12357400  0.66671100  1
  N  N27  1  0.44634100  0.87642600  0.16671100  1
  N  N28  1  0.88154100  0.37495700  0.12990800  1
  N  N29  1  0.88154100  0.62504300  0.62990800  1
  N  N30  1  0.07887600  0.56508300  0.93799900  1
  N  N31  1  0.07887600  0.43491700  0.43799900  1
  N  N32  1  0.70278600  0.41537300  0.82329500  1
  N  N33  1  0.70278600  0.58462700  0.32329500  1
  N  N34  1  0.50033500  0.54168600  0.02001800  1
  N  N35  1  0.50033500  0.45831400  0.52001800  1
