# generated using pymatgen
data_Sr3(NbN2)2
_symmetry_space_group_name_H-M   'P 1'
_cell_length_a   6.15832400
_cell_length_b   10.80419200
_cell_length_c   9.97470100
_cell_angle_alpha   90.00000000
_cell_angle_beta   90.00000000
_cell_angle_gamma   90.00000000
_symmetry_Int_Tables_number   1
_chemical_formula_structural   Sr3(NbN2)2
_chemical_formula_sum   'Sr12 Nb8 N16'
_cell_volume   663.67386189
_cell_formula_units_Z   4
loop_
 _symmetry_equiv_pos_site_id
 _symmetry_equiv_pos_as_xyz
  1  'x, y, z'
loop_
 _atom_site_type_symbol
 _atom_site_label
 _atom_site_symmetry_multiplicity
 _atom_site_fract_x
 _atom_site_fract_y
 _atom_site_fract_z
 _atom_site_occupancy
  Sr  Sr0  1  0.61430400  0.15782300  0.42095200  1
  Sr  Sr1  1  0.88569600  0.84217700  0.42095200  1
  Sr  Sr2  1  0.61430400  0.34217700  0.07904800  1
  Sr  Sr3  1  0.88569600  0.65782300  0.07904800  1
  Sr  Sr4  1  0.38569600  0.84217700  0.57904800  1
  Sr  Sr5  1  0.11430400  0.15782300  0.57904800  1
  Sr  Sr6  1  0.38569600  0.65782300  0.92095200  1
  Sr  Sr7  1  0.11430400  0.34217700  0.92095200  1
  Sr  Sr8  1  0.75000000  0.50000000  0.40039600  1
  Sr  Sr9  1  0.75000000  0.00000000  0.09960400  1
  Sr  Sr10  1  0.25000000  0.50000000  0.59960400  1
  Sr  Sr11  1  0.25000000  0.00000000  0.90039600  1
  Nb  Nb12  1  0.75000000  0.50000000  0.73533000  1
  Nb  Nb13  1  0.75000000  0.00000000  0.76467000  1
  Nb  Nb14  1  0.25000000  0.50000000  0.26467000  1
  Nb  Nb15  1  0.25000000  0.00000000  0.23533000  1
  Nb  Nb16  1  0.61661200  0.25000000  0.75000000  1
  Nb  Nb17  1  0.88338800  0.75000000  0.75000000  1
  Nb  Nb18  1  0.38338800  0.75000000  0.25000000  1
  Nb  Nb19  1  0.11661200  0.25000000  0.25000000  1
  N  N20  1  0.81958300  0.34729600  0.62242000  1
  N  N21  1  0.68041700  0.65270400  0.62242000  1
  N  N22  1  0.81958300  0.15270400  0.87758000  1
  N  N23  1  0.68041700  0.84729600  0.87758000  1
  N  N24  1  0.18041700  0.65270400  0.37758000  1
  N  N25  1  0.31958300  0.34729600  0.37758000  1
  N  N26  1  0.18041700  0.84729600  0.12242000  1
  N  N27  1  0.31958300  0.15270400  0.12242000  1
  N  N28  1  0.50026500  0.42102900  0.83700800  1
  N  N29  1  0.99973500  0.57897100  0.83700800  1
  N  N30  1  0.50026500  0.07897100  0.66299200  1
  N  N31  1  0.99973500  0.92102900  0.66299200  1
  N  N32  1  0.49973500  0.57897100  0.16299200  1
  N  N33  1  0.00026500  0.42102900  0.16299200  1
  N  N34  1  0.49973500  0.92102900  0.33700800  1
  N  N35  1  0.00026500  0.07897100  0.33700800  1
