# generated using pymatgen
data_Sr3(MnN2)2
_symmetry_space_group_name_H-M   'P 1'
_cell_length_a   5.91347900
_cell_length_b   9.87271500
_cell_length_c   9.60093000
_cell_angle_alpha   90.00000000
_cell_angle_beta   90.00000000
_cell_angle_gamma   90.00000000
_symmetry_Int_Tables_number   1
_chemical_formula_structural   Sr3(MnN2)2
_chemical_formula_sum   'Sr12 Mn8 N16'
_cell_volume   560.52238647
_cell_formula_units_Z   4
loop_
 _symmetry_equiv_pos_site_id
 _symmetry_equiv_pos_as_xyz
  1  'x, y, z'
loop_
 _atom_site_type_symbol
 _atom_site_label
 _atom_site_symmetry_multiplicity
 _atom_site_fract_x
 _atom_site_fract_y
 _atom_site_fract_z
 _atom_site_occupancy
  Sr  Sr0  1  0.61488100  0.15755800  0.41623200  1
  Sr  Sr1  1  0.88511900  0.84244200  0.41623200  1
  Sr  Sr2  1  0.61488100  0.34244200  0.08376800  1
  Sr  Sr3  1  0.88511900  0.65755800  0.08376800  1
  Sr  Sr4  1  0.38511900  0.84244200  0.58376800  1
  Sr  Sr5  1  0.11488100  0.15755800  0.58376800  1
  Sr  Sr6  1  0.38511900  0.65755800  0.91623200  1
  Sr  Sr7  1  0.11488100  0.34244200  0.91623200  1
  Sr  Sr8  1  0.75000000  0.50000000  0.40312400  1
  Sr  Sr9  1  0.75000000  0.00000000  0.09687600  1
  Sr  Sr10  1  0.25000000  0.50000000  0.59687600  1
  Sr  Sr11  1  0.25000000  0.00000000  0.90312400  1
  Mn  Mn12  1  0.75000000  0.50000000  0.73597700  1
  Mn  Mn13  1  0.75000000  0.00000000  0.76402300  1
  Mn  Mn14  1  0.25000000  0.50000000  0.26402300  1
  Mn  Mn15  1  0.25000000  0.00000000  0.23597700  1
  Mn  Mn16  1  0.65229800  0.25000000  0.75000000  1
  Mn  Mn17  1  0.84770200  0.75000000  0.75000000  1
  Mn  Mn18  1  0.34770200  0.75000000  0.25000000  1
  Mn  Mn19  1  0.15229800  0.25000000  0.25000000  1
  N  N20  1  0.86701000  0.35967700  0.63140000  1
  N  N21  1  0.63299000  0.64032300  0.63140000  1
  N  N22  1  0.86701000  0.14032300  0.86860000  1
  N  N23  1  0.63299000  0.85967700  0.86860000  1
  N  N24  1  0.13299000  0.64032300  0.36860000  1
  N  N25  1  0.36701000  0.35967700  0.36860000  1
  N  N26  1  0.13299000  0.85967700  0.13140000  1
  N  N27  1  0.36701000  0.14032300  0.13140000  1
  N  N28  1  0.51697400  0.41466600  0.83314000  1
  N  N29  1  0.98302600  0.58533400  0.83314000  1
  N  N30  1  0.51697400  0.08533400  0.66686000  1
  N  N31  1  0.98302600  0.91466600  0.66686000  1
  N  N32  1  0.48302600  0.58533400  0.16686000  1
  N  N33  1  0.01697400  0.41466600  0.16686000  1
  N  N34  1  0.48302600  0.91466600  0.33314000  1
  N  N35  1  0.01697400  0.08533400  0.33314000  1
