# generated using pymatgen
data_Ga2(CN2)3
_symmetry_space_group_name_H-M   'P 1'
_cell_length_a   9.89654281
_cell_length_b   5.68699140
_cell_length_c   28.00795288
_cell_angle_alpha   89.99999802
_cell_angle_beta   160.62367807
_cell_angle_gamma   73.30230434
_symmetry_Int_Tables_number   1
_chemical_formula_structural   Ga2(CN2)3
_chemical_formula_sum   'Ga4 C6 N12'
_cell_volume   261.49167184
_cell_formula_units_Z   2
loop_
 _symmetry_equiv_pos_site_id
 _symmetry_equiv_pos_as_xyz
  1  'x, y, z'
loop_
 _atom_site_type_symbol
 _atom_site_label
 _atom_site_symmetry_multiplicity
 _atom_site_fract_x
 _atom_site_fract_y
 _atom_site_fract_z
 _atom_site_occupancy
  Ga  Ga0  1  0.00000900  0.99999500  0.16373200  1
  Ga  Ga1  1  0.00000900  0.99999600  0.66373200  1
  Ga  Ga2  1  0.99999100  0.00000500  0.83628600  1
  Ga  Ga3  1  0.99999100  0.00000400  0.33628600  1
  C  C4  1  0.92656400  0.69114300  0.05886400  1
  C  C5  1  0.00000400  0.69114000  0.75001100  1
  C  C6  1  0.07343400  0.61770700  0.44115400  1
  C  C7  1  0.92656400  0.38229300  0.55886400  1
  C  C8  1  0.07343400  0.30885900  0.94115400  1
  C  C9  1  0.00000400  0.30885600  0.25001100  1
  N  N10  1  0.82094600  0.78434600  0.06631600  1
  N  N11  1  0.17398400  0.61036000  0.85066100  1
  N  N12  1  0.00507100  0.60529200  0.46102300  1
  N  N13  1  0.82094600  0.39470800  0.56631600  1
  N  N14  1  0.00507100  0.38963700  0.96102300  1
  N  N15  1  0.17398400  0.21565600  0.35066100  1
  N  N16  1  0.17906100  0.21565100  0.93370500  1
  N  N17  1  0.82601500  0.38963800  0.14935600  1
  N  N18  1  0.99492300  0.39471300  0.53899300  1
  N  N19  1  0.17906100  0.60528800  0.43370500  1
  N  N20  1  0.99492300  0.61036500  0.03899300  1
  N  N21  1  0.82601500  0.78434700  0.64935600  1
