# generated using pymatgen
data_Ba8Mn3N8
_symmetry_space_group_name_H-M   'P 1'
_cell_length_a   10.42193366
_cell_length_b   5.68835082
_cell_length_c   7.96627499
_cell_angle_alpha   89.99999462
_cell_angle_beta   74.20664815
_cell_angle_gamma   74.16292135
_symmetry_Int_Tables_number   1
_chemical_formula_structural   Ba8Mn3N8
_chemical_formula_sum   'Ba8 Mn3 N8'
_cell_volume   435.78182071
_cell_formula_units_Z   1
loop_
 _symmetry_equiv_pos_site_id
 _symmetry_equiv_pos_as_xyz
  1  'x, y, z'
loop_
 _atom_site_type_symbol
 _atom_site_label
 _atom_site_symmetry_multiplicity
 _atom_site_fract_x
 _atom_site_fract_y
 _atom_site_fract_z
 _atom_site_occupancy
  Ba  Ba0  1  0.05805500  0.97097300  0.72610000  1
  Ba  Ba1  1  0.94194500  0.02902700  0.27390000  1
  Ba  Ba2  1  0.66542300  0.66728800  0.46918400  1
  Ba  Ba3  1  0.33457700  0.33271200  0.53081600  1
  Ba  Ba4  1  0.79935100  0.60032500  0.94528000  1
  Ba  Ba5  1  0.20064900  0.39967500  0.05472000  1
  Ba  Ba6  1  0.40258700  0.79870600  0.19528100  1
  Ba  Ba7  1  0.59741300  0.20129400  0.80471900  1
  Mn  Mn8  1  0.00000000  0.50000000  0.50000000  1
  Mn  Mn9  1  0.37050500  0.81474800  0.79820000  1
  Mn  Mn10  1  0.62949500  0.18525200  0.20180000  1
  N  N11  1  0.22106400  0.88946800  0.97779500  1
  N  N12  1  0.77893600  0.11053200  0.02220500  1
  N  N13  1  0.35719400  0.82140300  0.58792300  1
  N  N14  1  0.64280600  0.17859700  0.41207700  1
  N  N15  1  0.53533500  0.73233200  0.83295200  1
  N  N16  1  0.46466500  0.26766800  0.16704800  1
  N  N17  1  0.95644500  0.52177800  0.30474500  1
  N  N18  1  0.04355500  0.47822200  0.69525500  1
