# generated using pymatgen
data_Ba3Ru3N5
_symmetry_space_group_name_H-M   'P 1'
_cell_length_a   6.12135103
_cell_length_b   8.13324516
_cell_length_c   9.15770593
_cell_angle_alpha   104.85231606
_cell_angle_beta   104.81623073
_cell_angle_gamma   103.03843824
_symmetry_Int_Tables_number   1
_chemical_formula_structural   Ba3Ru3N5
_chemical_formula_sum   'Ba6 Ru6 N10'
_cell_volume   404.83620485
_cell_formula_units_Z   2
loop_
 _symmetry_equiv_pos_site_id
 _symmetry_equiv_pos_as_xyz
  1  'x, y, z'
loop_
 _atom_site_type_symbol
 _atom_site_label
 _atom_site_symmetry_multiplicity
 _atom_site_fract_x
 _atom_site_fract_y
 _atom_site_fract_z
 _atom_site_occupancy
  Ba  Ba0  1  0.75672900  0.42711700  0.61189700  1
  Ba  Ba1  1  0.24327100  0.57288300  0.38810300  1
  Ba  Ba2  1  0.65543800  0.86312900  0.87868900  1
  Ba  Ba3  1  0.34456200  0.13687100  0.12131100  1
  Ba  Ba4  1  0.71920000  0.71175400  0.23103100  1
  Ba  Ba5  1  0.28080000  0.28824600  0.76896900  1
  Ru  Ru6  1  0.89280300  0.33493800  0.98852100  1
  Ru  Ru7  1  0.10719700  0.66506200  0.01147900  1
  Ru  Ru8  1  0.69422800  0.98548500  0.58407900  1
  Ru  Ru9  1  0.30577200  0.01451500  0.41592100  1
  Ru  Ru10  1  0.07710800  0.84011100  0.67003600  1
  Ru  Ru11  1  0.92289200  0.15988900  0.32996400  1
  N  N12  1  0.83056800  0.16336100  0.78926800  1
  N  N13  1  0.16943200  0.83663900  0.21073200  1
  N  N14  1  0.72993400  0.73899400  0.55538900  1
  N  N15  1  0.27006600  0.26100600  0.44461100  1
  N  N16  1  0.75542800  0.52701700  0.92820400  1
  N  N17  1  0.24457200  0.47298300  0.07179600  1
  N  N18  1  0.33811400  0.93823000  0.60455100  1
  N  N19  1  0.66188600  0.06177000  0.39544900  1
  N  N20  1  0.14420700  0.77157300  0.85219700  1
  N  N21  1  0.85579300  0.22842700  0.14780300  1
