# generated using pymatgen
data_Y2AlN3
_symmetry_space_group_name_H-M   'P 1'
_cell_length_a   6.43688301
_cell_length_b   6.27627078
_cell_length_c   5.13815100
_cell_angle_alpha   90.00000000
_cell_angle_beta   90.00000000
_cell_angle_gamma   119.17797298
_symmetry_Int_Tables_number   1
_chemical_formula_structural   Y2AlN3
_chemical_formula_sum   'Y4 Al2 N6'
_cell_volume   181.23951791
_cell_formula_units_Z   2
loop_
 _symmetry_equiv_pos_site_id
 _symmetry_equiv_pos_as_xyz
  1  'x, y, z'
loop_
 _atom_site_type_symbol
 _atom_site_label
 _atom_site_symmetry_multiplicity
 _atom_site_fract_x
 _atom_site_fract_y
 _atom_site_fract_z
 _atom_site_occupancy
  Y  Y0  1  0.31756600  0.34164300  0.45494700  1
  Y  Y1  1  0.68243400  0.02407700  0.45494700  1
  Y  Y2  1  0.68243400  0.65835700  0.95494700  1
  Y  Y3  1  0.31756600  0.97592300  0.95494700  1
  Al  Al4  1  0.00000000  0.65863100  0.48222900  1
  Al  Al5  1  0.00000000  0.34136900  0.98222900  1
  N  N6  1  0.29665000  0.33201500  0.91589800  1
  N  N7  1  0.70335000  0.03536500  0.91589800  1
  N  N8  1  0.70335000  0.66798500  0.41589800  1
  N  N9  1  0.29665000  0.96463500  0.41589800  1
  N  N10  1  0.00000000  0.62134800  0.84808000  1
  N  N11  1  0.00000000  0.37865200  0.34808000  1
