# generated using pymatgen
data_LiSnN
_symmetry_space_group_name_H-M   'P 1'
_cell_length_a   3.63873900
_cell_length_b   3.63884925
_cell_length_c   4.23291900
_cell_angle_alpha   90.00000000
_cell_angle_beta   90.00000000
_cell_angle_gamma   119.99898871
_symmetry_Int_Tables_number   1
_chemical_formula_structural   LiSnN
_chemical_formula_sum   'Li1 Sn1 N1'
_cell_volume   48.53890607
_cell_formula_units_Z   1
loop_
 _symmetry_equiv_pos_site_id
 _symmetry_equiv_pos_as_xyz
  1  'x, y, z'
loop_
 _atom_site_type_symbol
 _atom_site_label
 _atom_site_symmetry_multiplicity
 _atom_site_fract_x
 _atom_site_fract_y
 _atom_site_fract_z
 _atom_site_occupancy
  Li  Li0  1  0.00001600  0.00003300  0.50000000  1
  Sn  Sn1  1  0.66669300  0.33338600  0.00000000  1
  N  N2  1  0.66669100  0.33338200  0.50000000  1
