# generated using pymatgen
data_Sr3RhN3
_symmetry_space_group_name_H-M   'P 1'
_cell_length_a   7.72756905
_cell_length_b   7.72796473
_cell_length_c   5.35454400
_cell_angle_alpha   90.00000000
_cell_angle_beta   90.00000000
_cell_angle_gamma   119.98482601
_symmetry_Int_Tables_number   1
_chemical_formula_structural   Sr3RhN3
_chemical_formula_sum   'Sr6 Rh2 N6'
_cell_volume   276.96668554
_cell_formula_units_Z   2
loop_
 _symmetry_equiv_pos_site_id
 _symmetry_equiv_pos_as_xyz
  1  'x, y, z'
loop_
 _atom_site_type_symbol
 _atom_site_label
 _atom_site_symmetry_multiplicity
 _atom_site_fract_x
 _atom_site_fract_y
 _atom_site_fract_z
 _atom_site_occupancy
  Sr  Sr0  1  0.90742800  0.63629000  0.25000000  1
  Sr  Sr1  1  0.72881000  0.09263500  0.25000000  1
  Sr  Sr2  1  0.36385700  0.27107300  0.25000000  1
  Sr  Sr3  1  0.09257200  0.36371000  0.75000000  1
  Sr  Sr4  1  0.27119000  0.90736500  0.75000000  1
  Sr  Sr5  1  0.63614300  0.72892700  0.75000000  1
  Rh  Rh6  1  0.66654700  0.33326700  0.75000000  1
  Rh  Rh7  1  0.33345300  0.66673300  0.25000000  1
  N  N8  1  0.89473400  0.59741500  0.75000000  1
  N  N9  1  0.70270600  0.10521900  0.75000000  1
  N  N10  1  0.40251300  0.29726700  0.75000000  1
  N  N11  1  0.10526600  0.40258500  0.25000000  1
  N  N12  1  0.29729400  0.89478100  0.25000000  1
  N  N13  1  0.59748700  0.70273300  0.25000000  1
