# generated using pymatgen
data_Sb2(CN2)3
_symmetry_space_group_name_H-M   'P 1'
_cell_length_a   10.46701912
_cell_length_b   6.87981306
_cell_length_c   29.05149967
_cell_angle_alpha   89.99999877
_cell_angle_beta   157.69739012
_cell_angle_gamma   70.81360332
_symmetry_Int_Tables_number   1
_chemical_formula_structural   Sb2(CN2)3
_chemical_formula_sum   'Sb4 C6 N12'
_cell_volume   397.00732015
_cell_formula_units_Z   2
loop_
 _symmetry_equiv_pos_site_id
 _symmetry_equiv_pos_as_xyz
  1  'x, y, z'
loop_
 _atom_site_type_symbol
 _atom_site_label
 _atom_site_symmetry_multiplicity
 _atom_site_fract_x
 _atom_site_fract_y
 _atom_site_fract_z
 _atom_site_occupancy
  Sb  Sb0  1  0.99997600  0.00001100  0.16489900  1
  Sb  Sb1  1  0.99997600  0.00001300  0.66489900  1
  Sb  Sb2  1  0.00002500  0.99999300  0.83511900  1
  Sb  Sb3  1  0.00002500  0.99998300  0.33511900  1
  C  C4  1  0.76569900  0.74476100  0.00524800  1
  C  C5  1  0.00002100  0.74471600  0.75001600  1
  C  C6  1  0.23428200  0.51045800  0.49476400  1
  C  C7  1  0.76569900  0.48954200  0.50524800  1
  C  C8  1  0.23428200  0.25525900  0.99476400  1
  C  C9  1  0.00002100  0.25526200  0.25001600  1
  N  N10  1  0.71004600  0.80762800  0.02819100  1
  N  N11  1  0.13297800  0.67464300  0.83582800  1
  N  N12  1  0.15705600  0.51764100  0.51051200  1
  N  N13  1  0.71004600  0.48232600  0.52819100  1
  N  N14  1  0.15705600  0.32530300  0.01051200  1
  N  N15  1  0.13297800  0.19237900  0.33582800  1
  N  N16  1  0.28991900  0.19240300  0.97181500  1
  N  N17  1  0.86706500  0.32534100  0.16420400  1
  N  N18  1  0.84293500  0.48235600  0.48950300  1
  N  N19  1  0.28991900  0.51767900  0.47181500  1
  N  N20  1  0.84293500  0.67470900  0.98950300  1
  N  N21  1  0.86706500  0.80759500  0.66420400  1
