# generated using pymatgen
data_Cd3Ga3N5
_symmetry_space_group_name_H-M   'P 1'
_cell_length_a   5.85106099
_cell_length_b   7.01974398
_cell_length_c   8.70368344
_cell_angle_alpha   107.30877268
_cell_angle_beta   105.02740196
_cell_angle_gamma   100.31273054
_symmetry_Int_Tables_number   1
_chemical_formula_structural   Cd3Ga3N5
_chemical_formula_sum   'Cd6 Ga6 N10'
_cell_volume   316.64988373
_cell_formula_units_Z   2
loop_
 _symmetry_equiv_pos_site_id
 _symmetry_equiv_pos_as_xyz
  1  'x, y, z'
loop_
 _atom_site_type_symbol
 _atom_site_label
 _atom_site_symmetry_multiplicity
 _atom_site_fract_x
 _atom_site_fract_y
 _atom_site_fract_z
 _atom_site_occupancy
  Cd  Cd0  1  0.71489300  0.43675800  0.60877300  1
  Cd  Cd1  1  0.28510700  0.56324100  0.39122700  1
  Cd  Cd2  1  0.65691000  0.82483500  0.96600200  1
  Cd  Cd3  1  0.34309000  0.17516500  0.03399800  1
  Cd  Cd4  1  0.73496400  0.60925100  0.24295000  1
  Cd  Cd5  1  0.26503600  0.39074900  0.75705000  1
  Ga  Ga6  1  0.89774100  0.30360400  0.97121500  1
  Ga  Ga7  1  0.10225900  0.69639600  0.02878500  1
  Ga  Ga8  1  0.70466400  0.96039800  0.59361500  1
  Ga  Ga9  1  0.29533600  0.03960200  0.40638500  1
  Ga  Ga10  1  0.12913600  0.84706000  0.68737400  1
  Ga  Ga11  1  0.87086400  0.15294000  0.31262600  1
  N  N12  1  0.00304300  0.11588500  0.79849400  1
  N  N13  1  0.99695700  0.88411500  0.20150600  1
  N  N14  1  0.79830500  0.70153300  0.52322700  1
  N  N15  1  0.20169500  0.29846700  0.47677300  1
  N  N16  1  0.74882000  0.49709200  0.88107500  1
  N  N17  1  0.25118000  0.50290800  0.11892500  1
  N  N18  1  0.35475600  0.89949100  0.57190400  1
  N  N19  1  0.64524400  0.10050900  0.42809600  1
  N  N20  1  0.25871300  0.75709100  0.87268100  1
  N  N21  1  0.74128700  0.24290900  0.12731900  1
