# generated using pymatgen
data_Ga(C2N3)3
_symmetry_space_group_name_H-M   'P 1'
_cell_length_a   7.48925195
_cell_length_b   13.20257061
_cell_length_c   11.56295900
_cell_angle_alpha   90.00000000
_cell_angle_beta   90.00000000
_cell_angle_gamma   28.18409828
_symmetry_Int_Tables_number   1
_chemical_formula_structural   Ga(C2N3)3
_chemical_formula_sum   'Ga2 C12 N18'
_cell_volume   539.99473875
_cell_formula_units_Z   2
loop_
 _symmetry_equiv_pos_site_id
 _symmetry_equiv_pos_as_xyz
  1  'x, y, z'
loop_
 _atom_site_type_symbol
 _atom_site_label
 _atom_site_symmetry_multiplicity
 _atom_site_fract_x
 _atom_site_fract_y
 _atom_site_fract_z
 _atom_site_occupancy
  Ga  Ga0  1  0.00000000  0.28089800  0.25000000  1
  Ga  Ga1  1  0.00000000  0.71910200  0.75000000  1
  C  C2  1  0.67955200  0.78369100  0.25000000  1
  C  C3  1  0.67955200  0.53675600  0.75000000  1
  C  C4  1  0.32044800  0.21630900  0.75000000  1
  C  C5  1  0.32044800  0.46324400  0.25000000  1
  C  C6  1  0.67943800  0.30447200  0.90718600  1
  C  C7  1  0.67943800  0.01609000  0.09281400  1
  C  C8  1  0.67943800  0.30447200  0.59281400  1
  C  C9  1  0.67943800  0.01609000  0.40718600  1
  C  C10  1  0.32056200  0.69552800  0.09281400  1
  C  C11  1  0.32056200  0.98391000  0.90718600  1
  C  C12  1  0.32056200  0.69552800  0.40718600  1
  C  C13  1  0.32056200  0.98391000  0.59281400  1
  N  N14  1  0.00000000  0.57688900  0.25000000  1
  N  N15  1  0.00000000  0.42311100  0.75000000  1
  N  N16  1  0.37712200  0.97213200  0.25000000  1
  N  N17  1  0.37712200  0.65074600  0.75000000  1
  N  N18  1  0.62287800  0.02786800  0.75000000  1
  N  N19  1  0.62287800  0.34925400  0.25000000  1
  N  N20  1  0.00000000  0.12566300  0.95568700  1
  N  N21  1  0.00000000  0.87433700  0.04431300  1
  N  N22  1  0.00000000  0.12566300  0.54431300  1
  N  N23  1  0.00000000  0.87433700  0.45568700  1
  N  N24  1  0.37648100  0.47085700  0.86861800  1
  N  N25  1  0.37648100  0.15266300  0.13138200  1
  N  N26  1  0.37648100  0.47085700  0.63138200  1
  N  N27  1  0.37648100  0.15266300  0.36861800  1
  N  N28  1  0.62351900  0.52914300  0.13138200  1
  N  N29  1  0.62351900  0.84733700  0.86861800  1
  N  N30  1  0.62351900  0.52914300  0.36861800  1
  N  N31  1  0.62351900  0.84733700  0.63138200  1
