# generated using pymatgen
data_Zn3(GaN2)2
_symmetry_space_group_name_H-M   'P 1'
_cell_length_a   6.42564231
_cell_length_b   9.39957427
_cell_length_c   5.36520666
_cell_angle_alpha   89.99998818
_cell_angle_beta   93.98388624
_cell_angle_gamma   137.00484319
_symmetry_Int_Tables_number   1
_chemical_formula_structural   Zn3(GaN2)2
_chemical_formula_sum   'Zn6 Ga4 N8'
_cell_volume   219.83127248
_cell_formula_units_Z   2
loop_
 _symmetry_equiv_pos_site_id
 _symmetry_equiv_pos_as_xyz
  1  'x, y, z'
loop_
 _atom_site_type_symbol
 _atom_site_label
 _atom_site_symmetry_multiplicity
 _atom_site_fract_x
 _atom_site_fract_y
 _atom_site_fract_z
 _atom_site_occupancy
  Zn  Zn0  1  0.22995100  0.95866600  0.10068400  1
  Zn  Zn1  1  0.77004900  0.72871400  0.39931600  1
  Zn  Zn2  1  0.77004900  0.04133400  0.89931600  1
  Zn  Zn3  1  0.22995100  0.27128600  0.60068400  1
  Zn  Zn4  1  0.00000000  0.65638800  0.75000000  1
  Zn  Zn5  1  0.00000000  0.34361200  0.25000000  1
  Ga  Ga6  1  0.56799200  0.17285500  0.63198200  1
  Ga  Ga7  1  0.43200800  0.60486300  0.86801800  1
  Ga  Ga8  1  0.43200800  0.82714500  0.36801800  1
  Ga  Ga9  1  0.56799200  0.39513700  0.13198200  1
  N  N10  1  0.20088200  0.88682800  0.48718700  1
  N  N11  1  0.79911800  0.68594600  0.01281300  1
  N  N12  1  0.79911800  0.11317200  0.51281300  1
  N  N13  1  0.20088200  0.31405400  0.98718700  1
  N  N14  1  0.61906800  0.22838100  0.00301700  1
  N  N15  1  0.38093200  0.60931300  0.49698300  1
  N  N16  1  0.38093200  0.77161900  0.99698300  1
  N  N17  1  0.61906800  0.39068700  0.50301700  1
