# generated using pymatgen
data_Sr(C4N3)2
_symmetry_space_group_name_H-M   'P 1'
_cell_length_a   14.49809100
_cell_length_b   14.49807501
_cell_length_c   4.21055500
_cell_angle_alpha   89.99879255
_cell_angle_beta   90.00092944
_cell_angle_gamma   119.99948833
_symmetry_Int_Tables_number   1
_chemical_formula_structural   Sr(C4N3)2
_chemical_formula_sum   'Sr3 C24 N18'
_cell_volume   766.46685527
_cell_formula_units_Z   3
loop_
 _symmetry_equiv_pos_site_id
 _symmetry_equiv_pos_as_xyz
  1  'x, y, z'
loop_
 _atom_site_type_symbol
 _atom_site_label
 _atom_site_symmetry_multiplicity
 _atom_site_fract_x
 _atom_site_fract_y
 _atom_site_fract_z
 _atom_site_occupancy
  Sr  Sr0  1  0.00000100  0.99999800  0.37032500  1
  Sr  Sr1  1  0.33333300  0.66666000  0.67898000  1
  Sr  Sr2  1  0.66666600  0.33332900  0.67898100  1
  C  C3  1  0.99999800  0.63023500  0.22901200  1
  C  C4  1  0.63021200  0.99999400  0.22903000  1
  C  C5  1  0.36978900  0.36978500  0.22902700  1
  C  C6  1  0.99999900  0.72580800  0.29595900  1
  C  C7  1  0.72578600  0.99999500  0.29597600  1
  C  C8  1  0.27421700  0.27421300  0.29597900  1
  C  C9  1  0.09771500  0.63293100  0.19587500  1
  C  C10  1  0.53519800  0.90227500  0.19587600  1
  C  C11  1  0.36708800  0.46480200  0.19588500  1
  C  C12  1  0.90228200  0.53521500  0.19587900  1
  C  C13  1  0.63291100  0.09771200  0.19588900  1
  C  C14  1  0.46480300  0.36707900  0.19587200  1
  C  C15  1  0.70508900  0.70508800  0.73992500  1
  C  C16  1  0.00000000  0.29490700  0.73992400  1
  C  C17  1  0.29491300  0.99999900  0.73992500  1
  C  C18  1  0.79814000  0.79814100  0.81994800  1
  C  C19  1  0.00000100  0.20185300  0.81992100  1
  C  C20  1  0.20186200  0.00000100  0.81995500  1
  C  C21  1  0.60931300  0.70553200  0.70086100  1
  C  C22  1  0.09622000  0.39068200  0.70087600  1
  C  C23  1  0.29446900  0.90378100  0.70086900  1
  C  C24  1  0.39068400  0.09621600  0.70085800  1
  C  C25  1  0.70553300  0.60931200  0.70087000  1
  C  C26  1  0.90378000  0.29446400  0.70088300  1
  N  N27  1  0.00000100  0.80496800  0.35249600  1
  N  N28  1  0.80494800  0.00000100  0.35249500  1
  N  N29  1  0.19505600  0.19505700  0.35250300  1
  N  N30  1  0.18114100  0.63854100  0.16979700  1
  N  N31  1  0.45738400  0.81884500  0.16978200  1
  N  N32  1  0.36146700  0.54261400  0.16980200  1
  N  N33  1  0.81885600  0.45739800  0.16980200  1
  N  N34  1  0.63853300  0.18114500  0.16981100  1
  N  N35  1  0.54261400  0.36146000  0.16977600  1
  N  N36  1  0.87692700  0.87692500  0.88476800  1
  N  N37  1  0.00000000  0.12306500  0.88472600  1
  N  N38  1  0.12307900  0.99999800  0.88478300  1
  N  N39  1  0.52823300  0.70349100  0.66808900  1
  N  N40  1  0.17526200  0.47175700  0.66812800  1
  N  N41  1  0.29650600  0.82474100  0.66811000  1
  N  N42  1  0.47176300  0.17525600  0.66808400  1
  N  N43  1  0.70349300  0.52823300  0.66811000  1
  N  N44  1  0.82473700  0.29649700  0.66814000  1
