# generated using pymatgen
data_Mo2Pb3N4
_symmetry_space_group_name_H-M   'P 1'
_cell_length_a   5.98415023
_cell_length_b   10.74796456
_cell_length_c   10.81727894
_cell_angle_alpha   90.00000000
_cell_angle_beta   90.00000000
_cell_angle_gamma   90.00000000
_symmetry_Int_Tables_number   1
_chemical_formula_structural   Mo2Pb3N4
_chemical_formula_sum   'Mo8 Pb12 N16'
_cell_volume   695.73963071
_cell_formula_units_Z   4
loop_
 _symmetry_equiv_pos_site_id
 _symmetry_equiv_pos_as_xyz
  1  'x, y, z'
loop_
 _atom_site_type_symbol
 _atom_site_label
 _atom_site_symmetry_multiplicity
 _atom_site_fract_x
 _atom_site_fract_y
 _atom_site_fract_z
 _atom_site_occupancy
  Mo  Mo0  1  0.75000000  0.50000000  0.72331297  1
  Mo  Mo1  1  0.75000000  0.00000000  0.77668703  1
  Mo  Mo2  1  0.25000000  0.50000000  0.27668703  1
  Mo  Mo3  1  0.25000000  0.00000000  0.22331297  1
  Mo  Mo4  1  0.61958029  0.25000000  0.75000000  1
  Mo  Mo5  1  0.88041971  0.75000000  0.75000000  1
  Mo  Mo6  1  0.38041971  0.75000000  0.25000000  1
  Mo  Mo7  1  0.11958029  0.25000000  0.25000000  1
  Pb  Pb8  1  0.67801086  0.17108479  0.39048704  1
  Pb  Pb9  1  0.82198914  0.82891521  0.39048704  1
  Pb  Pb10  1  0.67801086  0.32891521  0.10951296  1
  Pb  Pb11  1  0.82198914  0.67108479  0.10951296  1
  Pb  Pb12  1  0.32198914  0.82891521  0.60951296  1
  Pb  Pb13  1  0.17801086  0.17108479  0.60951296  1
  Pb  Pb14  1  0.32198914  0.67108479  0.89048704  1
  Pb  Pb15  1  0.17801086  0.32891521  0.89048704  1
  Pb  Pb16  1  0.75000000  0.50000000  0.42901335  1
  Pb  Pb17  1  0.75000000  0.00000000  0.07098665  1
  Pb  Pb18  1  0.25000000  0.50000000  0.57098665  1
  Pb  Pb19  1  0.25000000  0.00000000  0.92901335  1
  N  N20  1  0.81555954  0.33732707  0.64088504  1
  N  N21  1  0.68444046  0.66267293  0.64088504  1
  N  N22  1  0.81555954  0.16267293  0.85911496  1
  N  N23  1  0.68444046  0.83732707  0.85911496  1
  N  N24  1  0.18444046  0.66267293  0.35911496  1
  N  N25  1  0.31555954  0.33732707  0.35911496  1
  N  N26  1  0.18444046  0.83732707  0.14088504  1
  N  N27  1  0.31555954  0.16267293  0.14088504  1
  N  N28  1  0.53178414  0.41708142  0.82459959  1
  N  N29  1  0.96821586  0.58291858  0.82459959  1
  N  N30  1  0.53178414  0.08291858  0.67540041  1
  N  N31  1  0.96821586  0.91708142  0.67540041  1
  N  N32  1  0.46821586  0.58291858  0.17540041  1
  N  N33  1  0.03178414  0.41708142  0.17540041  1
  N  N34  1  0.46821586  0.91708142  0.32459959  1
  N  N35  1  0.03178414  0.08291858  0.32459959  1
