# generated using pymatgen
data_Sr4VN4
_symmetry_space_group_name_H-M   'P 1'
_cell_length_a   6.15021583
_cell_length_b   6.40283834
_cell_length_c   9.41086063
_cell_angle_alpha   78.29641296
_cell_angle_beta   77.96278050
_cell_angle_gamma   75.99387224
_symmetry_Int_Tables_number   1
_chemical_formula_structural   Sr4VN4
_chemical_formula_sum   'Sr8 V2 N8'
_cell_volume   347.10166499
_cell_formula_units_Z   2
loop_
 _symmetry_equiv_pos_site_id
 _symmetry_equiv_pos_as_xyz
  1  'x, y, z'
loop_
 _atom_site_type_symbol
 _atom_site_label
 _atom_site_symmetry_multiplicity
 _atom_site_fract_x
 _atom_site_fract_y
 _atom_site_fract_z
 _atom_site_occupancy
  Sr  Sr0  1  0.76123400  0.58517900  0.13069700  1
  Sr  Sr1  1  0.23876600  0.41482100  0.86930300  1
  Sr  Sr2  1  0.71138700  0.16003400  0.99127900  1
  Sr  Sr3  1  0.28861300  0.83996600  0.00872100  1
  Sr  Sr4  1  0.76642600  0.40286000  0.61443700  1
  Sr  Sr5  1  0.23357400  0.59714000  0.38556300  1
  Sr  Sr6  1  0.24330200  0.94596200  0.62466800  1
  Sr  Sr7  1  0.75669800  0.05403800  0.37533200  1
  V  V8  1  0.75672100  0.80846900  0.76970600  1
  V  V9  1  0.24327900  0.19153100  0.23029400  1
  N  N10  1  0.90512100  0.76739400  0.58341300  1
  N  N11  1  0.09487900  0.23260600  0.41658700  1
  N  N12  1  0.97065200  0.81347800  0.88306900  1
  N  N13  1  0.02934800  0.18652200  0.11693100  1
  N  N14  1  0.62789000  0.57415200  0.84722500  1
  N  N15  1  0.37211000  0.42584800  0.15277500  1
  N  N16  1  0.46871900  0.93843200  0.21854900  1
  N  N17  1  0.53128100  0.06156800  0.78145100  1
