# generated using pymatgen
data_CdSi7N10
_symmetry_space_group_name_H-M   'P 1'
_cell_length_a   6.81302437
_cell_length_b   6.84752400
_cell_length_c   9.71453843
_cell_angle_alpha   90.00000000
_cell_angle_beta   104.74105181
_cell_angle_gamma   90.00000000
_symmetry_Int_Tables_number   1
_chemical_formula_structural   CdSi7N10
_chemical_formula_sum   'Cd2 Si14 N20'
_cell_volume   438.28906234
_cell_formula_units_Z   2
loop_
 _symmetry_equiv_pos_site_id
 _symmetry_equiv_pos_as_xyz
  1  'x, y, z'
loop_
 _atom_site_type_symbol
 _atom_site_label
 _atom_site_symmetry_multiplicity
 _atom_site_fract_x
 _atom_site_fract_y
 _atom_site_fract_z
 _atom_site_occupancy
  Cd  Cd0  1  0.99492200  0.97118400  0.70361000  1
  Cd  Cd1  1  0.99492200  0.02881600  0.20361000  1
  Si  Si2  1  0.54428500  0.98053000  0.82587100  1
  Si  Si3  1  0.54428500  0.01947000  0.32587100  1
  Si  Si4  1  0.35523100  0.02308400  0.02088500  1
  Si  Si5  1  0.35523100  0.97691600  0.52088500  1
  Si  Si6  1  0.10550400  0.39971800  0.07200600  1
  Si  Si7  1  0.10550400  0.60028200  0.57200600  1
  Si  Si8  1  0.66064900  0.36634200  0.99082000  1
  Si  Si9  1  0.66064900  0.63365800  0.49082000  1
  Si  Si10  1  0.84544600  0.61608500  0.80428000  1
  Si  Si11  1  0.84544600  0.38391500  0.30428000  1
  Si  Si12  1  0.29620300  0.61701100  0.88145700  1
  Si  Si13  1  0.29620300  0.38298900  0.38145700  1
  Si  Si14  1  0.48130300  0.36982300  0.68534100  1
  Si  Si15  1  0.48130300  0.63017700  0.18534100  1
  N  N16  1  0.74919500  0.84661400  0.81265600  1
  N  N17  1  0.74919500  0.15338600  0.31265600  1
  N  N18  1  0.55915500  0.13653600  0.97155100  1
  N  N19  1  0.55915500  0.86346400  0.47155100  1
  N  N20  1  0.32370900  0.86861500  0.86824400  1
  N  N21  1  0.32370900  0.13138500  0.36824400  1
  N  N22  1  0.15268700  0.15861400  0.03643500  1
  N  N23  1  0.15268700  0.84138600  0.53643500  1
  N  N24  1  0.28497700  0.50559500  0.72081200  1
  N  N25  1  0.28497700  0.49440500  0.22081200  1
  N  N26  1  0.44652400  0.11972600  0.67251600  1
  N  N27  1  0.44652400  0.88027400  0.17251600  1
  N  N28  1  0.88023000  0.39471400  0.12785500  1
  N  N29  1  0.88023000  0.60528600  0.62785500  1
  N  N30  1  0.07443100  0.56913600  0.93125100  1
  N  N31  1  0.07443100  0.43086400  0.43125100  1
  N  N32  1  0.69507300  0.41906800  0.82260200  1
  N  N33  1  0.69507300  0.58093200  0.32260200  1
  N  N34  1  0.49277900  0.53886600  0.02111000  1
  N  N35  1  0.49277900  0.46113400  0.52111000  1
