# generated using pymatgen
data_Ca3(InN2)2
_symmetry_space_group_name_H-M   'P 1'
_cell_length_a   5.99638400
_cell_length_b   11.11897200
_cell_length_c   9.06788500
_cell_angle_alpha   90.00000000
_cell_angle_beta   90.00000000
_cell_angle_gamma   90.00000000
_symmetry_Int_Tables_number   1
_chemical_formula_structural   Ca3(InN2)2
_chemical_formula_sum   'Ca12 In8 N16'
_cell_volume   604.58877126
_cell_formula_units_Z   4
loop_
 _symmetry_equiv_pos_site_id
 _symmetry_equiv_pos_as_xyz
  1  'x, y, z'
loop_
 _atom_site_type_symbol
 _atom_site_label
 _atom_site_symmetry_multiplicity
 _atom_site_fract_x
 _atom_site_fract_y
 _atom_site_fract_z
 _atom_site_occupancy
  Ca  Ca0  1  0.61199900  0.16139700  0.40495500  1
  Ca  Ca1  1  0.88800100  0.83860300  0.40495500  1
  Ca  Ca2  1  0.61199900  0.33860300  0.09504500  1
  Ca  Ca3  1  0.88800100  0.66139700  0.09504500  1
  Ca  Ca4  1  0.38800100  0.83860300  0.59504500  1
  Ca  Ca5  1  0.11199900  0.16139700  0.59504500  1
  Ca  Ca6  1  0.38800100  0.66139700  0.90495500  1
  Ca  Ca7  1  0.11199900  0.33860300  0.90495500  1
  Ca  Ca8  1  0.75000000  0.50000000  0.40167900  1
  Ca  Ca9  1  0.75000000  0.00000000  0.09832100  1
  Ca  Ca10  1  0.25000000  0.50000000  0.59832100  1
  Ca  Ca11  1  0.25000000  0.00000000  0.90167900  1
  In  In12  1  0.75000000  0.50000000  0.74988900  1
  In  In13  1  0.75000000  0.00000000  0.75011100  1
  In  In14  1  0.25000000  0.50000000  0.25011100  1
  In  In15  1  0.25000000  0.00000000  0.24988900  1
  In  In16  1  0.64975200  0.25000000  0.75000000  1
  In  In17  1  0.85024800  0.75000000  0.75000000  1
  In  In18  1  0.35024800  0.75000000  0.25000000  1
  In  In19  1  0.14975200  0.25000000  0.25000000  1
  N  N20  1  0.92606200  0.35897900  0.62594300  1
  N  N21  1  0.57393800  0.64102100  0.62594300  1
  N  N22  1  0.92606200  0.14102100  0.87405700  1
  N  N23  1  0.57393800  0.85897900  0.87405700  1
  N  N24  1  0.07393800  0.64102100  0.37405700  1
  N  N25  1  0.42606200  0.35897900  0.37405700  1
  N  N26  1  0.07393800  0.85897900  0.12594300  1
  N  N27  1  0.42606200  0.14102100  0.12594300  1
  N  N28  1  0.47574800  0.39936500  0.85324200  1
  N  N29  1  0.02425200  0.60063500  0.85324200  1
  N  N30  1  0.47574800  0.10063500  0.64675800  1
  N  N31  1  0.02425200  0.89936500  0.64675800  1
  N  N32  1  0.52425200  0.60063500  0.14675800  1
  N  N33  1  0.97574800  0.39936500  0.14675800  1
  N  N34  1  0.52425200  0.89936500  0.35324200  1
  N  N35  1  0.97574800  0.10063500  0.35324200  1
