# generated using pymatgen
data_Ca7SnN6
_symmetry_space_group_name_H-M   'P 1'
_cell_length_a   6.38072200
_cell_length_b   9.27812416
_cell_length_c   9.27812416
_cell_angle_alpha   79.36305037
_cell_angle_beta   69.88787569
_cell_angle_gamma   69.88787569
_symmetry_Int_Tables_number   1
_chemical_formula_structural   Ca7SnN6
_chemical_formula_sum   'Ca14 Sn2 N12'
_cell_volume   482.95690683
_cell_formula_units_Z   2
loop_
 _symmetry_equiv_pos_site_id
 _symmetry_equiv_pos_as_xyz
  1  'x, y, z'
loop_
 _atom_site_type_symbol
 _atom_site_label
 _atom_site_symmetry_multiplicity
 _atom_site_fract_x
 _atom_site_fract_y
 _atom_site_fract_z
 _atom_site_occupancy
  Ca  Ca0  1  0.28430500  0.95239100  0.04760900  1
  Ca  Ca1  1  0.71569500  0.04760900  0.95239100  1
  Ca  Ca2  1  0.21569500  0.45239100  0.54760900  1
  Ca  Ca3  1  0.78430500  0.54760900  0.45239100  1
  Ca  Ca4  1  0.74960700  0.15087600  0.59573500  1
  Ca  Ca5  1  0.50378100  0.59573500  0.15087600  1
  Ca  Ca6  1  0.75039300  0.90426500  0.34912400  1
  Ca  Ca7  1  0.99621900  0.34912400  0.90426500  1
  Ca  Ca8  1  0.25039300  0.84912400  0.40426500  1
  Ca  Ca9  1  0.49621900  0.40426500  0.84912400  1
  Ca  Ca10  1  0.24960700  0.09573500  0.65087600  1
  Ca  Ca11  1  0.00378100  0.65087600  0.09573500  1
  Ca  Ca12  1  0.25000000  0.25000000  0.25000000  1
  Ca  Ca13  1  0.75000000  0.75000000  0.75000000  1
  Sn  Sn14  1  0.75000000  0.25000000  0.25000000  1
  Sn  Sn15  1  0.25000000  0.75000000  0.75000000  1
  N  N16  1  0.02634300  0.06189800  0.29090000  1
  N  N17  1  0.62085800  0.29090000  0.06189800  1
  N  N18  1  0.47365700  0.20910000  0.43810200  1
  N  N19  1  0.87914200  0.43810200  0.20910000  1
  N  N20  1  0.97365700  0.93810200  0.70910000  1
  N  N21  1  0.37914200  0.70910000  0.93810200  1
  N  N22  1  0.52634300  0.79090000  0.56189800  1
  N  N23  1  0.12085800  0.56189800  0.79090000  1
  N  N24  1  0.87915400  0.34833000  0.65167000  1
  N  N25  1  0.12084600  0.65167000  0.34833000  1
  N  N26  1  0.62084600  0.84833000  0.15167000  1
  N  N27  1  0.37915400  0.15167000  0.84833000  1
