# generated using pymatgen
data_SiSnN2
_symmetry_space_group_name_H-M   'P 1'
_cell_length_a   5.05668100
_cell_length_b   11.09989000
_cell_length_c   15.16980900
_cell_angle_alpha   90.00000000
_cell_angle_beta   90.00000000
_cell_angle_gamma   90.00000000
_symmetry_Int_Tables_number   1
_chemical_formula_structural   SiSnN2
_chemical_formula_sum   'Si16 Sn16 N32'
_cell_volume   851.46018490
_cell_formula_units_Z   16
loop_
 _symmetry_equiv_pos_site_id
 _symmetry_equiv_pos_as_xyz
  1  'x, y, z'
loop_
 _atom_site_type_symbol
 _atom_site_label
 _atom_site_symmetry_multiplicity
 _atom_site_fract_x
 _atom_site_fract_y
 _atom_site_fract_z
 _atom_site_occupancy
  Si  Si0  1  0.71526900  0.98812600  0.18779800  1
  Si  Si1  1  0.21526900  0.51187400  0.81220200  1
  Si  Si2  1  0.28473100  0.48812600  0.31220200  1
  Si  Si3  1  0.78473100  0.01187400  0.68779800  1
  Si  Si4  1  0.28473100  0.01187400  0.81220200  1
  Si  Si5  1  0.78473100  0.48812600  0.18779800  1
  Si  Si6  1  0.71526900  0.51187400  0.68779800  1
  Si  Si7  1  0.21526900  0.98812600  0.31220200  1
  Si  Si8  1  0.81640300  0.24925000  0.06158800  1
  Si  Si9  1  0.31640300  0.25075000  0.93841200  1
  Si  Si10  1  0.18359700  0.74925000  0.43841200  1
  Si  Si11  1  0.68359700  0.75075000  0.56158800  1
  Si  Si12  1  0.18359700  0.75075000  0.93841200  1
  Si  Si13  1  0.68359700  0.74925000  0.06158800  1
  Si  Si14  1  0.81640300  0.25075000  0.56158800  1
  Si  Si15  1  0.31640300  0.24925000  0.43841200  1
  Sn  Sn16  1  0.71653000  0.96718000  0.43142600  1
  Sn  Sn17  1  0.21653000  0.53282000  0.56857400  1
  Sn  Sn18  1  0.28347000  0.46718000  0.06857400  1
  Sn  Sn19  1  0.78347000  0.03282000  0.93142600  1
  Sn  Sn20  1  0.28347000  0.03282000  0.56857400  1
  Sn  Sn21  1  0.78347000  0.46718000  0.43142600  1
  Sn  Sn22  1  0.71653000  0.53282000  0.93142600  1
  Sn  Sn23  1  0.21653000  0.96718000  0.06857400  1
  Sn  Sn24  1  0.88465900  0.22367400  0.31545200  1
  Sn  Sn25  1  0.38465900  0.27632600  0.68454800  1
  Sn  Sn26  1  0.11534100  0.72367400  0.18454800  1
  Sn  Sn27  1  0.61534100  0.77632600  0.81545200  1
  Sn  Sn28  1  0.11534100  0.77632600  0.68454800  1
  Sn  Sn29  1  0.61534100  0.72367400  0.31545200  1
  Sn  Sn30  1  0.88465900  0.27632600  0.81545200  1
  Sn  Sn31  1  0.38465900  0.22367400  0.18454800  1
  N  N32  1  0.62166200  0.48106100  0.28955400  1
  N  N33  1  0.12166200  0.01893900  0.71044600  1
  N  N34  1  0.37833800  0.98106100  0.21044600  1
  N  N35  1  0.87833800  0.51893900  0.78955400  1
  N  N36  1  0.37833800  0.51893900  0.71044600  1
  N  N37  1  0.87833800  0.98106100  0.28955400  1
  N  N38  1  0.62166200  0.01893900  0.78955400  1
  N  N39  1  0.12166200  0.48106100  0.21044600  1
  N  N40  1  0.65638500  0.27130800  0.45751700  1
  N  N41  1  0.15638500  0.22869200  0.54248300  1
  N  N42  1  0.34361500  0.77130800  0.04248300  1
  N  N43  1  0.84361500  0.72869200  0.95751700  1
  N  N44  1  0.34361500  0.72869200  0.54248300  1
  N  N45  1  0.84361500  0.77130800  0.45751700  1
  N  N46  1  0.65638500  0.22869200  0.95751700  1
  N  N47  1  0.15638500  0.27130800  0.04248300  1
  N  N48  1  0.66697800  0.37043800  0.11976600  1
  N  N49  1  0.16697800  0.12956200  0.88023400  1
  N  N50  1  0.33302200  0.87043800  0.38023400  1
  N  N51  1  0.83302200  0.62956200  0.61976600  1
  N  N52  1  0.33302200  0.62956200  0.88023400  1
  N  N53  1  0.83302200  0.87043800  0.11976600  1
  N  N54  1  0.66697800  0.12956200  0.61976600  1
  N  N55  1  0.16697800  0.37043800  0.38023400  1
  N  N56  1  0.74248500  0.12490000  0.12830700  1
  N  N57  1  0.24248500  0.37510000  0.87169300  1
  N  N58  1  0.25751500  0.62490000  0.37169300  1
  N  N59  1  0.75751500  0.87510000  0.62830700  1
  N  N60  1  0.25751500  0.87510000  0.87169300  1
  N  N61  1  0.75751500  0.62490000  0.12830700  1
  N  N62  1  0.74248500  0.37510000  0.62830700  1
  N  N63  1  0.24248500  0.12490000  0.37169300  1
