# generated using pymatgen
data_Zn4IrN4
_symmetry_space_group_name_H-M   'P 1'
_cell_length_a   5.55099099
_cell_length_b   5.79195076
_cell_length_c   8.86762265
_cell_angle_alpha   61.84454434
_cell_angle_beta   85.84280315
_cell_angle_gamma   67.00474298
_symmetry_Int_Tables_number   1
_chemical_formula_structural   Zn4IrN4
_chemical_formula_sum   'Zn8 Ir2 N8'
_cell_volume   229.18541858
_cell_formula_units_Z   2
loop_
 _symmetry_equiv_pos_site_id
 _symmetry_equiv_pos_as_xyz
  1  'x, y, z'
loop_
 _atom_site_type_symbol
 _atom_site_label
 _atom_site_symmetry_multiplicity
 _atom_site_fract_x
 _atom_site_fract_y
 _atom_site_fract_z
 _atom_site_occupancy
  Zn  Zn0  1  0.81357000  0.62752400  0.25556000  1
  Zn  Zn1  1  0.18643000  0.37247600  0.74444000  1
  Zn  Zn2  1  0.73733500  0.25713800  0.00265000  1
  Zn  Zn3  1  0.26266500  0.74286200  0.99735000  1
  Zn  Zn4  1  0.62944800  0.58258800  0.60001600  1
  Zn  Zn5  1  0.37055200  0.41741200  0.39998400  1
  Zn  Zn6  1  0.15449200  0.95148900  0.63373000  1
  Zn  Zn7  1  0.84550800  0.04851100  0.36627000  1
  Ir  Ir8  1  0.75060200  0.86042100  0.81098900  1
  Ir  Ir9  1  0.24939800  0.13957900  0.18901100  1
  N  N10  1  0.89070000  0.74655700  0.61413700  1
  N  N11  1  0.10930000  0.25344300  0.38586300  1
  N  N12  1  0.84600400  0.86000600  0.00896500  1
  N  N13  1  0.15399600  0.13999400  0.99103500  1
  N  N14  1  0.50254400  0.68273900  0.80904400  1
  N  N15  1  0.49745600  0.31726100  0.19095600  1
  N  N16  1  0.48132400  0.74834600  0.34640000  1
  N  N17  1  0.51867600  0.25165400  0.65360000  1
