# generated using pymatgen
data_Sr3(CrN2)2
_symmetry_space_group_name_H-M   'P 1'
_cell_length_a   7.12515590
_cell_length_b   8.68255610
_cell_length_c   5.60442184
_cell_angle_alpha   89.99999286
_cell_angle_beta   93.44383189
_cell_angle_gamma   127.53810011
_symmetry_Int_Tables_number   1
_chemical_formula_structural   Sr3(CrN2)2
_chemical_formula_sum   'Sr6 Cr4 N8'
_cell_volume   274.13716992
_cell_formula_units_Z   2
loop_
 _symmetry_equiv_pos_site_id
 _symmetry_equiv_pos_as_xyz
  1  'x, y, z'
loop_
 _atom_site_type_symbol
 _atom_site_label
 _atom_site_symmetry_multiplicity
 _atom_site_fract_x
 _atom_site_fract_y
 _atom_site_fract_z
 _atom_site_occupancy
  Sr  Sr0  1  0.24552600  0.99287400  0.05206600  1
  Sr  Sr1  1  0.75447400  0.74734700  0.44793400  1
  Sr  Sr2  1  0.75447400  0.00712600  0.94793400  1
  Sr  Sr3  1  0.24552600  0.25265300  0.55206600  1
  Sr  Sr4  1  0.00000000  0.60200000  0.75000000  1
  Sr  Sr5  1  0.00000000  0.39800000  0.25000000  1
  Cr  Cr6  1  0.58392100  0.16579300  0.57760100  1
  Cr  Cr7  1  0.41607900  0.58187300  0.92239900  1
  Cr  Cr8  1  0.41607900  0.83420700  0.42239900  1
  Cr  Cr9  1  0.58392100  0.41812700  0.07760100  1
  N  N10  1  0.25927700  0.94478700  0.52356100  1
  N  N11  1  0.74072300  0.68551000  0.97643900  1
  N  N12  1  0.74072300  0.05521300  0.47643900  1
  N  N13  1  0.25927700  0.31449000  0.02356100  1
  N  N14  1  0.64294800  0.27500500  0.88656700  1
  N  N15  1  0.35705200  0.63205800  0.61343300  1
  N  N16  1  0.35705200  0.72499500  0.11343300  1
  N  N17  1  0.64294800  0.36794200  0.38656700  1
