# generated using pymatgen
data_Ca7ZrN6
_symmetry_space_group_name_H-M   'P 1'
_cell_length_a   6.39600000
_cell_length_b   9.36700233
_cell_length_c   9.36700233
_cell_angle_alpha   78.03713043
_cell_angle_beta   70.03712144
_cell_angle_gamma   70.03712144
_symmetry_Int_Tables_number   1
_chemical_formula_structural   Ca7ZrN6
_chemical_formula_sum   'Ca14 Zr2 N12'
_cell_volume   493.15580197
_cell_formula_units_Z   2
loop_
 _symmetry_equiv_pos_site_id
 _symmetry_equiv_pos_as_xyz
  1  'x, y, z'
loop_
 _atom_site_type_symbol
 _atom_site_label
 _atom_site_symmetry_multiplicity
 _atom_site_fract_x
 _atom_site_fract_y
 _atom_site_fract_z
 _atom_site_occupancy
  Ca  Ca0  1  0.28090500  0.95790400  0.04209600  1
  Ca  Ca1  1  0.71909500  0.04209600  0.95790400  1
  Ca  Ca2  1  0.21909500  0.45790400  0.54209600  1
  Ca  Ca3  1  0.78090500  0.54209600  0.45790400  1
  Ca  Ca4  1  0.73414200  0.15080500  0.60657700  1
  Ca  Ca5  1  0.50847700  0.60657700  0.15080500  1
  Ca  Ca6  1  0.76585800  0.89342300  0.34919500  1
  Ca  Ca7  1  0.99152300  0.34919500  0.89342300  1
  Ca  Ca8  1  0.26585800  0.84919500  0.39342300  1
  Ca  Ca9  1  0.49152300  0.39342300  0.84919500  1
  Ca  Ca10  1  0.23414200  0.10657700  0.65080500  1
  Ca  Ca11  1  0.00847700  0.65080500  0.10657700  1
  Ca  Ca12  1  0.25000000  0.25000000  0.25000000  1
  Ca  Ca13  1  0.75000000  0.75000000  0.75000000  1
  Zr  Zr14  1  0.75000000  0.25000000  0.25000000  1
  Zr  Zr15  1  0.25000000  0.75000000  0.75000000  1
  N  N16  1  0.03008200  0.06218500  0.27929300  1
  N  N17  1  0.62844100  0.27929300  0.06218500  1
  N  N18  1  0.46991800  0.22070700  0.43781500  1
  N  N19  1  0.87155900  0.43781500  0.22070700  1
  N  N20  1  0.96991800  0.93781500  0.72070700  1
  N  N21  1  0.37155900  0.72070700  0.93781500  1
  N  N22  1  0.53008200  0.77929300  0.56218500  1
  N  N23  1  0.12844100  0.56218500  0.77929300  1
  N  N24  1  0.87900100  0.34297600  0.65702400  1
  N  N25  1  0.12099900  0.65702400  0.34297600  1
  N  N26  1  0.62099900  0.84297600  0.15702400  1
  N  N27  1  0.37900100  0.15702400  0.84297600  1
