# generated using pymatgen
data_Zn4CN4
_symmetry_space_group_name_H-M   'P 1'
_cell_length_a   9.84449600
_cell_length_b   3.12518300
_cell_length_c   13.85837400
_cell_angle_alpha   90.00000000
_cell_angle_beta   90.00000000
_cell_angle_gamma   90.00000000
_symmetry_Int_Tables_number   1
_chemical_formula_structural   Zn4CN4
_chemical_formula_sum   'Zn16 C4 N16'
_cell_volume   426.36467711
_cell_formula_units_Z   4
loop_
 _symmetry_equiv_pos_site_id
 _symmetry_equiv_pos_as_xyz
  1  'x, y, z'
loop_
 _atom_site_type_symbol
 _atom_site_label
 _atom_site_symmetry_multiplicity
 _atom_site_fract_x
 _atom_site_fract_y
 _atom_site_fract_z
 _atom_site_occupancy
  Zn  Zn0  1  0.09959000  0.25000000  0.17071600  1
  Zn  Zn1  1  0.59959000  0.25000000  0.32928400  1
  Zn  Zn2  1  0.90041000  0.75000000  0.82928400  1
  Zn  Zn3  1  0.40041000  0.75000000  0.67071600  1
  Zn  Zn4  1  0.88277300  0.25000000  0.02114700  1
  Zn  Zn5  1  0.38277300  0.25000000  0.47885300  1
  Zn  Zn6  1  0.11722700  0.75000000  0.97885300  1
  Zn  Zn7  1  0.61722700  0.75000000  0.52114700  1
  Zn  Zn8  1  0.39212200  0.25000000  0.86212600  1
  Zn  Zn9  1  0.89212200  0.25000000  0.63787400  1
  Zn  Zn10  1  0.60787800  0.75000000  0.13787400  1
  Zn  Zn11  1  0.10787800  0.75000000  0.36212600  1
  Zn  Zn12  1  0.15417600  0.25000000  0.79228900  1
  Zn  Zn13  1  0.65417600  0.25000000  0.70771100  1
  Zn  Zn14  1  0.84582400  0.75000000  0.20771100  1
  Zn  Zn15  1  0.34582400  0.75000000  0.29228900  1
  C  C16  1  0.36848900  0.25000000  0.05668000  1
  C  C17  1  0.86848900  0.25000000  0.44332000  1
  C  C18  1  0.63151100  0.75000000  0.94332000  1
  C  C19  1  0.13151100  0.75000000  0.55668000  1
  N  N20  1  0.71686600  0.25000000  0.21698400  1
  N  N21  1  0.21686600  0.25000000  0.28301600  1
  N  N22  1  0.28313400  0.75000000  0.78301600  1
  N  N23  1  0.78313400  0.75000000  0.71698400  1
  N  N24  1  0.00324600  0.25000000  0.89293800  1
  N  N25  1  0.50324600  0.25000000  0.60706200  1
  N  N26  1  0.99675400  0.75000000  0.10706200  1
  N  N27  1  0.49675400  0.75000000  0.39293800  1
  N  N28  1  0.27233400  0.25000000  0.99797800  1
  N  N29  1  0.77233400  0.25000000  0.50202200  1
  N  N30  1  0.72766600  0.75000000  0.00202200  1
  N  N31  1  0.22766600  0.75000000  0.49797800  1
  N  N32  1  0.46430300  0.25000000  0.11283000  1
  N  N33  1  0.96430300  0.25000000  0.38717000  1
  N  N34  1  0.53569700  0.75000000  0.88717000  1
  N  N35  1  0.03569700  0.75000000  0.61283000  1
