# generated using pymatgen
data_NaSi5N7
_symmetry_space_group_name_H-M   'P 1'
_cell_length_a   11.66475500
_cell_length_b   20.90902800
_cell_length_c   4.90792600
_cell_angle_alpha   90.00000000
_cell_angle_beta   90.00000000
_cell_angle_gamma   90.00000000
_symmetry_Int_Tables_number   1
_chemical_formula_structural   NaSi5N7
_chemical_formula_sum   'Na8 Si40 N56'
_cell_volume   1197.03671666
_cell_formula_units_Z   8
loop_
 _symmetry_equiv_pos_site_id
 _symmetry_equiv_pos_as_xyz
  1  'x, y, z'
loop_
 _atom_site_type_symbol
 _atom_site_label
 _atom_site_symmetry_multiplicity
 _atom_site_fract_x
 _atom_site_fract_y
 _atom_site_fract_z
 _atom_site_occupancy
  Na  Na0  1  0.78423800  0.99241000  0.43643000  1
  Na  Na1  1  0.21576200  0.00759000  0.93643000  1
  Na  Na2  1  0.71576200  0.49241000  0.93643000  1
  Na  Na3  1  0.28423800  0.50759000  0.43643000  1
  Na  Na4  1  0.14593800  0.81083500  0.44558600  1
  Na  Na5  1  0.85406200  0.18916500  0.94558600  1
  Na  Na6  1  0.35406200  0.31083500  0.94558600  1
  Na  Na7  1  0.64593800  0.68916500  0.44558600  1
  Si  Si8  1  0.65551200  0.84980000  0.72534000  1
  Si  Si9  1  0.34448800  0.15020000  0.22534000  1
  Si  Si10  1  0.84448800  0.34980000  0.22534000  1
  Si  Si11  1  0.15551200  0.65020000  0.72534000  1
  Si  Si12  1  0.15488300  0.65080700  0.22179700  1
  Si  Si13  1  0.84511700  0.34919300  0.72179700  1
  Si  Si14  1  0.34511700  0.15080700  0.72179700  1
  Si  Si15  1  0.65488300  0.84919300  0.22179700  1
  Si  Si16  1  0.85898500  0.77798800  0.96972600  1
  Si  Si17  1  0.14101500  0.22201200  0.46972600  1
  Si  Si18  1  0.64101500  0.27798800  0.46972600  1
  Si  Si19  1  0.35898500  0.72201200  0.96972600  1
  Si  Si20  1  0.42028500  0.79978700  0.47138500  1
  Si  Si21  1  0.57971500  0.20021300  0.97138500  1
  Si  Si22  1  0.07971500  0.29978700  0.97138500  1
  Si  Si23  1  0.92028500  0.70021300  0.47138500  1
  Si  Si24  1  0.06012900  0.96927800  0.45962900  1
  Si  Si25  1  0.93987100  0.03072200  0.95962900  1
  Si  Si26  1  0.43987100  0.46927800  0.95962900  1
  Si  Si27  1  0.56012900  0.53072200  0.45962900  1
  Si  Si28  1  0.50981500  0.04284600  0.46821800  1
  Si  Si29  1  0.49018500  0.95715500  0.96821800  1
  Si  Si30  1  0.99018500  0.54284500  0.96821800  1
  Si  Si31  1  0.00981500  0.45715500  0.46821800  1
  Si  Si32  1  0.69781300  0.13948800  0.45641400  1
  Si  Si33  1  0.30218700  0.86051200  0.95641400  1
  Si  Si34  1  0.80218700  0.63948800  0.95641400  1
  Si  Si35  1  0.19781300  0.36051200  0.45641400  1
  Si  Si36  1  0.66899400  0.06283100  0.95437000  1
  Si  Si37  1  0.33100600  0.93716900  0.45437000  1
  Si  Si38  1  0.83100600  0.56283100  0.45437000  1
  Si  Si39  1  0.16899400  0.43716900  0.95437000  1
  Si  Si40  1  0.96593800  0.10991600  0.45931900  1
  Si  Si41  1  0.03406200  0.89008400  0.95931900  1
  Si  Si42  1  0.53406200  0.60991600  0.95931900  1
  Si  Si43  1  0.46593800  0.39008400  0.45931900  1
  Si  Si44  1  0.89689700  0.85015000  0.47081500  1
  Si  Si45  1  0.10310300  0.14985000  0.97081500  1
  Si  Si46  1  0.60310300  0.35015000  0.97081500  1
  Si  Si47  1  0.39689700  0.64985000  0.47081500  1
  N  N48  1  0.75234600  0.87622500  0.47005400  1
  N  N49  1  0.24765400  0.12377500  0.97005400  1
  N  N50  1  0.74765400  0.37622500  0.97005400  1
  N  N51  1  0.25234600  0.62377500  0.47005400  1
  N  N52  1  0.71569400  0.80096500  0.97363400  1
  N  N53  1  0.28430600  0.19903500  0.47363400  1
  N  N54  1  0.78430600  0.30096500  0.47363400  1
  N  N55  1  0.21569400  0.69903500  0.97363400  1
  N  N56  1  0.98430700  0.03380100  0.30644700  1
  N  N57  1  0.01569300  0.96619900  0.80644700  1
  N  N58  1  0.51569300  0.53380100  0.80644700  1
  N  N59  1  0.48430700  0.46619900  0.30644700  1
  N  N60  1  0.40537700  0.10231000  0.47648400  1
  N  N61  1  0.59462300  0.89769000  0.97648400  1
  N  N62  1  0.09462300  0.60231000  0.97648400  1
  N  N63  1  0.90537700  0.39769000  0.47648400  1
  N  N64  1  0.93377000  0.83785200  0.80542000  1
  N  N65  1  0.06623000  0.16214800  0.30542000  1
  N  N66  1  0.56623000  0.33785200  0.30542000  1
  N  N67  1  0.43377000  0.66214800  0.80542000  1
  N  N68  1  0.37238300  0.79404800  0.80486400  1
  N  N69  1  0.62761700  0.20595200  0.30486400  1
  N  N70  1  0.12761700  0.29404800  0.30486400  1
  N  N71  1  0.87238300  0.70595200  0.80486400  1
  N  N72  1  0.34181100  0.85895600  0.30485300  1
  N  N73  1  0.65818900  0.14104400  0.80485300  1
  N  N74  1  0.15818900  0.35895600  0.80485300  1
  N  N75  1  0.84181100  0.64104400  0.30485300  1
  N  N76  1  0.06625400  0.68188400  0.47458600  1
  N  N77  1  0.93374600  0.31811600  0.97458600  1
  N  N78  1  0.43374600  0.18188400  0.97458600  1
  N  N79  1  0.56625400  0.81811600  0.47458600  1
  N  N80  1  0.55037300  0.02204300  0.79956100  1
  N  N81  1  0.44962700  0.97795700  0.29956100  1
  N  N82  1  0.94962700  0.52204300  0.29956100  1
  N  N83  1  0.05037300  0.47795700  0.79956100  1
  N  N84  1  0.36916100  0.92812500  0.80192600  1
  N  N85  1  0.63083900  0.07187500  0.30192600  1
  N  N86  1  0.13083900  0.42812500  0.30192600  1
  N  N87  1  0.86916100  0.57187500  0.80192600  1
  N  N88  1  0.99374700  0.89968200  0.30680700  1
  N  N89  1  0.00625300  0.10031800  0.80680700  1
  N  N90  1  0.50625300  0.39968200  0.80680700  1
  N  N91  1  0.49374700  0.60031800  0.30680700  1
  N  N92  1  0.83769900  0.14215800  0.40738200  1
  N  N93  1  0.16230100  0.85784200  0.90738200  1
  N  N94  1  0.66230100  0.64215800  0.90738200  1
  N  N95  1  0.33769900  0.35784200  0.40738200  1
  N  N96  1  0.79709300  0.02804600  0.91019100  1
  N  N97  1  0.20290700  0.97195400  0.41019100  1
  N  N98  1  0.70290700  0.52804600  0.41019100  1
  N  N99  1  0.29709300  0.47195400  0.91019100  1
  N  N100  1  0.90128200  0.77427900  0.30849100  1
  N  N101  1  0.09871800  0.22572100  0.80849100  1
  N  N102  1  0.59871800  0.27427900  0.80849100  1
  N  N103  1  0.40128200  0.72572100  0.30849100  1
