# generated using pymatgen
data_Cu3O2
_symmetry_space_group_name_H-M   'P 1'
_cell_length_a   4.65621887
_cell_length_b   4.65621887
_cell_length_c   4.65621887
_cell_angle_alpha   128.49700004
_cell_angle_beta   128.49700004
_cell_angle_gamma   75.82127958
_symmetry_Int_Tables_number   1
_chemical_formula_structural   Cu3O2
_chemical_formula_sum   'Cu3 O2'
_cell_volume   60.13646627
_cell_formula_units_Z   1
loop_
 _symmetry_equiv_pos_site_id
 _symmetry_equiv_pos_as_xyz
  1  'x, y, z'
loop_
 _atom_site_type_symbol
 _atom_site_label
 _atom_site_symmetry_multiplicity
 _atom_site_fract_x
 _atom_site_fract_y
 _atom_site_fract_z
 _atom_site_occupancy
  Cu  Cu0  1  0.25000000  0.75000000  0.50000000  1
  Cu  Cu1  1  0.75000000  0.25000000  0.50000000  1
  Cu  Cu2  1  0.00000000  0.00000000  0.00000000  1
  O  O3  1  0.00000000  0.50000000  0.50000000  1
  O  O4  1  0.50000000  0.00000000  0.50000000  1
