# generated using pymatgen
data_Ba4SiN4
_symmetry_space_group_name_H-M   'P 1'
_cell_length_a   12.88449600
_cell_length_b   4.03128000
_cell_length_c   16.96695000
_cell_angle_alpha   90.00000000
_cell_angle_beta   90.00000000
_cell_angle_gamma   90.00000000
_symmetry_Int_Tables_number   1
_chemical_formula_structural   Ba4SiN4
_chemical_formula_sum   'Ba16 Si4 N16'
_cell_volume   881.28053718
_cell_formula_units_Z   4
loop_
 _symmetry_equiv_pos_site_id
 _symmetry_equiv_pos_as_xyz
  1  'x, y, z'
loop_
 _atom_site_type_symbol
 _atom_site_label
 _atom_site_symmetry_multiplicity
 _atom_site_fract_x
 _atom_site_fract_y
 _atom_site_fract_z
 _atom_site_occupancy
  Ba  Ba0  1  0.61062500  0.25000000  0.88404300  1
  Ba  Ba1  1  0.11062500  0.25000000  0.61595700  1
  Ba  Ba2  1  0.38937500  0.75000000  0.11595700  1
  Ba  Ba3  1  0.88937500  0.75000000  0.38404300  1
  Ba  Ba4  1  0.62759900  0.25000000  0.46533900  1
  Ba  Ba5  1  0.12759900  0.25000000  0.03466100  1
  Ba  Ba6  1  0.37240100  0.75000000  0.53466100  1
  Ba  Ba7  1  0.87240100  0.75000000  0.96533900  1
  Ba  Ba8  1  0.85975200  0.25000000  0.76780900  1
  Ba  Ba9  1  0.35975200  0.25000000  0.73219100  1
  Ba  Ba10  1  0.14024800  0.75000000  0.23219100  1
  Ba  Ba11  1  0.64024800  0.75000000  0.26780900  1
  Ba  Ba12  1  0.88232000  0.25000000  0.16984200  1
  Ba  Ba13  1  0.38232000  0.25000000  0.33015800  1
  Ba  Ba14  1  0.11768000  0.75000000  0.83015800  1
  Ba  Ba15  1  0.61768000  0.75000000  0.66984200  1
  Si  Si16  1  0.62952600  0.25000000  0.08341800  1
  Si  Si17  1  0.12952600  0.25000000  0.41658200  1
  Si  Si18  1  0.37047400  0.75000000  0.91658200  1
  Si  Si19  1  0.87047400  0.75000000  0.58341800  1
  N  N20  1  0.55409300  0.25000000  0.16081000  1
  N  N21  1  0.05409300  0.25000000  0.33919000  1
  N  N22  1  0.44590700  0.75000000  0.83919000  1
  N  N23  1  0.94590700  0.75000000  0.66081000  1
  N  N24  1  0.73577000  0.25000000  0.03066900  1
  N  N25  1  0.23577000  0.25000000  0.46933100  1
  N  N26  1  0.26423000  0.75000000  0.96933100  1
  N  N27  1  0.76423000  0.75000000  0.53066900  1
  N  N28  1  0.77544400  0.25000000  0.31749100  1
  N  N29  1  0.27544400  0.25000000  0.18250900  1
  N  N30  1  0.22455600  0.75000000  0.68250900  1
  N  N31  1  0.72455600  0.75000000  0.81749100  1
  N  N32  1  0.99982700  0.25000000  0.88516200  1
  N  N33  1  0.49982700  0.25000000  0.61483800  1
  N  N34  1  0.00017200  0.75000000  0.11483800  1
  N  N35  1  0.50017300  0.75000000  0.38516200  1
