# generated using pymatgen
data_Cd5(GeN3)2
_symmetry_space_group_name_H-M   'P 1'
_cell_length_a   5.67028641
_cell_length_b   6.16765412
_cell_length_c   14.23820941
_cell_angle_alpha   89.99999996
_cell_angle_beta   90.99080757
_cell_angle_gamma   122.94662735
_symmetry_Int_Tables_number   1
_chemical_formula_structural   Cd5(GeN3)2
_chemical_formula_sum   'Cd10 Ge4 N12'
_cell_volume   417.77458765
_cell_formula_units_Z   2
loop_
 _symmetry_equiv_pos_site_id
 _symmetry_equiv_pos_as_xyz
  1  'x, y, z'
loop_
 _atom_site_type_symbol
 _atom_site_label
 _atom_site_symmetry_multiplicity
 _atom_site_fract_x
 _atom_site_fract_y
 _atom_site_fract_z
 _atom_site_occupancy
  Cd  Cd0  1  0.11798400  0.80444200  0.98042800  1
  Cd  Cd1  1  0.88201600  0.68645800  0.51957200  1
  Cd  Cd2  1  0.88201600  0.19555800  0.01957200  1
  Cd  Cd3  1  0.11798400  0.31354200  0.48042800  1
  Cd  Cd4  1  0.28727000  0.25673200  0.69613900  1
  Cd  Cd5  1  0.71273000  0.96946300  0.80386100  1
  Cd  Cd6  1  0.71273000  0.74326800  0.30386100  1
  Cd  Cd7  1  0.28727000  0.03053700  0.19613900  1
  Cd  Cd8  1  0.00000000  0.68181700  0.75000000  1
  Cd  Cd9  1  0.00000000  0.31818300  0.25000000  1
  Ge  Ge10  1  0.57769600  0.97639100  0.58950000  1
  Ge  Ge11  1  0.42230400  0.39869600  0.91050000  1
  Ge  Ge12  1  0.42230400  0.02360900  0.41050000  1
  Ge  Ge13  1  0.57769600  0.60130400  0.08950000  1
  N  N14  1  0.91830300  0.00402100  0.60931600  1
  N  N15  1  0.08169700  0.08571900  0.89068400  1
  N  N16  1  0.08169700  0.99597900  0.39068400  1
  N  N17  1  0.91830300  0.91428100  0.10931600  1
  N  N18  1  0.41273900  0.95372700  0.70402600  1
  N  N19  1  0.58726100  0.54098800  0.79597400  1
  N  N20  1  0.58726100  0.04627300  0.29597400  1
  N  N21  1  0.41273900  0.45901200  0.20402600  1
  N  N22  1  0.65246600  0.25853400  0.50812700  1
  N  N23  1  0.34753400  0.60606900  0.99187300  1
  N  N24  1  0.34753400  0.74146600  0.49187300  1
  N  N25  1  0.65246600  0.39393100  0.00812700  1
