# generated using pymatgen
data_Os2Pb3N4
_symmetry_space_group_name_H-M   'P 1'
_cell_length_a   6.51957304
_cell_length_b   10.46974712
_cell_length_c   10.31904487
_cell_angle_alpha   90.00000000
_cell_angle_beta   90.00000000
_cell_angle_gamma   90.00000000
_symmetry_Int_Tables_number   1
_chemical_formula_structural   Os2Pb3N4
_chemical_formula_sum   'Os8 Pb12 N16'
_cell_volume   704.36026500
_cell_formula_units_Z   4
loop_
 _symmetry_equiv_pos_site_id
 _symmetry_equiv_pos_as_xyz
  1  'x, y, z'
loop_
 _atom_site_type_symbol
 _atom_site_label
 _atom_site_symmetry_multiplicity
 _atom_site_fract_x
 _atom_site_fract_y
 _atom_site_fract_z
 _atom_site_occupancy
  Os  Os0  1  0.75000000  0.50000000  0.75453583  1
  Os  Os1  1  0.75000000  -0.00000000  0.74546417  1
  Os  Os2  1  0.25000000  0.50000000  0.24546417  1
  Os  Os3  1  0.25000000  -0.00000000  0.25453583  1
  Os  Os4  1  0.79223631  0.25000000  0.75000000  1
  Os  Os5  1  0.70776369  0.75000000  0.75000000  1
  Os  Os6  1  0.20776369  0.75000000  0.25000000  1
  Os  Os7  1  0.29223631  0.25000000  0.25000000  1
  Pb  Pb8  1  0.81089769  0.15515787  0.38741522  1
  Pb  Pb9  1  0.68910231  0.84484213  0.38741522  1
  Pb  Pb10  1  0.81089769  0.34484213  0.11258478  1
  Pb  Pb11  1  0.68910231  0.65515787  0.11258478  1
  Pb  Pb12  1  0.18910231  0.84484213  0.61258478  1
  Pb  Pb13  1  0.31089769  0.15515787  0.61258478  1
  Pb  Pb14  1  0.18910231  0.65515787  0.88741522  1
  Pb  Pb15  1  0.31089769  0.34484213  0.88741522  1
  Pb  Pb16  1  0.75000000  0.50000000  0.40953657  1
  Pb  Pb17  1  0.75000000  -0.00000000  0.09046343  1
  Pb  Pb18  1  0.25000000  0.50000000  0.59046343  1
  Pb  Pb19  1  0.25000000  -0.00000000  0.90953657  1
  N  N20  1  0.90984593  0.39056809  0.64814649  1
  N  N21  1  0.59015407  0.60943191  0.64814649  1
  N  N22  1  0.90984593  0.10943191  0.85185351  1
  N  N23  1  0.59015407  0.89056809  0.85185351  1
  N  N24  1  0.09015407  0.60943191  0.35185351  1
  N  N25  1  0.40984593  0.39056809  0.35185351  1
  N  N26  1  0.09015407  0.89056809  0.14814649  1
  N  N27  1  0.40984593  0.10943191  0.14814649  1
  N  N28  1  0.68188147  0.36138075  0.88668793  1
  N  N29  1  0.81811853  0.63861925  0.88668793  1
  N  N30  1  0.68188147  0.13861925  0.61331207  1
  N  N31  1  0.81811853  0.86138075  0.61331207  1
  N  N32  1  0.31811853  0.63861925  0.11331207  1
  N  N33  1  0.18188147  0.36138075  0.11331207  1
  N  N34  1  0.31811853  0.86138075  0.38668793  1
  N  N35  1  0.18188147  0.13861925  0.38668793  1
