# generated using pymatgen
data_Na3GaN2
_symmetry_space_group_name_H-M   'P 1'
_cell_length_a   9.43709700
_cell_length_b   10.89702149
_cell_length_c   10.89702131
_cell_angle_alpha   89.99999948
_cell_angle_beta   125.26438848
_cell_angle_gamma   54.73561221
_symmetry_Int_Tables_number   1
_chemical_formula_structural   Na3GaN2
_chemical_formula_sum   'Na24 Ga8 N16'
_cell_volume   646.98383295
_cell_formula_units_Z   8
loop_
 _symmetry_equiv_pos_site_id
 _symmetry_equiv_pos_as_xyz
  1  'x, y, z'
loop_
 _atom_site_type_symbol
 _atom_site_label
 _atom_site_symmetry_multiplicity
 _atom_site_fract_x
 _atom_site_fract_y
 _atom_site_fract_z
 _atom_site_occupancy
  Na  Na0  1  0.19834600  0.05759900  0.96293900  1
  Na  Na1  1  0.80165400  0.75594500  0.53706100  1
  Na  Na2  1  0.80165400  0.44240100  0.76459200  1
  Na  Na3  1  0.19834600  0.74405500  0.73540800  1
  Na  Na4  1  0.27246900  0.76459200  0.29300700  1
  Na  Na5  1  0.72753100  0.73540800  0.02053800  1
  Na  Na6  1  0.27246900  0.96293900  0.47946200  1
  Na  Na7  1  0.72753100  0.53706100  0.20699300  1
  Na  Na8  1  0.68645600  0.02053800  0.74405500  1
  Na  Na9  1  0.68645600  0.29300700  0.44240100  1
  Na  Na10  1  0.31354400  0.20699300  0.75594500  1
  Na  Na11  1  0.31354400  0.47946200  0.05759900  1
  Na  Na12  1  0.80165400  0.94240100  0.03706100  1
  Na  Na13  1  0.19834600  0.24405500  0.46293900  1
  Na  Na14  1  0.19834600  0.55759900  0.23540800  1
  Na  Na15  1  0.80165400  0.25594500  0.26459200  1
  Na  Na16  1  0.72753100  0.23540800  0.70699300  1
  Na  Na17  1  0.27246900  0.26459200  0.97946200  1
  Na  Na18  1  0.72753100  0.03706100  0.52053800  1
  Na  Na19  1  0.27246900  0.46293900  0.79300700  1
  Na  Na20  1  0.31354400  0.97946200  0.25594500  1
  Na  Na21  1  0.31354400  0.70699300  0.55759900  1
  Na  Na22  1  0.68645600  0.79300700  0.24405500  1
  Na  Na23  1  0.68645600  0.52053800  0.94240100  1
  Ga  Ga24  1  0.21404500  0.00000000  0.71404500  1
  Ga  Ga25  1  0.78595500  0.71404500  0.78595500  1
  Ga  Ga26  1  0.78595500  0.50000000  0.50000000  1
  Ga  Ga27  1  0.21404500  0.78595500  0.00000000  1
  Ga  Ga28  1  0.78595500  0.00000000  0.28595500  1
  Ga  Ga29  1  0.21404500  0.28595500  0.21404500  1
  Ga  Ga30  1  0.21404500  0.50000000  0.50000000  1
  Ga  Ga31  1  0.78595500  0.21404500  0.00000000  1
  N  N32  1  0.00000000  0.00000000  0.50000000  1
  N  N33  1  0.00000000  0.50000000  0.00000000  1
  N  N34  1  0.00000000  0.50000000  0.50000000  1
  N  N35  1  0.00000000  0.00000000  0.00000000  1
  N  N36  1  0.50000000  0.94093200  0.75000000  1
  N  N37  1  0.50000000  0.55906800  0.25000000  1
  N  N38  1  0.00000000  0.25000000  0.69093200  1
  N  N39  1  0.00000000  0.75000000  0.80906800  1
  N  N40  1  0.61813600  0.69093200  0.55906800  1
  N  N41  1  0.38186400  0.80906800  0.94093200  1
  N  N42  1  0.50000000  0.05906800  0.25000000  1
  N  N43  1  0.50000000  0.44093200  0.75000000  1
  N  N44  1  0.00000000  0.75000000  0.30906800  1
  N  N45  1  0.00000000  0.25000000  0.19093200  1
  N  N46  1  0.38186400  0.30906800  0.44093200  1
  N  N47  1  0.61813600  0.19093200  0.05906800  1
