# generated using pymatgen
data_Ti(SnN)4
_symmetry_space_group_name_H-M   'P 1'
_cell_length_a   6.52779266
_cell_length_b   7.79726474
_cell_length_c   9.16513655
_cell_angle_alpha   64.88230197
_cell_angle_beta   75.50240084
_cell_angle_gamma   53.32282708
_symmetry_Int_Tables_number   1
_chemical_formula_structural   Ti(SnN)4
_chemical_formula_sum   'Ti2 Sn8 N8'
_cell_volume   338.75343232
_cell_formula_units_Z   2
loop_
 _symmetry_equiv_pos_site_id
 _symmetry_equiv_pos_as_xyz
  1  'x, y, z'
loop_
 _atom_site_type_symbol
 _atom_site_label
 _atom_site_symmetry_multiplicity
 _atom_site_fract_x
 _atom_site_fract_y
 _atom_site_fract_z
 _atom_site_occupancy
  Ti  Ti0  1  0.74926100  0.80066900  0.75033100  1
  Ti  Ti1  1  0.25073900  0.19933100  0.24966900  1
  Sn  Sn2  1  0.74992400  0.62594600  0.13268500  1
  Sn  Sn3  1  0.25007600  0.37405400  0.86731500  1
  Sn  Sn4  1  0.78130000  0.28491200  0.95810300  1
  Sn  Sn5  1  0.21870000  0.71508800  0.04189700  1
  Sn  Sn6  1  0.71896200  0.52465000  0.54142600  1
  Sn  Sn7  1  0.28103800  0.47535000  0.45857400  1
  Sn  Sn8  1  0.24962800  0.99061900  0.63200700  1
  Sn  Sn9  1  0.75037200  0.00938100  0.36799300  1
  N  N10  1  0.97536800  0.57388900  0.64630300  1
  N  N11  1  0.02463200  0.42611100  0.35369700  1
  N  N12  1  0.97635000  0.71469900  0.90693300  1
  N  N13  1  0.02365000  0.28530100  0.09306700  1
  N  N14  1  0.52387500  0.69537800  0.85375700  1
  N  N15  1  0.47612500  0.30462200  0.14624300  1
  N  N16  1  0.47825000  0.90189700  0.40594200  1
  N  N17  1  0.52175000  0.09810300  0.59405800  1
