# generated using pymatgen
data_Mg2InW3S8
_symmetry_space_group_name_H-M   'P 1'
_cell_length_a   7.68331663
_cell_length_b   7.73132813
_cell_length_c   7.69031154
_cell_angle_alpha   54.27590251
_cell_angle_beta   54.06094919
_cell_angle_gamma   54.30923616
_symmetry_Int_Tables_number   1
_chemical_formula_structural   Mg2InW3S8
_chemical_formula_sum   'Mg2 In1 W3 S8'
_cell_volume   279.40795262
_cell_formula_units_Z   1
loop_
 _symmetry_equiv_pos_site_id
 _symmetry_equiv_pos_as_xyz
  1  'x, y, z'
loop_
 _atom_site_type_symbol
 _atom_site_label
 _atom_site_symmetry_multiplicity
 _atom_site_fract_x
 _atom_site_fract_y
 _atom_site_fract_z
 _atom_site_occupancy
  Mg  Mg0  1  0.88094100  0.87678700  0.88151200  1
  Mg  Mg1  1  0.13900800  0.13514900  0.13849100  1
  In  In2  1  0.48616600  0.48620000  0.48571100  1
  W  W3  1  0.53412600  0.53018100  0.94077500  1
  W  W4  1  0.94175300  0.52975700  0.53410900  1
  W  W5  1  0.52943800  0.94851000  0.52977000  1
  S  S6  1  0.75453900  0.75685800  0.75441200  1
  S  S7  1  0.23489800  0.23807700  0.72895700  1
  S  S8  1  0.23639900  0.72868600  0.23573900  1
  S  S9  1  0.72906300  0.23832800  0.23458700  1
  S  S10  1  0.73824400  0.28178200  0.73896000  1
  S  S11  1  0.28701100  0.73831800  0.73828600  1
  S  S12  1  0.27021400  0.27248100  0.27084300  1
  S  S13  1  0.73820400  0.73888300  0.28784900  1
