# generated using pymatgen
data_Sr5MnN4
_symmetry_space_group_name_H-M   'P 1'
_cell_length_a   9.89116467
_cell_length_b   15.63607410
_cell_length_c   13.36566100
_cell_angle_alpha   90.00000000
_cell_angle_beta   115.06111278
_cell_angle_gamma   90.00000000
_symmetry_Int_Tables_number   1
_chemical_formula_structural   Sr5MnN4
_chemical_formula_sum   'Sr40 Mn8 N32'
_cell_volume   1872.51367534
_cell_formula_units_Z   8
loop_
 _symmetry_equiv_pos_site_id
 _symmetry_equiv_pos_as_xyz
  1  'x, y, z'
loop_
 _atom_site_type_symbol
 _atom_site_label
 _atom_site_symmetry_multiplicity
 _atom_site_fract_x
 _atom_site_fract_y
 _atom_site_fract_z
 _atom_site_occupancy
  Sr  Sr0  1  0.43117519  0.75000000  0.71851745  1
  Sr  Sr1  1  0.56882481  0.25000000  0.28148255  1
  Sr  Sr2  1  0.48643206  0.75000000  0.16655427  1
  Sr  Sr3  1  0.51356794  0.25000000  0.83344573  1
  Sr  Sr4  1  0.15017316  0.59666089  0.77295407  1
  Sr  Sr5  1  0.84982684  0.09666089  0.22704593  1
  Sr  Sr6  1  0.84982684  0.40333911  0.22704593  1
  Sr  Sr7  1  0.15017316  0.90333911  0.77295407  1
  Sr  Sr8  1  0.72842152  0.37106591  0.56205949  1
  Sr  Sr9  1  0.27157848  0.87106591  0.43794051  1
  Sr  Sr10  1  0.27157848  0.62893409  0.43794051  1
  Sr  Sr11  1  0.72842152  0.12893409  0.56205949  1
  Sr  Sr12  1  0.86354398  0.25000000  0.82049477  1
  Sr  Sr13  1  0.13645602  0.75000000  0.17950523  1
  Sr  Sr14  1  0.20478976  0.50111908  0.03154668  1
  Sr  Sr15  1  0.79521024  0.00111908  0.96845332  1
  Sr  Sr16  1  0.79521024  0.49888092  0.96845332  1
  Sr  Sr17  1  0.20478976  0.99888092  0.03154668  1
  Sr  Sr18  1  0.00000000  0.50000000  0.50000000  1
  Sr  Sr19  1  0.00000000  0.00000000  0.50000000  1
  Sr  Sr20  1  0.49002584  0.38681847  0.02017929  1
  Sr  Sr21  1  0.50997416  0.88681847  0.97982071  1
  Sr  Sr22  1  0.50997416  0.61318153  0.97982071  1
  Sr  Sr23  1  0.49002584  0.11318153  0.02017929  1
  Sr  Sr24  1  0.16600972  0.35553073  0.76455152  1
  Sr  Sr25  1  0.83399028  0.85553073  0.23544848  1
  Sr  Sr26  1  0.83399028  0.64446927  0.23544848  1
  Sr  Sr27  1  0.16600972  0.14446927  0.76455152  1
  Sr  Sr28  1  0.76895468  0.63257201  0.71220216  1
  Sr  Sr29  1  0.23104532  0.13257201  0.28779784  1
  Sr  Sr30  1  0.23104532  0.36742799  0.28779784  1
  Sr  Sr31  1  0.76895468  0.86742799  0.71220216  1
  Sr  Sr32  1  0.78864552  0.75000000  0.95725055  1
  Sr  Sr33  1  0.21135448  0.25000000  0.04274945  1
  Sr  Sr34  1  0.56495550  0.48516742  0.28504550  1
  Sr  Sr35  1  0.43504450  0.98516742  0.71495450  1
  Sr  Sr36  1  0.43504450  0.51483258  0.71495450  1
  Sr  Sr37  1  0.56495550  0.01483258  0.28504550  1
  Sr  Sr38  1  0.96523521  0.25000000  0.48376352  1
  Sr  Sr39  1  0.03476479  0.75000000  0.51623648  1
  Mn  Mn40  1  0.91252794  0.45637434  0.79142108  1
  Mn  Mn41  1  0.08747206  0.95637434  0.20857892  1
  Mn  Mn42  1  0.08747206  0.54362566  0.20857892  1
  Mn  Mn43  1  0.91252794  0.04362566  0.79142108  1
  Mn  Mn44  1  0.64154238  0.75000000  0.44374916  1
  Mn  Mn45  1  0.35845762  0.25000000  0.55625084  1
  Mn  Mn46  1  0.82658283  0.25000000  0.06514484  1
  Mn  Mn47  1  0.17341717  0.75000000  0.93485516  1
  N  N48  1  0.90005968  0.25000000  0.64826927  1
  N  N49  1  0.09994032  0.75000000  0.35173073  1
  N  N50  1  0.00650818  0.75000000  0.81937241  1
  N  N51  1  0.99349182  0.25000000  0.18062759  1
  N  N52  1  0.37262892  0.37191597  0.17524372  1
  N  N53  1  0.62737108  0.87191597  0.82475628  1
  N  N54  1  0.62737108  0.62808403  0.82475628  1
  N  N55  1  0.37262892  0.12808403  0.17524372  1
  N  N56  1  0.34568978  0.48443426  0.85833461  1
  N  N57  1  0.65431022  0.98443426  0.14166539  1
  N  N58  1  0.65431022  0.51556574  0.14166539  1
  N  N59  1  0.34568978  0.01556574  0.85833461  1
  N  N60  1  0.92901194  0.49090119  0.67717515  1
  N  N61  1  0.07098806  0.99090119  0.32282485  1
  N  N62  1  0.07098806  0.50909881  0.32282485  1
  N  N63  1  0.92901194  0.00909881  0.67717515  1
  N  N64  1  0.73753532  0.34006233  0.00322553  1
  N  N65  1  0.26246468  0.84006233  0.99677447  1
  N  N66  1  0.26246468  0.65993767  0.99677447  1
  N  N67  1  0.73753532  0.15993767  0.00322553  1
  N  N68  1  0.98809481  0.60875120  0.10403285  1
  N  N69  1  0.01190519  0.10875120  0.89596715  1
  N  N70  1  0.01190519  0.39124880  0.89596715  1
  N  N71  1  0.98809481  0.89124880  0.10403285  1
  N  N72  1  0.66559828  0.75000000  0.08946233  1
  N  N73  1  0.33440172  0.25000000  0.91053767  1
  N  N74  1  0.79111736  0.38325559  0.39596118  1
  N  N75  1  0.20888264  0.88325559  0.60403882  1
  N  N76  1  0.20888264  0.61674441  0.60403882  1
  N  N77  1  0.79111736  0.11674441  0.39596118  1
  N  N78  1  0.74214412  0.75000000  0.36338090  1
  N  N79  1  0.25785588  0.25000000  0.63661910  1
