# generated using pymatgen
data_Zn2IrN3
_symmetry_space_group_name_H-M   'P 1'
_cell_length_a   5.72364830
_cell_length_b   5.65521873
_cell_length_c   5.36579600
_cell_angle_alpha   90.00000000
_cell_angle_beta   90.00000000
_cell_angle_gamma   119.60529928
_symmetry_Int_Tables_number   1
_chemical_formula_structural   Zn2IrN3
_chemical_formula_sum   'Zn4 Ir2 N6'
_cell_volume   151.00827188
_cell_formula_units_Z   2
loop_
 _symmetry_equiv_pos_site_id
 _symmetry_equiv_pos_as_xyz
  1  'x, y, z'
loop_
 _atom_site_type_symbol
 _atom_site_label
 _atom_site_symmetry_multiplicity
 _atom_site_fract_x
 _atom_site_fract_y
 _atom_site_fract_z
 _atom_site_occupancy
  Zn  Zn0  1  0.33735600  0.84016200  0.46863600  1
  Zn  Zn1  1  0.66264400  0.50280600  0.46863600  1
  Zn  Zn2  1  0.66264400  0.15983800  0.96863600  1
  Zn  Zn3  1  0.33735600  0.49719400  0.96863600  1
  Ir  Ir4  1  0.00000000  0.80575700  0.98001600  1
  Ir  Ir5  1  0.00000000  0.19424300  0.48001600  1
  N  N6  1  0.32146700  0.82871400  0.84705600  1
  N  N7  1  0.67853300  0.50724700  0.84705600  1
  N  N8  1  0.67853300  0.17128600  0.34705600  1
  N  N9  1  0.32146700  0.49275300  0.34705600  1
  N  N10  1  0.00000000  0.87121900  0.33298100  1
  N  N11  1  0.00000000  0.12878100  0.83298100  1
