# generated using pymatgen
data_YGaN2
_symmetry_space_group_name_H-M   'P 1'
_cell_length_a   5.10235000
_cell_length_b   10.15494400
_cell_length_c   16.60663700
_cell_angle_alpha   90.00000000
_cell_angle_beta   90.00000000
_cell_angle_gamma   90.00000000
_symmetry_Int_Tables_number   1
_chemical_formula_structural   YGaN2
_chemical_formula_sum   'Y16 Ga16 N32'
_cell_volume   860.45759344
_cell_formula_units_Z   16
loop_
 _symmetry_equiv_pos_site_id
 _symmetry_equiv_pos_as_xyz
  1  'x, y, z'
loop_
 _atom_site_type_symbol
 _atom_site_label
 _atom_site_symmetry_multiplicity
 _atom_site_fract_x
 _atom_site_fract_y
 _atom_site_fract_z
 _atom_site_occupancy
  Y  Y0  1  0.73880800  0.99583500  0.43697200  1
  Y  Y1  1  0.23880800  0.50416500  0.56302800  1
  Y  Y2  1  0.26119200  0.49583500  0.06302800  1
  Y  Y3  1  0.76119200  0.00416500  0.93697200  1
  Y  Y4  1  0.26119200  0.00416500  0.56302800  1
  Y  Y5  1  0.76119200  0.49583500  0.43697200  1
  Y  Y6  1  0.73880800  0.50416500  0.93697200  1
  Y  Y7  1  0.23880800  0.99583500  0.06302800  1
  Y  Y8  1  0.78229200  0.25379400  0.31206500  1
  Y  Y9  1  0.28229200  0.24620600  0.68793500  1
  Y  Y10  1  0.21770800  0.75379400  0.18793500  1
  Y  Y11  1  0.71770800  0.74620600  0.81206500  1
  Y  Y12  1  0.21770800  0.74620600  0.68793500  1
  Y  Y13  1  0.71770800  0.75379400  0.31206500  1
  Y  Y14  1  0.78229200  0.24620600  0.81206500  1
  Y  Y15  1  0.28229200  0.25379400  0.18793500  1
  Ga  Ga16  1  0.70019700  0.02150700  0.18749100  1
  Ga  Ga17  1  0.20019700  0.47849300  0.81250900  1
  Ga  Ga18  1  0.29980300  0.52150700  0.31250900  1
  Ga  Ga19  1  0.79980300  0.97849300  0.68749100  1
  Ga  Ga20  1  0.29980300  0.97849300  0.81250900  1
  Ga  Ga21  1  0.79980300  0.52150700  0.18749100  1
  Ga  Ga22  1  0.70019700  0.47849300  0.68749100  1
  Ga  Ga23  1  0.20019700  0.02150700  0.31250900  1
  Ga  Ga24  1  0.80284500  0.27461600  0.06232800  1
  Ga  Ga25  1  0.30284500  0.22538400  0.93767200  1
  Ga  Ga26  1  0.19715500  0.77461600  0.43767200  1
  Ga  Ga27  1  0.69715500  0.72538400  0.56232800  1
  Ga  Ga28  1  0.19715500  0.72538400  0.93767200  1
  Ga  Ga29  1  0.69715500  0.77461600  0.06232800  1
  Ga  Ga30  1  0.80284500  0.22538400  0.56232800  1
  Ga  Ga31  1  0.30284500  0.27461600  0.43767200  1
  N  N32  1  0.68877400  0.48824100  0.30035300  1
  N  N33  1  0.18877400  0.01175900  0.69964700  1
  N  N34  1  0.31122600  0.98824100  0.19964700  1
  N  N35  1  0.81122600  0.51175900  0.80035300  1
  N  N36  1  0.31122600  0.51175900  0.69964700  1
  N  N37  1  0.81122600  0.98824100  0.30035300  1
  N  N38  1  0.68877400  0.01175900  0.80035300  1
  N  N39  1  0.18877400  0.48824100  0.19964700  1
  N  N40  1  0.69356600  0.25767900  0.44845100  1
  N  N41  1  0.19356600  0.24232100  0.55154900  1
  N  N42  1  0.30643400  0.75767900  0.05154900  1
  N  N43  1  0.80643400  0.74232100  0.94845100  1
  N  N44  1  0.30643400  0.74232100  0.55154900  1
  N  N45  1  0.80643400  0.75767900  0.44845100  1
  N  N46  1  0.69356600  0.24232100  0.94845100  1
  N  N47  1  0.19356600  0.25767900  0.05154900  1
  N  N48  1  0.72734100  0.46897000  0.07438600  1
  N  N49  1  0.22734100  0.03103000  0.92561400  1
  N  N50  1  0.27265900  0.96897000  0.42561400  1
  N  N51  1  0.77265900  0.53103000  0.57438600  1
  N  N52  1  0.27265900  0.53103000  0.92561400  1
  N  N53  1  0.77265900  0.96897000  0.07438600  1
  N  N54  1  0.72734100  0.03103000  0.57438600  1
  N  N55  1  0.22734100  0.46897000  0.42561400  1
  N  N56  1  0.73822500  0.21799400  0.17563400  1
  N  N57  1  0.23822500  0.28200600  0.82436600  1
  N  N58  1  0.26177500  0.71799400  0.32436600  1
  N  N59  1  0.76177500  0.78200600  0.67563400  1
  N  N60  1  0.26177500  0.78200600  0.82436600  1
  N  N61  1  0.76177500  0.71799400  0.17563400  1
  N  N62  1  0.73822500  0.28200600  0.67563400  1
  N  N63  1  0.23822500  0.21799400  0.32436600  1
