# generated using pymatgen
data_Li4MnCo2O7
_symmetry_space_group_name_H-M   'P 1'
_cell_length_a   5.15601450
_cell_length_b   7.75801365
_cell_length_c   7.69016591
_cell_angle_alpha   64.43210520
_cell_angle_beta   83.26102139
_cell_angle_gamma   108.89337960
_symmetry_Int_Tables_number   1
_chemical_formula_structural   Li4MnCo2O7
_chemical_formula_sum   'Li8 Mn2 Co4 O14'
_cell_volume   250.34204588
_cell_formula_units_Z   2
loop_
 _symmetry_equiv_pos_site_id
 _symmetry_equiv_pos_as_xyz
  1  'x, y, z'
loop_
 _atom_site_type_symbol
 _atom_site_label
 _atom_site_symmetry_multiplicity
 _atom_site_fract_x
 _atom_site_fract_y
 _atom_site_fract_z
 _atom_site_occupancy
  Li  Li0  1  0.56686500  0.07174300  0.78394600  1
  Li  Li1  1  0.00449000  0.49966000  0.50182200  1
  Li  Li2  1  0.42927000  0.93850600  0.21591700  1
  Li  Li3  1  0.86557200  0.36087800  0.93241000  1
  Li  Li4  1  0.28576700  0.78572400  0.64285900  1
  Li  Li5  1  0.70580000  0.21048700  0.35328500  1
  Li  Li6  1  0.14212300  0.63292700  0.06978200  1
  Li  Li7  1  0.28574000  0.28575400  0.14286200  1
  Mn  Mn8  1  0.00263000  0.00044600  0.00019300  1
  Mn  Mn9  1  0.56882600  0.57098700  0.28549700  1
  Co  Co10  1  0.42166700  0.42762500  0.72587400  1
  Co  Co11  1  0.85773200  0.86332500  0.42766700  1
  Co  Co12  1  0.71373400  0.70811000  0.85802200  1
  Co  Co13  1  0.14977600  0.14383000  0.55984700  1
  O  O14  1  0.12387100  0.89951600  0.82962400  1
  O  O15  1  0.56407400  0.33965800  0.52541000  1
  O  O16  1  0.97544900  0.75503700  0.24174500  1
  O  O17  1  0.39151600  0.16482200  0.96159000  1
  O  O18  1  0.84489900  0.61364300  0.67137900  1
  O  O19  1  0.26873500  0.03402800  0.40795600  1
  O  O20  1  0.71126500  0.48340600  0.10411100  1
  O  O21  1  0.00735400  0.23175800  0.76030300  1
  O  O22  1  0.44760600  0.67192000  0.45608100  1
  O  O23  1  0.86014200  0.08799200  0.18159800  1
  O  O24  1  0.30259100  0.53739400  0.87777900  1
  O  O25  1  0.72653200  0.95773500  0.61436000  1
  O  O26  1  0.17992500  0.40667700  0.32413900  1
  O  O27  1  0.59604800  0.81641100  0.04394100  1
