# generated using pymatgen
data_Sr3V3N5
_symmetry_space_group_name_H-M   'P 1'
_cell_length_a   5.81456516
_cell_length_b   7.63638217
_cell_length_c   8.60068100
_cell_angle_alpha   109.83639682
_cell_angle_beta   104.31599228
_cell_angle_gamma   99.46425675
_symmetry_Int_Tables_number   1
_chemical_formula_structural   Sr3V3N5
_chemical_formula_sum   'Sr6 V6 N10'
_cell_volume   334.90580015
_cell_formula_units_Z   2
loop_
 _symmetry_equiv_pos_site_id
 _symmetry_equiv_pos_as_xyz
  1  'x, y, z'
loop_
 _atom_site_type_symbol
 _atom_site_label
 _atom_site_symmetry_multiplicity
 _atom_site_fract_x
 _atom_site_fract_y
 _atom_site_fract_z
 _atom_site_occupancy
  Sr  Sr0  1  0.76159200  0.43073200  0.59940500  1
  Sr  Sr1  1  0.23840800  0.56926800  0.40059500  1
  Sr  Sr2  1  0.65411800  0.84737800  0.89090300  1
  Sr  Sr3  1  0.34588200  0.15262200  0.10909700  1
  Sr  Sr4  1  0.67779200  0.68813300  0.22890600  1
  Sr  Sr5  1  0.32220800  0.31186700  0.77109400  1
  V  V6  1  0.90574500  0.31728200  0.96900300  1
  V  V7  1  0.09425500  0.68271800  0.03099700  1
  V  V8  1  0.68526800  0.98938500  0.60208400  1
  V  V9  1  0.31473200  0.01061500  0.39791600  1
  V  V10  1  0.08058200  0.87450400  0.69733100  1
  V  V11  1  0.91941800  0.12549600  0.30266900  1
  N  N12  1  0.98074200  0.10082200  0.81379300  1
  N  N13  1  0.01925800  0.89917800  0.18620700  1
  N  N14  1  0.74353700  0.73666600  0.54246300  1
  N  N15  1  0.25646300  0.26333400  0.45753700  1
  N  N16  1  0.76696600  0.51589600  0.91781700  1
  N  N17  1  0.23303400  0.48410400  0.08218300  1
  N  N18  1  0.34525800  0.94015300  0.60758200  1
  N  N19  1  0.65474200  0.05984700  0.39241800  1
  N  N20  1  0.17627200  0.76537300  0.85850200  1
  N  N21  1  0.82372800  0.23462700  0.14149800  1
