# generated using pymatgen
data_Ba3(TiN2)2
_symmetry_space_group_name_H-M   'P 1'
_cell_length_a   7.78049328
_cell_length_b   9.17712130
_cell_length_c   6.06843582
_cell_angle_alpha   89.99999273
_cell_angle_beta   91.87453309
_cell_angle_gamma   126.13941244
_symmetry_Int_Tables_number   1
_chemical_formula_structural   Ba3(TiN2)2
_chemical_formula_sum   'Ba6 Ti4 N8'
_cell_volume   349.64050471
_cell_formula_units_Z   2
loop_
 _symmetry_equiv_pos_site_id
 _symmetry_equiv_pos_as_xyz
  1  'x, y, z'
loop_
 _atom_site_type_symbol
 _atom_site_label
 _atom_site_symmetry_multiplicity
 _atom_site_fract_x
 _atom_site_fract_y
 _atom_site_fract_z
 _atom_site_occupancy
  Ba  Ba0  1  0.24072000  0.98339300  0.05821500  1
  Ba  Ba1  1  0.75928000  0.74267300  0.44178500  1
  Ba  Ba2  1  0.75928000  0.01660700  0.94178500  1
  Ba  Ba3  1  0.24072000  0.25732700  0.55821500  1
  Ba  Ba4  1  0.00000000  0.59868700  0.75000000  1
  Ba  Ba5  1  0.00000000  0.40131300  0.25000000  1
  Ti  Ti6  1  0.58366000  0.17538300  0.57000400  1
  Ti  Ti7  1  0.41634000  0.59172200  0.92999600  1
  Ti  Ti8  1  0.41634000  0.82461700  0.42999600  1
  Ti  Ti9  1  0.58366000  0.40827800  0.07000400  1
  N  N10  1  0.29427400  0.95662700  0.52011800  1
  N  N11  1  0.70572600  0.66235300  0.97988200  1
  N  N12  1  0.70572600  0.04337300  0.47988200  1
  N  N13  1  0.29427400  0.33764700  0.02011800  1
  N  N14  1  0.63366200  0.26289500  0.87936400  1
  N  N15  1  0.36633800  0.62923300  0.62063600  1
  N  N16  1  0.36633800  0.73710500  0.12063600  1
  N  N17  1  0.63366200  0.37076700  0.37936400  1
