# generated using pymatgen
data_Sr5NiN4
_symmetry_space_group_name_H-M   'P 1'
_cell_length_a   9.60355154
_cell_length_b   16.18946987
_cell_length_c   12.35575759
_cell_angle_alpha   90.00000000
_cell_angle_beta   103.96201331
_cell_angle_gamma   90.00000000
_symmetry_Int_Tables_number   1
_chemical_formula_structural   Sr5NiN4
_chemical_formula_sum   'Sr40 Ni8 N32'
_cell_volume   1864.27375524
_cell_formula_units_Z   8
loop_
 _symmetry_equiv_pos_site_id
 _symmetry_equiv_pos_as_xyz
  1  'x, y, z'
loop_
 _atom_site_type_symbol
 _atom_site_label
 _atom_site_symmetry_multiplicity
 _atom_site_fract_x
 _atom_site_fract_y
 _atom_site_fract_z
 _atom_site_occupancy
  Sr  Sr0  1  0.43702588  0.75000000  0.73346626  1
  Sr  Sr1  1  0.56297412  0.25000000  0.26653374  1
  Sr  Sr2  1  0.56053920  0.75000000  0.24532849  1
  Sr  Sr3  1  0.43946080  0.25000000  0.75467151  1
  Sr  Sr4  1  0.10184164  0.62695497  0.82992344  1
  Sr  Sr5  1  0.89815836  0.12695497  0.17007656  1
  Sr  Sr6  1  0.89815836  0.37304503  0.17007656  1
  Sr  Sr7  1  0.10184164  0.87304503  0.82992344  1
  Sr  Sr8  1  0.70758385  0.35768623  0.63949643  1
  Sr  Sr9  1  0.29241615  0.85768623  0.36050357  1
  Sr  Sr10  1  0.29241615  0.64231377  0.36050357  1
  Sr  Sr11  1  0.70758385  0.14231377  0.63949643  1
  Sr  Sr12  1  0.82368298  0.25000000  0.89964285  1
  Sr  Sr13  1  0.17631702  0.75000000  0.10035715  1
  Sr  Sr14  1  0.19770140  0.50612903  0.07275250  1
  Sr  Sr15  1  0.80229860  0.00612903  0.92724750  1
  Sr  Sr16  1  0.80229860  0.49387097  0.92724750  1
  Sr  Sr17  1  0.19770140  0.99387097  0.07275250  1
  Sr  Sr18  1  0.00000000  0.50000000  0.50000000  1
  Sr  Sr19  1  0.00000000  0.00000000  0.50000000  1
  Sr  Sr20  1  0.48176614  0.38295506  0.99414392  1
  Sr  Sr21  1  0.51823386  0.88295506  0.00585608  1
  Sr  Sr22  1  0.51823386  0.61704494  0.00585608  1
  Sr  Sr23  1  0.48176614  0.11704494  0.99414392  1
  Sr  Sr24  1  0.11543134  0.36968930  0.82782645  1
  Sr  Sr25  1  0.88456866  0.86968930  0.17217355  1
  Sr  Sr26  1  0.88456866  0.63031070  0.17217355  1
  Sr  Sr27  1  0.11543134  0.13031070  0.82782645  1
  Sr  Sr28  1  0.73020759  0.64678119  0.65471737  1
  Sr  Sr29  1  0.26979241  0.14678119  0.34528263  1
  Sr  Sr30  1  0.26979241  0.35321881  0.34528263  1
  Sr  Sr31  1  0.73020759  0.85321881  0.65471737  1
  Sr  Sr32  1  0.79690903  0.75000000  0.92312473  1
  Sr  Sr33  1  0.20309097  0.25000000  0.07687527  1
  Sr  Sr34  1  0.55813272  0.49543899  0.25345057  1
  Sr  Sr35  1  0.44186728  0.99543899  0.74654943  1
  Sr  Sr36  1  0.44186728  0.50456101  0.74654943  1
  Sr  Sr37  1  0.55813272  0.00456101  0.25345057  1
  Sr  Sr38  1  0.04573015  0.25000000  0.51014124  1
  Sr  Sr39  1  0.95426985  0.75000000  0.48985876  1
  Ni  Ni40  1  0.88564261  0.49791589  0.68000711  1
  Ni  Ni41  1  0.11435739  0.99791589  0.31999289  1
  Ni  Ni42  1  0.11435739  0.50208411  0.31999289  1
  Ni  Ni43  1  0.88564261  0.00208411  0.68000711  1
  Ni  Ni44  1  0.51815365  0.75000000  0.49204069  1
  Ni  Ni45  1  0.48184635  0.25000000  0.50795931  1
  Ni  Ni46  1  0.68311908  0.25000000  0.08037292  1
  Ni  Ni47  1  0.31688092  0.75000000  0.91962708  1
  N  N48  1  0.90530932  0.25000000  0.66926993  1
  N  N49  1  0.09469068  0.75000000  0.33073007  1
  N  N50  1  0.94843935  0.75000000  0.70053270  1
  N  N51  1  0.05156065  0.25000000  0.29946730  1
  N  N52  1  0.40015361  0.36741861  0.19366830  1
  N  N53  1  0.59984639  0.86741861  0.80633170  1
  N  N54  1  0.59984639  0.63258139  0.80633170  1
  N  N55  1  0.40015361  0.13258139  0.19366830  1
  N  N56  1  0.29655668  0.49814607  0.89229824  1
  N  N57  1  0.70344332  0.99814607  0.10770176  1
  N  N58  1  0.70344332  0.50185393  0.10770176  1
  N  N59  1  0.29655668  0.00185393  0.89229824  1
  N  N60  1  0.73992789  0.50952036  0.55207620  1
  N  N61  1  0.26007211  0.00952036  0.44792380  1
  N  N62  1  0.26007211  0.49047964  0.44792380  1
  N  N63  1  0.73992789  0.99047964  0.55207620  1
  N  N64  1  0.61327815  0.37770288  0.80794045  1
  N  N65  1  0.38672185  0.87770288  0.19205955  1
  N  N66  1  0.38672185  0.62229712  0.19205955  1
  N  N67  1  0.61327815  0.12229712  0.80794045  1
  N  N68  1  0.99915922  0.62598735  0.00298216  1
  N  N69  1  0.00084078  0.12598735  0.99701784  1
  N  N70  1  0.00084078  0.37401265  0.99701784  1
  N  N71  1  0.99915922  0.87401265  0.00298216  1
  N  N72  1  0.70959537  0.75000000  0.10536660  1
  N  N73  1  0.29040463  0.25000000  0.89463340  1
  N  N74  1  0.72488066  0.47408501  0.46271480  1
  N  N75  1  0.27511934  0.97408501  0.53728520  1
  N  N76  1  0.27511934  0.52591499  0.53728520  1
  N  N77  1  0.72488066  0.02591499  0.46271480  1
  N  N78  1  0.68755323  0.75000000  0.47135975  1
  N  N79  1  0.31244677  0.25000000  0.52864025  1
