# generated using pymatgen
data_DyMgWS4
_symmetry_space_group_name_H-M   'P 1'
_cell_length_a   7.65713205
_cell_length_b   7.60893886
_cell_length_c   7.60611792
_cell_angle_alpha   59.75849112
_cell_angle_beta   59.77625905
_cell_angle_gamma   59.79056195
_symmetry_Int_Tables_number   1
_chemical_formula_structural   DyMgWS4
_chemical_formula_sum   'Dy2 Mg2 W2 S8'
_cell_volume   311.75611366
_cell_formula_units_Z   2
loop_
 _symmetry_equiv_pos_site_id
 _symmetry_equiv_pos_as_xyz
  1  'x, y, z'
loop_
 _atom_site_type_symbol
 _atom_site_label
 _atom_site_symmetry_multiplicity
 _atom_site_fract_x
 _atom_site_fract_y
 _atom_site_fract_z
 _atom_site_occupancy
  Dy  Dy0  1  0.50000200  0.50000900  0.49998300  1
  Dy  Dy1  1  0.00000600  0.49998800  0.50000600  1
  Mg  Mg2  1  0.87614700  0.87375300  0.87401600  1
  Mg  Mg3  1  0.12382800  0.12627500  0.12601100  1
  W  W4  1  0.50000300  0.50000600  0.99998900  1
  W  W5  1  0.50000300  0.99999100  0.50000900  1
  S  S6  1  0.71551200  0.75420800  0.75423500  1
  S  S7  1  0.26726400  0.23242500  0.73302100  1
  S  S8  1  0.26737100  0.73278700  0.23244700  1
  S  S9  1  0.72390200  0.24579200  0.24579000  1
  S  S10  1  0.73261700  0.26722600  0.76753000  1
  S  S11  1  0.27607200  0.75419800  0.75419700  1
  S  S12  1  0.28452100  0.24577300  0.24577400  1
  S  S13  1  0.73275800  0.76756200  0.26699300  1
