# generated using pymatgen
data_K2IrN2
_symmetry_space_group_name_H-M   'P 1'
_cell_length_a   3.37984800
_cell_length_b   4.69519400
_cell_length_c   7.38448396
_cell_angle_alpha   108.53654237
_cell_angle_beta   103.22926308
_cell_angle_gamma   90.00000000
_symmetry_Int_Tables_number   1
_chemical_formula_structural   K2IrN2
_chemical_formula_sum   'K2 Ir1 N2'
_cell_volume   107.82023845
_cell_formula_units_Z   1
loop_
 _symmetry_equiv_pos_site_id
 _symmetry_equiv_pos_as_xyz
  1  'x, y, z'
loop_
 _atom_site_type_symbol
 _atom_site_label
 _atom_site_symmetry_multiplicity
 _atom_site_fract_x
 _atom_site_fract_y
 _atom_site_fract_z
 _atom_site_occupancy
  K  K0  1  0.84744800  0.84744800  0.19489600  1
  K  K1  1  0.15255200  0.15255200  0.80510400  1
  Ir  Ir2  1  0.50000000  0.50000000  0.50000000  1
  N  N3  1  0.36824100  0.36824100  0.23648400  1
  N  N4  1  0.63175900  0.63175900  0.76351600  1
