# generated using pymatgen
data_Sr3(BiN2)2
_symmetry_space_group_name_H-M   'P 1'
_cell_length_a   8.53077539
_cell_length_b   12.48021718
_cell_length_c   5.58893487
_cell_angle_alpha   89.99999920
_cell_angle_beta   96.61584115
_cell_angle_gamma   137.01078821
_symmetry_Int_Tables_number   1
_chemical_formula_structural   Sr3(BiN2)2
_chemical_formula_sum   'Sr6 Bi4 N8'
_cell_volume   399.89465595
_cell_formula_units_Z   2
loop_
 _symmetry_equiv_pos_site_id
 _symmetry_equiv_pos_as_xyz
  1  'x, y, z'
loop_
 _atom_site_type_symbol
 _atom_site_label
 _atom_site_symmetry_multiplicity
 _atom_site_fract_x
 _atom_site_fract_y
 _atom_site_fract_z
 _atom_site_occupancy
  Sr  Sr0  1  0.22047600  0.01169900  0.06249100  1
  Sr  Sr1  1  0.77952400  0.79122300  0.43750900  1
  Sr  Sr2  1  0.77952400  0.98830100  0.93750900  1
  Sr  Sr3  1  0.22047600  0.20877700  0.56249100  1
  Sr  Sr4  1  0.00000000  0.66958100  0.75000000  1
  Sr  Sr5  1  0.00000000  0.33041900  0.25000000  1
  Bi  Bi6  1  0.60624200  0.20186200  0.65599400  1
  Bi  Bi7  1  0.39375800  0.59562100  0.84400600  1
  Bi  Bi8  1  0.39375800  0.79813800  0.34400600  1
  Bi  Bi9  1  0.60624200  0.40437900  0.15599400  1
  N  N10  1  0.22289800  0.00251100  0.57790400  1
  N  N11  1  0.77710200  0.77961300  0.92209600  1
  N  N12  1  0.77710200  0.99748900  0.42209600  1
  N  N13  1  0.22289800  0.22038700  0.07790400  1
  N  N14  1  0.65664700  0.25674200  0.05624100  1
  N  N15  1  0.34335300  0.60009500  0.44375900  1
  N  N16  1  0.34335300  0.74325800  0.94375900  1
  N  N17  1  0.65664700  0.39990500  0.55624100  1
