# generated using pymatgen
data_Sr3AlN3
_symmetry_space_group_name_H-M   'P 1'
_cell_length_a   7.66149400
_cell_length_b   7.66133452
_cell_length_c   5.39585700
_cell_angle_alpha   90.00000000
_cell_angle_beta   90.00000000
_cell_angle_gamma   120.00109662
_symmetry_Int_Tables_number   1
_chemical_formula_structural   Sr3AlN3
_chemical_formula_sum   'Sr6 Al2 N6'
_cell_volume   274.28632473
_cell_formula_units_Z   2
loop_
 _symmetry_equiv_pos_site_id
 _symmetry_equiv_pos_as_xyz
  1  'x, y, z'
loop_
 _atom_site_type_symbol
 _atom_site_label
 _atom_site_symmetry_multiplicity
 _atom_site_fract_x
 _atom_site_fract_y
 _atom_site_fract_z
 _atom_site_occupancy
  Sr  Sr0  1  0.92782200  0.64065500  0.25000000  1
  Sr  Sr1  1  0.71283300  0.07217700  0.25000000  1
  Sr  Sr2  1  0.35934500  0.28716700  0.25000000  1
  Sr  Sr3  1  0.07217800  0.35934500  0.75000000  1
  Sr  Sr4  1  0.28716700  0.92782300  0.75000000  1
  Sr  Sr5  1  0.64065500  0.71283300  0.75000000  1
  Al  Al6  1  0.66666200  0.33333000  0.75000000  1
  Al  Al7  1  0.33333800  0.66667000  0.25000000  1
  N  N8  1  0.89393100  0.58951000  0.75000000  1
  N  N9  1  0.69558000  0.10607100  0.75000000  1
  N  N10  1  0.41049200  0.30442000  0.75000000  1
  N  N11  1  0.10606900  0.41049000  0.25000000  1
  N  N12  1  0.30442000  0.89392900  0.25000000  1
  N  N13  1  0.58950800  0.69558000  0.25000000  1
