# generated using pymatgen
data_Na3YN2
_symmetry_space_group_name_H-M   'P 1'
_cell_length_a   7.48480742
_cell_length_b   12.41196300
_cell_length_c   6.56530915
_cell_angle_alpha   90.00000000
_cell_angle_beta   118.17943947
_cell_angle_gamma   90.00000000
_symmetry_Int_Tables_number   1
_chemical_formula_structural   Na3YN2
_chemical_formula_sum   'Na12 Y4 N8'
_cell_volume   537.63221459
_cell_formula_units_Z   4
loop_
 _symmetry_equiv_pos_site_id
 _symmetry_equiv_pos_as_xyz
  1  'x, y, z'
loop_
 _atom_site_type_symbol
 _atom_site_label
 _atom_site_symmetry_multiplicity
 _atom_site_fract_x
 _atom_site_fract_y
 _atom_site_fract_z
 _atom_site_occupancy
  Na  Na0  1  0.22209300  0.07327700  0.03784000  1
  Na  Na1  1  0.77790700  0.57327700  0.46216000  1
  Na  Na2  1  0.77790700  0.92672300  0.96216000  1
  Na  Na3  1  0.22209300  0.42672300  0.53784000  1
  Na  Na4  1  0.32679200  0.53709400  0.04990900  1
  Na  Na5  1  0.67320800  0.03709400  0.45009100  1
  Na  Na6  1  0.67320800  0.46290600  0.95009100  1
  Na  Na7  1  0.32679200  0.96290600  0.54990900  1
  Na  Na8  1  0.03551400  0.31072800  0.81833500  1
  Na  Na9  1  0.96448600  0.81072800  0.68166500  1
  Na  Na10  1  0.96448600  0.68927200  0.18166500  1
  Na  Na11  1  0.03551400  0.18927200  0.31833500  1
  Y  Y12  1  0.51913300  0.20092700  0.79750600  1
  Y  Y13  1  0.48086700  0.70092700  0.70249400  1
  Y  Y14  1  0.48086700  0.79907300  0.20249400  1
  Y  Y15  1  0.51913300  0.29907300  0.29750600  1
  N  N16  1  0.60721700  0.83311200  0.57517700  1
  N  N17  1  0.39278300  0.33311200  0.92482300  1
  N  N18  1  0.39278300  0.16688800  0.42482300  1
  N  N19  1  0.60721700  0.66688800  0.07517700  1
  N  N20  1  0.48054200  0.54554300  0.52951300  1
  N  N21  1  0.51945800  0.04554300  0.97048700  1
  N  N22  1  0.51945800  0.45445700  0.47048700  1
  N  N23  1  0.48054200  0.95445700  0.02951300  1
