# generated using pymatgen
data_Ba3(WN2)2
_symmetry_space_group_name_H-M   'P 1'
_cell_length_a   6.26108600
_cell_length_b   10.91032900
_cell_length_c   10.43960200
_cell_angle_alpha   90.00000000
_cell_angle_beta   90.00000000
_cell_angle_gamma   90.00000000
_symmetry_Int_Tables_number   1
_chemical_formula_structural   Ba3(WN2)2
_chemical_formula_sum   'Ba12 W8 N16'
_cell_volume   713.13451758
_cell_formula_units_Z   4
loop_
 _symmetry_equiv_pos_site_id
 _symmetry_equiv_pos_as_xyz
  1  'x, y, z'
loop_
 _atom_site_type_symbol
 _atom_site_label
 _atom_site_symmetry_multiplicity
 _atom_site_fract_x
 _atom_site_fract_y
 _atom_site_fract_z
 _atom_site_occupancy
  Ba  Ba0  1  0.62392700  0.15922400  0.41873600  1
  Ba  Ba1  1  0.87607300  0.84077600  0.41873600  1
  Ba  Ba2  1  0.62392700  0.34077600  0.08126400  1
  Ba  Ba3  1  0.87607300  0.65922400  0.08126400  1
  Ba  Ba4  1  0.37607300  0.84077600  0.58126400  1
  Ba  Ba5  1  0.12392700  0.15922400  0.58126400  1
  Ba  Ba6  1  0.37607300  0.65922400  0.91873600  1
  Ba  Ba7  1  0.12392700  0.34077600  0.91873600  1
  Ba  Ba8  1  0.75000000  0.50000000  0.40171400  1
  Ba  Ba9  1  0.75000000  0.00000000  0.09828600  1
  Ba  Ba10  1  0.25000000  0.50000000  0.59828600  1
  Ba  Ba11  1  0.25000000  0.00000000  0.90171400  1
  W  W12  1  0.75000000  0.50000000  0.73695000  1
  W  W13  1  0.75000000  0.00000000  0.76305000  1
  W  W14  1  0.25000000  0.50000000  0.26305000  1
  W  W15  1  0.25000000  0.00000000  0.23695000  1
  W  W16  1  0.64099700  0.25000000  0.75000000  1
  W  W17  1  0.85900300  0.75000000  0.75000000  1
  W  W18  1  0.35900300  0.75000000  0.25000000  1
  W  W19  1  0.14099700  0.25000000  0.25000000  1
  N  N20  1  0.83588300  0.35036900  0.63809600  1
  N  N21  1  0.66411700  0.64963100  0.63809600  1
  N  N22  1  0.83588300  0.14963100  0.86190400  1
  N  N23  1  0.66411700  0.85036900  0.86190400  1
  N  N24  1  0.16411700  0.64963100  0.36190400  1
  N  N25  1  0.33588300  0.35036900  0.36190400  1
  N  N26  1  0.16411700  0.85036900  0.13809600  1
  N  N27  1  0.33588300  0.14963100  0.13809600  1
  N  N28  1  0.52579200  0.41159200  0.83155700  1
  N  N29  1  0.97420800  0.58840800  0.83155700  1
  N  N30  1  0.52579200  0.08840800  0.66844300  1
  N  N31  1  0.97420800  0.91159200  0.66844300  1
  N  N32  1  0.47420800  0.58840800  0.16844300  1
  N  N33  1  0.02579200  0.41159200  0.16844300  1
  N  N34  1  0.47420800  0.91159200  0.33155700  1
  N  N35  1  0.02579200  0.08840800  0.33155700  1
