# generated using pymatgen
data_Ca2PbN2
_symmetry_space_group_name_H-M   'P 1'
_cell_length_a   4.04352307
_cell_length_b   4.04427382
_cell_length_c   6.71422901
_cell_angle_alpha   89.99362714
_cell_angle_beta   90.00084111
_cell_angle_gamma   120.01450499
_symmetry_Int_Tables_number   1
_chemical_formula_structural   Ca2PbN2
_chemical_formula_sum   'Ca2 Pb1 N2'
_cell_volume   95.07443656
_cell_formula_units_Z   1
loop_
 _symmetry_equiv_pos_site_id
 _symmetry_equiv_pos_as_xyz
  1  'x, y, z'
loop_
 _atom_site_type_symbol
 _atom_site_label
 _atom_site_symmetry_multiplicity
 _atom_site_fract_x
 _atom_site_fract_y
 _atom_site_fract_z
 _atom_site_occupancy
  Ca  Ca0  1  0.66666600  0.33336900  0.15891900  1
  Ca  Ca1  1  0.33333400  0.66663100  0.84108100  1
  Pb  Pb2  1  0.00000000  0.00000000  0.50000000  1
  N  N3  1  0.66670500  0.33336500  0.77203500  1
  N  N4  1  0.33329500  0.66663500  0.22796500  1
