# generated using pymatgen
data_Fe3Pb3N5
_symmetry_space_group_name_H-M   'P 1'
_cell_length_a   5.66034180
_cell_length_b   7.51218945
_cell_length_c   8.25520944
_cell_angle_alpha   105.72167285
_cell_angle_beta   101.36769374
_cell_angle_gamma   95.41530488
_symmetry_Int_Tables_number   1
_chemical_formula_structural   Fe3Pb3N5
_chemical_formula_sum   'Fe6 Pb6 N10'
_cell_volume   327.17670810
_cell_formula_units_Z   2
loop_
 _symmetry_equiv_pos_site_id
 _symmetry_equiv_pos_as_xyz
  1  'x, y, z'
loop_
 _atom_site_type_symbol
 _atom_site_label
 _atom_site_symmetry_multiplicity
 _atom_site_fract_x
 _atom_site_fract_y
 _atom_site_fract_z
 _atom_site_occupancy
  Fe  Fe0  1  0.92485200  0.32311700  0.98038800  1
  Fe  Fe1  1  0.07514800  0.67688300  0.01961200  1
  Fe  Fe2  1  0.68274700  0.98595400  0.59275900  1
  Fe  Fe3  1  0.31725300  0.01404600  0.40724100  1
  Fe  Fe4  1  0.10056500  0.93591100  0.73068000  1
  Fe  Fe5  1  0.89943500  0.06408900  0.26932000  1
  Pb  Pb6  1  0.76808400  0.45669100  0.57716400  1
  Pb  Pb7  1  0.23191600  0.54330900  0.42283600  1
  Pb  Pb8  1  0.61409000  0.82588500  0.87617600  1
  Pb  Pb9  1  0.38591000  0.17411500  0.12382400  1
  Pb  Pb10  1  0.67454900  0.65386800  0.22967100  1
  Pb  Pb11  1  0.32545100  0.34613200  0.77032900  1
  N  N12  1  0.93092200  0.14962300  0.77919000  1
  N  N13  1  0.06907800  0.85037700  0.22081000  1
  N  N14  1  0.82990300  0.78630000  0.58943600  1
  N  N15  1  0.17009700  0.21370000  0.41056400  1
  N  N16  1  0.77223800  0.52184900  0.92712300  1
  N  N17  1  0.22776200  0.47815100  0.07287700  1
  N  N18  1  0.35447000  0.96579100  0.61691500  1
  N  N19  1  0.64553000  0.03420900  0.38308500  1
  N  N20  1  0.15677900  0.80729900  0.88768000  1
  N  N21  1  0.84322100  0.19270100  0.11232000  1
