# generated using pymatgen
data_Li4MnCo2O7
_symmetry_space_group_name_H-M   'P 1'
_cell_length_a   5.93342495
_cell_length_b   6.56909295
_cell_length_c   7.78150162
_cell_angle_alpha   115.56903644
_cell_angle_beta   111.91147099
_cell_angle_gamma   76.09760630
_symmetry_Int_Tables_number   1
_chemical_formula_structural   Li4MnCo2O7
_chemical_formula_sum   'Li8 Mn2 Co4 O14'
_cell_volume   252.69408019
_cell_formula_units_Z   2
loop_
 _symmetry_equiv_pos_site_id
 _symmetry_equiv_pos_as_xyz
  1  'x, y, z'
loop_
 _atom_site_type_symbol
 _atom_site_label
 _atom_site_symmetry_multiplicity
 _atom_site_fract_x
 _atom_site_fract_y
 _atom_site_fract_z
 _atom_site_occupancy
  Li  Li0  1  0.21006600  0.43049300  0.13885300  1
  Li  Li1  1  0.92857100  0.85714300  0.28571400  1
  Li  Li2  1  0.64707700  0.28379200  0.43257500  1
  Li  Li3  1  0.35471400  0.71561400  0.56103500  1
  Li  Li4  1  0.06883900  0.14705400  0.71175900  1
  Li  Li5  1  0.78830400  0.56723200  0.85967000  1
  Li  Li6  1  0.50242900  0.99867200  0.01039400  1
  Li  Li7  1  0.42857100  0.85714300  0.28571400  1
  Mn  Mn8  1  0.00098000  0.00067700  0.00017300  1
  Mn  Mn9  1  0.85616300  0.71360900  0.57125600  1
  Co  Co10  1  0.70661800  0.44305100  0.14408600  1
  Co  Co11  1  0.15052500  0.27123400  0.42734200  1
  Co  Co12  1  0.56747100  0.14270600  0.70849700  1
  Co  Co13  1  0.28967200  0.57158000  0.86293200  1
  O  O14  1  0.88873500  0.26643000  0.93218900  1
  O  O15  1  0.60985400  0.69467200  0.07071300  1
  O  O16  1  0.28656700  0.13645800  0.19616900  1
  O  O17  1  0.02686400  0.57182800  0.37314300  1
  O  O18  1  0.74782600  0.99345300  0.51847900  1
  O  O19  1  0.45155800  0.42900300  0.64831300  1
  O  O20  1  0.15247600  0.85452600  0.78575400  1
  O  O21  1  0.57057600  0.57782700  0.37525900  1
  O  O22  1  0.24728800  0.01961400  0.50071500  1
  O  O23  1  0.96840800  0.44785500  0.63923900  1
  O  O24  1  0.70466700  0.85976000  0.78567500  1
  O  O25  1  0.40558500  0.28528300  0.92311600  1
  O  O26  1  0.10931700  0.72083300  0.05295000  1
  O  O27  1  0.83027900  0.14245800  0.19828600  1
