# generated using pymatgen
data_HfCrAgS4
_symmetry_space_group_name_H-M   'P 1'
_cell_length_a   14.12012619
_cell_length_b   3.51344083
_cell_length_c   6.00966331
_cell_angle_alpha   90.00000000
_cell_angle_beta   113.78012176
_cell_angle_gamma   90.00000000
_symmetry_Int_Tables_number   1
_chemical_formula_structural   HfCrAgS4
_chemical_formula_sum   'Hf2 Cr2 Ag2 S8'
_cell_volume   272.82850150
_cell_formula_units_Z   2
loop_
 _symmetry_equiv_pos_site_id
 _symmetry_equiv_pos_as_xyz
  1  'x, y, z'
loop_
 _atom_site_type_symbol
 _atom_site_label
 _atom_site_symmetry_multiplicity
 _atom_site_fract_x
 _atom_site_fract_y
 _atom_site_fract_z
 _atom_site_occupancy
  Hf  Hf0  1  0.75276856  0.00000000  0.75607136  1
  Hf  Hf1  1  0.74723144  0.50000000  0.24392864  1
  Cr  Cr2  1  0.24772652  0.00000000  0.19407346  1
  Cr  Cr3  1  0.25227348  0.50000000  0.80592654  1
  Ag  Ag4  1  0.01918401  0.50000000  0.50725594  1
  Ag  Ag5  1  0.48081599  -0.00000000  0.49274406  1
  S  S6  1  0.13897139  0.50000000  0.99085039  1
  S  S7  1  0.87108954  0.50000000  0.03082621  1
  S  S8  1  0.62891046  -0.00000000  0.96917379  1
  S  S9  1  0.36102861  -0.00000000  0.00914961  1
  S  S10  1  0.16323748  -0.00000000  0.50443932  1
  S  S11  1  0.86822736  -0.00000000  0.52721987  1
  S  S12  1  0.63177264  0.50000000  0.47278013  1
  S  S13  1  0.33676252  0.50000000  0.49556068  1
