# generated using pymatgen
data_Ca3(SbN2)2
_symmetry_space_group_name_H-M   'P 1'
_cell_length_a   8.14418668
_cell_length_b   12.15595600
_cell_length_c   5.19565450
_cell_angle_alpha   89.99999878
_cell_angle_beta   96.56266473
_cell_angle_gamma   138.27057678
_symmetry_Int_Tables_number   1
_chemical_formula_structural   Ca3(SbN2)2
_chemical_formula_sum   'Ca6 Sb4 N8'
_cell_volume   337.28803845
_cell_formula_units_Z   2
loop_
 _symmetry_equiv_pos_site_id
 _symmetry_equiv_pos_as_xyz
  1  'x, y, z'
loop_
 _atom_site_type_symbol
 _atom_site_label
 _atom_site_symmetry_multiplicity
 _atom_site_fract_x
 _atom_site_fract_y
 _atom_site_fract_z
 _atom_site_occupancy
  Ca  Ca0  1  0.21482900  0.01234400  0.06023900  1
  Ca  Ca1  1  0.78517100  0.79751500  0.43976100  1
  Ca  Ca2  1  0.78517100  0.98765600  0.93976100  1
  Ca  Ca3  1  0.21482900  0.20248500  0.56023900  1
  Ca  Ca4  1  0.00000000  0.67222400  0.75000000  1
  Ca  Ca5  1  0.00000000  0.32777600  0.25000000  1
  Sb  Sb6  1  0.61346800  0.20930200  0.66025000  1
  Sb  Sb7  1  0.38653200  0.59583300  0.83975000  1
  Sb  Sb8  1  0.38653200  0.79069800  0.33975000  1
  Sb  Sb9  1  0.61346800  0.40416700  0.16025000  1
  N  N10  1  0.22689500  0.00715900  0.57490900  1
  N  N11  1  0.77310500  0.78026400  0.92509100  1
  N  N12  1  0.77310500  0.99284100  0.42509100  1
  N  N13  1  0.22689500  0.21973600  0.07490900  1
  N  N14  1  0.65875200  0.25905300  0.06477500  1
  N  N15  1  0.34124800  0.60030100  0.43522500  1
  N  N16  1  0.34124800  0.74094700  0.93522500  1
  N  N17  1  0.65875200  0.39969900  0.56477500  1
