# generated using pymatgen
data_Na3Re2N5
_symmetry_space_group_name_H-M   'P 1'
_cell_length_a   9.90732352
_cell_length_b   12.60120415
_cell_length_c   8.66305445
_cell_angle_alpha   90.00023871
_cell_angle_beta   64.07405205
_cell_angle_gamma   129.48938612
_symmetry_Int_Tables_number   1
_chemical_formula_structural   Na3Re2N5
_chemical_formula_sum   'Na12 Re8 N20'
_cell_volume   687.80413647
_cell_formula_units_Z   4
loop_
 _symmetry_equiv_pos_site_id
 _symmetry_equiv_pos_as_xyz
  1  'x, y, z'
loop_
 _atom_site_type_symbol
 _atom_site_label
 _atom_site_symmetry_multiplicity
 _atom_site_fract_x
 _atom_site_fract_y
 _atom_site_fract_z
 _atom_site_occupancy
  Na  Na0  1  0.55489700  0.67978200  0.94494000  1
  Na  Na1  1  0.44510700  0.32022300  0.49983000  1
  Na  Na2  1  0.80466200  0.62488200  0.07004800  1
  Na  Na3  1  0.19533800  0.37511500  0.87472200  1
  Na  Na4  1  0.61745100  0.23633300  0.77233700  1
  Na  Na5  1  0.38253700  0.76366600  0.38979200  1
  Na  Na6  1  0.85520800  0.11888100  0.40345200  1
  Na  Na7  1  0.14479600  0.88112200  0.25865500  1
  Na  Na8  1  0.99999900  0.00000300  0.57469300  1
  Na  Na9  1  0.00000200  0.50000100  0.82468100  1
  Na  Na10  1  0.99999800  0.50000200  0.24867500  1
  Na  Na11  1  0.00000000  0.00000400  0.99865700  1
  Re  Re12  1  0.22276800  0.44141500  0.44072000  1
  Re  Re13  1  0.77721600  0.55857700  0.66348600  1
  Re  Re14  1  0.66006500  0.71864300  0.47207500  1
  Re  Re15  1  0.33994600  0.28136500  0.13211500  1
  Re  Re16  1  0.41003500  0.79251400  0.77461900  1
  Re  Re17  1  0.58996000  0.20748000  0.18466100  1
  Re  Re18  1  0.17498900  0.88246900  0.64213900  1
  Re  Re19  1  0.82500400  0.11751700  0.81714300  1
  N  N20  1  0.27308000  0.56570700  0.27762900  1
  N  N21  1  0.72691500  0.43428500  0.55071300  1
  N  N22  1  0.85832800  0.79262000  0.23500000  1
  N  N23  1  0.14166200  0.20737100  0.09335100  1
  N  N24  1  0.95581800  0.84966100  0.81063900  1
  N  N25  1  0.04419300  0.15034100  0.76644900  1
  N  N26  1  0.74350300  0.39384900  0.16678800  1
  N  N27  1  0.25649200  0.60614800  0.91031500  1
  N  N28  1  0.30301600  0.34070400  0.32871700  1
  N  N29  1  0.69700100  0.65930400  0.63173100  1
  N  N30  1  0.37839900  0.53769000  0.54101900  1
  N  N31  1  0.62161500  0.46230900  0.91942100  1
  N  N32  1  0.24705200  0.81793900  0.77018500  1
  N  N33  1  0.75294200  0.18205700  0.01723600  1
  N  N34  1  0.38883400  0.07089000  0.44927700  1
  N  N35  1  0.61117200  0.92911600  0.83813000  1
  N  N36  1  0.60157800  0.83926300  0.52714800  1
  N  N37  1  0.39842900  0.16075200  0.12873000  1
  N  N38  1  0.07693700  0.73768500  0.53947200  1
  N  N39  1  0.92305300  0.26231600  0.61641000  1
