# generated using pymatgen
data_ZrCrCuS4
_symmetry_space_group_name_H-M   'P 1'
_cell_length_a   7.03718600
_cell_length_b   7.08351800
_cell_length_c   12.13292400
_cell_angle_alpha   90.00000000
_cell_angle_beta   90.00000000
_cell_angle_gamma   90.00000000
_symmetry_Int_Tables_number   1
_chemical_formula_structural   ZrCrCuS4
_chemical_formula_sum   'Zr4 Cr4 Cu4 S16'
_cell_volume   604.80240444
_cell_formula_units_Z   4
loop_
 _symmetry_equiv_pos_site_id
 _symmetry_equiv_pos_as_xyz
  1  'x, y, z'
loop_
 _atom_site_type_symbol
 _atom_site_label
 _atom_site_symmetry_multiplicity
 _atom_site_fract_x
 _atom_site_fract_y
 _atom_site_fract_z
 _atom_site_occupancy
  Zr  Zr0  1  0.99206600  0.75000000  0.31997100  1
  Zr  Zr1  1  0.00793400  0.25000000  0.68002900  1
  Zr  Zr2  1  0.50793400  0.25000000  0.81997100  1
  Zr  Zr3  1  0.49206600  0.75000000  0.18002900  1
  Cr  Cr4  1  0.13565800  0.25000000  0.93119600  1
  Cr  Cr5  1  0.86434100  0.75000000  0.06880400  1
  Cr  Cr6  1  0.36434100  0.75000000  0.43119600  1
  Cr  Cr7  1  0.63565900  0.25000000  0.56880400  1
  Cu  Cu8  1  0.21481400  0.25000000  0.39966700  1
  Cu  Cu9  1  0.78518600  0.75000000  0.60033300  1
  Cu  Cu10  1  0.28518600  0.75000000  0.89966700  1
  Cu  Cu11  1  0.71481400  0.25000000  0.10033300  1
  S  S12  1  0.21254500  0.48036000  0.80692500  1
  S  S13  1  0.78745500  0.51964000  0.19307500  1
  S  S14  1  0.28745500  0.51964000  0.30692500  1
  S  S15  1  0.71254500  0.48036000  0.69307500  1
  S  S16  1  0.71254500  0.01964000  0.69307500  1
  S  S17  1  0.28745500  0.98036000  0.30692500  1
  S  S18  1  0.78745500  0.98036000  0.19307500  1
  S  S19  1  0.21254500  0.01964000  0.80692500  1
  S  S20  1  0.90597200  0.25000000  0.47247300  1
  S  S21  1  0.09402800  0.75000000  0.52752700  1
  S  S22  1  0.59402800  0.75000000  0.97247300  1
  S  S23  1  0.40597200  0.25000000  0.02752700  1
  S  S24  1  0.17708200  0.75000000  0.07845200  1
  S  S25  1  0.82291800  0.25000000  0.92154800  1
  S  S26  1  0.32291800  0.25000000  0.57845200  1
  S  S27  1  0.67708200  0.75000000  0.42154800  1
