# generated using pymatgen
data_RbNiN
_symmetry_space_group_name_H-M   'P 1'
_cell_length_a   11.00446300
_cell_length_b   3.47587700
_cell_length_c   6.30851700
_cell_angle_alpha   90.00000000
_cell_angle_beta   90.00000000
_cell_angle_gamma   90.00000000
_symmetry_Int_Tables_number   1
_chemical_formula_structural   RbNiN
_chemical_formula_sum   'Rb4 Ni4 N4'
_cell_volume   241.30178360
_cell_formula_units_Z   4
loop_
 _symmetry_equiv_pos_site_id
 _symmetry_equiv_pos_as_xyz
  1  'x, y, z'
loop_
 _atom_site_type_symbol
 _atom_site_label
 _atom_site_symmetry_multiplicity
 _atom_site_fract_x
 _atom_site_fract_y
 _atom_site_fract_z
 _atom_site_occupancy
  Rb  Rb0  1  0.65862500  0.25000000  0.06921500  1
  Rb  Rb1  1  0.15862500  0.25000000  0.43078500  1
  Rb  Rb2  1  0.34137500  0.75000000  0.93078500  1
  Rb  Rb3  1  0.84137500  0.75000000  0.56921500  1
  Ni  Ni4  1  0.55219300  0.25000000  0.58180700  1
  Ni  Ni5  1  0.05219300  0.25000000  0.91819300  1
  Ni  Ni6  1  0.44780700  0.75000000  0.41819300  1
  Ni  Ni7  1  0.94780700  0.75000000  0.08180700  1
  N  N8  1  0.92937900  0.25000000  0.15818600  1
  N  N9  1  0.42937900  0.25000000  0.34181400  1
  N  N10  1  0.07062100  0.75000000  0.84181400  1
  N  N11  1  0.57062100  0.75000000  0.65818600  1
