# generated using pymatgen
data_V(CdN)4
_symmetry_space_group_name_H-M   'P 1'
_cell_length_a   5.82295573
_cell_length_b   5.82384493
_cell_length_c   9.47102868
_cell_angle_alpha   66.17253782
_cell_angle_beta   90.64571994
_cell_angle_gamma   71.15711517
_symmetry_Int_Tables_number   1
_chemical_formula_structural   V(CdN)4
_chemical_formula_sum   'V2 Cd8 N8'
_cell_volume   274.30792882
_cell_formula_units_Z   2
loop_
 _symmetry_equiv_pos_site_id
 _symmetry_equiv_pos_as_xyz
  1  'x, y, z'
loop_
 _atom_site_type_symbol
 _atom_site_label
 _atom_site_symmetry_multiplicity
 _atom_site_fract_x
 _atom_site_fract_y
 _atom_site_fract_z
 _atom_site_occupancy
  V  V0  1  0.66730187  0.89164357  0.77520793  1
  V  V1  1  0.33269813  0.10835643  0.22479207  1
  Cd  Cd2  1  0.78357094  0.58886256  0.19528960  1
  Cd  Cd3  1  0.21642906  0.41113744  0.80471040  1
  Cd  Cd4  1  0.75839120  0.24157551  0.99984182  1
  Cd  Cd5  1  0.24160880  0.75842449  0.00015818  1
  Cd  Cd6  1  0.68382454  0.51660728  0.61799817  1
  Cd  Cd7  1  0.31617546  0.48339272  0.38200183  1
  Cd  Cd8  1  0.13626812  0.06364688  0.61833257  1
  Cd  Cd9  1  0.86373188  0.93635312  0.38166743  1
  N  N10  1  0.89639078  0.79831176  0.65536570  1
  N  N11  1  0.10360922  0.20168824  0.34463430  1
  N  N12  1  0.81930516  0.86436535  0.95472489  1
  N  N13  1  0.18069484  0.13563465  0.04527511  1
  N  N14  1  0.48228755  0.66761628  0.81446696  1
  N  N15  1  0.51771245  0.33238372  0.18553304  1
  N  N16  1  0.54525281  0.75958319  0.34466481  1
  N  N17  1  0.45474719  0.24041681  0.65533519  1
