# generated using pymatgen
data_MgAlVS4
_symmetry_space_group_name_H-M   'P 1'
_cell_length_a   7.24717793
_cell_length_b   7.28008319
_cell_length_c   7.27198830
_cell_angle_alpha   58.74320339
_cell_angle_beta   60.14311426
_cell_angle_gamma   60.17829052
_symmetry_Int_Tables_number   1
_chemical_formula_structural   MgAlVS4
_chemical_formula_sum   'Mg2 Al2 V2 S8'
_cell_volume   269.26448670
_cell_formula_units_Z   2
loop_
 _symmetry_equiv_pos_site_id
 _symmetry_equiv_pos_as_xyz
  1  'x, y, z'
loop_
 _atom_site_type_symbol
 _atom_site_label
 _atom_site_symmetry_multiplicity
 _atom_site_fract_x
 _atom_site_fract_y
 _atom_site_fract_z
 _atom_site_occupancy
  Mg  Mg0  1  0.87421494  0.87633801  0.87542899  1
  Mg  Mg1  1  0.12579840  0.12365848  0.12456962  1
  Al  Al2  1  0.49999526  0.50000576  0.49999509  1
  Al  Al3  1  -0.00000362  0.49999466  0.50000946  1
  V  V4  1  0.50001731  0.49999969  -0.00001189  1
  V  V5  1  0.50001260  0.99999887  0.49999838  1
  S  S6  1  0.74615759  0.73417859  0.73482617  1
  S  S7  1  0.26273720  0.26137727  0.71317293  1
  S  S8  1  0.26284027  0.71344147  0.26093426  1
  S  S9  1  0.71519083  0.26580431  0.26509786  1
  S  S10  1  0.73714961  0.28655430  0.73906097  1
  S  S11  1  0.28480148  0.73419017  0.73491499  1
  S  S12  1  0.25383228  0.26582139  0.26518268  1
  S  S13  1  0.73725985  0.73863203  0.28682148  1
