# generated using pymatgen
data_BMoN3
_symmetry_space_group_name_H-M   'P 1'
_cell_length_a   10.23183148
_cell_length_b   5.67540244
_cell_length_c   8.67290834
_cell_angle_alpha   121.82705257
_cell_angle_beta   108.54570390
_cell_angle_gamma   110.67168410
_symmetry_Int_Tables_number   1
_chemical_formula_structural   BMoN3
_chemical_formula_sum   'B4 Mo4 N12'
_cell_volume   309.51607344
_cell_formula_units_Z   4
loop_
 _symmetry_equiv_pos_site_id
 _symmetry_equiv_pos_as_xyz
  1  'x, y, z'
loop_
 _atom_site_type_symbol
 _atom_site_label
 _atom_site_symmetry_multiplicity
 _atom_site_fract_x
 _atom_site_fract_y
 _atom_site_fract_z
 _atom_site_occupancy
  B  B0  1  0.56037400  0.53436300  0.32151500  1
  B  B1  1  0.43962600  0.46563700  0.67848500  1
  B  B2  1  0.70690200  0.57416100  0.66718200  1
  B  B3  1  0.29309800  0.42583900  0.33281800  1
  Mo  Mo4  1  0.92483700  0.70087300  0.62060900  1
  Mo  Mo5  1  0.07516300  0.29912700  0.37939100  1
  Mo  Mo6  1  0.69398700  0.74625100  0.08194700  1
  Mo  Mo7  1  0.30601300  0.25374900  0.91805300  1
  N  N8  1  0.68151500  0.57764900  0.49453300  1
  N  N9  1  0.31848500  0.42235100  0.50546700  1
  N  N10  1  0.83367400  0.24291300  0.30129400  1
  N  N11  1  0.16632600  0.75708700  0.69870600  1
  N  N12  1  0.87820500  0.61637700  0.77172100  1
  N  N13  1  0.12179500  0.38362300  0.22827900  1
  N  N14  1  0.61374800  0.56013100  0.75738000  1
  N  N15  1  0.38625200  0.43986900  0.24262000  1
  N  N16  1  0.89605200  0.78406300  0.16436400  1
  N  N17  1  0.10394800  0.21593700  0.83563600  1
  N  N18  1  0.40642000  0.44531500  0.82348900  1
  N  N19  1  0.59358000  0.55468500  0.17651100  1
