# generated using pymatgen
data_ZrCrAgS4
_symmetry_space_group_name_H-M   'P 1'
_cell_length_a   7.58404400
_cell_length_b   7.44108200
_cell_length_c   10.26384600
_cell_angle_alpha   90.00000000
_cell_angle_beta   90.00000000
_cell_angle_gamma   90.00000000
_symmetry_Int_Tables_number   1
_chemical_formula_structural   ZrCrAgS4
_chemical_formula_sum   'Zr4 Cr4 Ag4 S16'
_cell_volume   579.22468443
_cell_formula_units_Z   4
loop_
 _symmetry_equiv_pos_site_id
 _symmetry_equiv_pos_as_xyz
  1  'x, y, z'
loop_
 _atom_site_type_symbol
 _atom_site_label
 _atom_site_symmetry_multiplicity
 _atom_site_fract_x
 _atom_site_fract_y
 _atom_site_fract_z
 _atom_site_occupancy
  Zr  Zr0  1  0.75000000  0.00278800  0.37500000  1
  Zr  Zr1  1  0.75000000  0.49721200  0.87500000  1
  Zr  Zr2  1  0.25000000  0.99721200  0.37500000  1
  Zr  Zr3  1  0.25000000  0.50278800  0.87500000  1
  Cr  Cr4  1  0.00050800  0.25000000  0.62500000  1
  Cr  Cr5  1  0.99949200  0.75000000  0.62500000  1
  Cr  Cr6  1  0.50050800  0.75000000  0.12500000  1
  Cr  Cr7  1  0.49949200  0.25000000  0.12500000  1
  Ag  Ag8  1  0.00000000  0.00000000  0.01937500  1
  Ag  Ag9  1  0.50000000  0.50000000  0.51937500  1
  Ag  Ag10  1  0.50000000  0.00000000  0.73062500  1
  Ag  Ag11  1  0.00000000  0.50000000  0.23062500  1
  S  S12  1  0.00130000  0.23554400  0.38623900  1
  S  S13  1  0.79212600  0.99979800  0.62407100  1
  S  S14  1  0.99870000  0.76445600  0.38623900  1
  S  S15  1  0.70787400  0.50020200  0.12407100  1
  S  S16  1  0.50130000  0.76445600  0.36376100  1
  S  S17  1  0.29212600  0.00020200  0.12592900  1
  S  S18  1  0.49870000  0.23554400  0.36376100  1
  S  S19  1  0.70787400  0.99979800  0.12592900  1
  S  S20  1  0.50130000  0.73554400  0.88623900  1
  S  S21  1  0.29212600  0.49979800  0.12407100  1
  S  S22  1  0.49870000  0.26445600  0.88623900  1
  S  S23  1  0.20787400  0.00020200  0.62407100  1
  S  S24  1  0.00130000  0.26445600  0.86376100  1
  S  S25  1  0.79212600  0.50020200  0.62592900  1
  S  S26  1  0.99870000  0.73554400  0.86376100  1
  S  S27  1  0.20787400  0.49979800  0.62592900  1
