# generated using pymatgen
data_MgScTiS4
_symmetry_space_group_name_H-M   'P 1'
_cell_length_a   7.52653223
_cell_length_b   7.44140172
_cell_length_c   7.45003448
_cell_angle_alpha   59.15358569
_cell_angle_beta   59.66005089
_cell_angle_gamma   59.61962657
_symmetry_Int_Tables_number   1
_chemical_formula_structural   MgScTiS4
_chemical_formula_sum   'Mg2 Sc2 Ti2 S8'
_cell_volume   291.52910561
_cell_formula_units_Z   2
loop_
 _symmetry_equiv_pos_site_id
 _symmetry_equiv_pos_as_xyz
  1  'x, y, z'
loop_
 _atom_site_type_symbol
 _atom_site_label
 _atom_site_symmetry_multiplicity
 _atom_site_fract_x
 _atom_site_fract_y
 _atom_site_fract_z
 _atom_site_occupancy
  Mg  Mg0  1  0.87622700  0.87351400  0.87401300  1
  Mg  Mg1  1  0.12377600  0.12648900  0.12599400  1
  Sc  Sc2  1  0.49998500  0.50000500  0.49995300  1
  Sc  Sc3  1  0.00000600  0.49991000  0.50004600  1
  Ti  Ti4  1  0.50000800  0.50000800  0.99999500  1
  Ti  Ti5  1  0.49999000  0.00001100  0.50002700  1
  S  S6  1  0.73192300  0.74617500  0.74590500  1
  S  S7  1  0.26398500  0.24815500  0.72393400  1
  S  S8  1  0.26376500  0.72442400  0.24803500  1
  S  S9  1  0.72401000  0.25384100  0.25410200  1
  S  S10  1  0.73620500  0.27558900  0.75196700  1
  S  S11  1  0.27599000  0.74617900  0.74589700  1
  S  S12  1  0.26807300  0.25382700  0.25410200  1
  S  S13  1  0.73606300  0.75186900  0.27603200  1
