# generated using pymatgen
data_GeCN2
_symmetry_space_group_name_H-M   'P 1'
_cell_length_a   6.34561300
_cell_length_b   8.73552400
_cell_length_c   5.14531300
_cell_angle_alpha   90.00000000
_cell_angle_beta   90.00000000
_cell_angle_gamma   90.00000000
_symmetry_Int_Tables_number   1
_chemical_formula_structural   GeCN2
_chemical_formula_sum   'Ge4 C4 N8'
_cell_volume   285.21630050
_cell_formula_units_Z   4
loop_
 _symmetry_equiv_pos_site_id
 _symmetry_equiv_pos_as_xyz
  1  'x, y, z'
loop_
 _atom_site_type_symbol
 _atom_site_label
 _atom_site_symmetry_multiplicity
 _atom_site_fract_x
 _atom_site_fract_y
 _atom_site_fract_z
 _atom_site_occupancy
  Ge  Ge0  1  0.62317100  0.36798800  0.06187700  1
  Ge  Ge1  1  0.37682900  0.63201200  0.56187700  1
  Ge  Ge2  1  0.87682900  0.86798800  0.56187700  1
  Ge  Ge3  1  0.12317100  0.13201200  0.06187700  1
  C  C4  1  0.69279800  0.79543300  0.06267000  1
  C  C5  1  0.30720200  0.20456700  0.56267000  1
  C  C6  1  0.80720200  0.29543300  0.56267000  1
  C  C7  1  0.19279800  0.70456700  0.06267000  1
  N  N8  1  0.81520600  0.29121900  0.32396600  1
  N  N9  1  0.18479400  0.70878100  0.82396600  1
  N  N10  1  0.68479400  0.79121900  0.82396600  1
  N  N11  1  0.31520600  0.20878100  0.32396600  1
  N  N12  1  0.68212000  0.79266600  0.30148700  1
  N  N13  1  0.31788000  0.20733400  0.80148700  1
  N  N14  1  0.81788000  0.29266600  0.80148700  1
  N  N15  1  0.18212000  0.70733400  0.30148700  1
