# generated using pymatgen
data_B3C3N7
_symmetry_space_group_name_H-M   'P 1'
_cell_length_a   8.21321273
_cell_length_b   14.47077715
_cell_length_c   17.85229779
_cell_angle_alpha   90.00000000
_cell_angle_beta   90.00000000
_cell_angle_gamma   90.00000000
_symmetry_Int_Tables_number   1
_chemical_formula_structural   B3C3N7
_chemical_formula_sum   'B24 C24 N56'
_cell_volume   2121.77364011
_cell_formula_units_Z   8
loop_
 _symmetry_equiv_pos_site_id
 _symmetry_equiv_pos_as_xyz
  1  'x, y, z'
loop_
 _atom_site_type_symbol
 _atom_site_label
 _atom_site_symmetry_multiplicity
 _atom_site_fract_x
 _atom_site_fract_y
 _atom_site_fract_z
 _atom_site_occupancy
  B  B0  1  0.38434660  0.63130107  0.14588309  1
  B  B1  1  0.11565340  0.36869893  0.64588309  1
  B  B2  1  0.88434660  0.86869893  0.85411691  1
  B  B3  1  0.61565340  0.13130107  0.35411691  1
  B  B4  1  0.34288434  0.65067101  0.30295036  1
  B  B5  1  0.15711566  0.34932899  0.80295036  1
  B  B6  1  0.84288434  0.84932899  0.69704964  1
  B  B7  1  0.65711566  0.15067101  0.19704964  1
  B  B8  1  0.39621372  0.50866596  0.19905108  1
  B  B9  1  0.10378628  0.49133404  0.69905108  1
  B  B10  1  0.89621372  0.99133404  0.80094892  1
  B  B11  1  0.60378628  0.00866596  0.30094892  1
  B  B12  1  0.56627631  0.59592132  0.28162579  1
  B  B13  1  0.93372369  0.40407868  0.78162579  1
  B  B14  1  0.06627631  0.90407868  0.71837421  1
  B  B15  1  0.43372369  0.09592132  0.21837421  1
  B  B16  1  0.50330537  0.63932706  0.82583446  1
  B  B17  1  0.99669463  0.36067294  0.32583446  1
  B  B18  1  0.00330537  0.86067294  0.17416554  1
  B  B19  1  0.49669463  0.13932706  0.67416554  1
  B  B20  1  0.51327614  0.61516314  0.42575574  1
  B  B21  1  0.98672386  0.38483686  0.92575574  1
  B  B22  1  0.01327614  0.88483686  0.57424426  1
  B  B23  1  0.48672386  0.11516314  0.07424426  1
  C  C24  1  0.07039130  0.92390988  0.43808992  1
  C  C25  1  0.42960870  0.07609012  0.93808992  1
  C  C26  1  0.57039130  0.57609012  0.56191008  1
  C  C27  1  0.92960870  0.42390988  0.06191008  1
  C  C28  1  0.60547736  0.99071844  0.44344484  1
  C  C29  1  0.89452264  0.00928156  0.94344484  1
  C  C30  1  0.10547736  0.50928156  0.55655516  1
  C  C31  1  0.39452264  0.49071844  0.05655516  1
  C  C32  1  0.27217159  0.40406854  0.28737487  1
  C  C33  1  0.22782841  0.59593146  0.78737487  1
  C  C34  1  0.77217159  0.09593146  0.71262513  1
  C  C35  1  0.72782841  0.90406854  0.21262513  1
  C  C36  1  0.70025572  0.73999477  0.89013612  1
  C  C37  1  0.79974428  0.26000523  0.39013612  1
  C  C38  1  0.20025572  0.76000523  0.10986388  1
  C  C39  1  0.29974428  0.23999477  0.60986388  1
  C  C40  1  0.11743503  0.75183967  0.27780323  1
  C  C41  1  0.38256497  0.24816033  0.77780323  1
  C  C42  1  0.61743503  0.74816033  0.72219677  1
  C  C43  1  0.88256497  0.25183967  0.22219677  1
  C  C44  1  0.81452284  0.50504370  0.28983561  1
  C  C45  1  0.68547716  0.49495630  0.78983561  1
  C  C46  1  0.31452284  0.99495630  0.71016439  1
  C  C47  1  0.18547716  0.00504370  0.21016439  1
  N  N48  1  0.55044862  0.60355540  0.49398825  1
  N  N49  1  0.94955138  0.39644460  0.99398825  1
  N  N50  1  0.05044862  0.89644460  0.50601175  1
  N  N51  1  0.44955138  0.10355540  0.00601175  1
  N  N52  1  0.08854665  0.94984916  0.37603644  1
  N  N53  1  0.41145335  0.05015084  0.87603644  1
  N  N54  1  0.58854665  0.55015084  0.62396356  1
  N  N55  1  0.91145335  0.44984916  0.12396356  1
  N  N56  1  0.62044455  0.95131172  0.50029084  1
  N  N57  1  0.87955545  0.04868828  0.00029084  1
  N  N58  1  0.12044455  0.54868828  0.49970916  1
  N  N59  1  0.37955545  0.45131172  0.99970916  1
  N  N60  1  0.58749611  0.03574298  0.37875478  1
  N  N61  1  0.91250389  0.96425702  0.87875478  1
  N  N62  1  0.08749611  0.46425702  0.62124522  1
  N  N63  1  0.41250389  0.53574298  0.12124522  1
  N  N64  1  0.36660899  0.42632736  0.23572918  1
  N  N65  1  0.13339101  0.57367264  0.73572918  1
  N  N66  1  0.86660899  0.07367264  0.76427082  1
  N  N67  1  0.63339101  0.92632736  0.26427082  1
  N  N68  1  0.18027627  0.37867579  0.33540208  1
  N  N69  1  0.31972373  0.62132421  0.83540208  1
  N  N70  1  0.68027627  0.12132421  0.66459792  1
  N  N71  1  0.81972373  0.87867579  0.16459792  1
  N  N72  1  0.31819251  0.70687374  0.11051450  1
  N  N73  1  0.18180749  0.29312626  0.61051450  1
  N  N74  1  0.81819251  0.79312626  0.88948550  1
  N  N75  1  0.68180749  0.20687374  0.38948550  1
  N  N76  1  0.58268681  0.69024525  0.89246463  1
  N  N77  1  0.91731319  0.30975475  0.39246463  1
  N  N78  1  0.08268681  0.80975475  0.10753537  1
  N  N79  1  0.41731319  0.19024525  0.60753537  1
  N  N80  1  0.02674610  0.80094648  0.24436715  1
  N  N81  1  0.47325390  0.19905352  0.74436715  1
  N  N82  1  0.52674610  0.69905352  0.75563285  1
  N  N83  1  0.97325390  0.30094648  0.25563285  1
  N  N84  1  0.20876335  0.70395626  0.31822799  1
  N  N85  1  0.29123665  0.29604374  0.81822799  1
  N  N86  1  0.70876335  0.79604374  0.68177201  1
  N  N87  1  0.79123665  0.20395626  0.18177201  1
  N  N88  1  0.71270090  0.55884865  0.26125094  1
  N  N89  1  0.78729910  0.44115135  0.76125094  1
  N  N90  1  0.21270090  0.94115135  0.73874906  1
  N  N91  1  0.28729910  0.05884865  0.23874906  1
  N  N92  1  0.58822446  0.54678986  0.81525738  1
  N  N93  1  0.91177554  0.45321014  0.31525738  1
  N  N94  1  0.08822446  0.95321014  0.18474262  1
  N  N95  1  0.41177554  0.04678986  0.68474262  1
  N  N96  1  0.48098097  0.62302533  0.34994966  1
  N  N97  1  0.01901903  0.37697467  0.84994966  1
  N  N98  1  0.98098097  0.87697467  0.65005034  1
  N  N99  1  0.51901903  0.12302533  0.15005034  1
  N  N100  1  0.41381242  0.61068779  0.22937729  1
  N  N101  1  0.08618758  0.38931221  0.72937729  1
  N  N102  1  0.91381242  0.88931221  0.77062271  1
  N  N103  1  0.58618758  0.11068779  0.27062271  1
