# generated using pymatgen
data_Ru2Pb3N4
_symmetry_space_group_name_H-M   'P 1'
_cell_length_a   6.62574600
_cell_length_b   10.24028799
_cell_length_c   10.13415431
_cell_angle_alpha   90.00000000
_cell_angle_beta   90.00000000
_cell_angle_gamma   90.00000000
_symmetry_Int_Tables_number   1
_chemical_formula_structural   Ru2Pb3N4
_chemical_formula_sum   'Ru8 Pb12 N16'
_cell_volume   687.59778107
_cell_formula_units_Z   4
loop_
 _symmetry_equiv_pos_site_id
 _symmetry_equiv_pos_as_xyz
  1  'x, y, z'
loop_
 _atom_site_type_symbol
 _atom_site_label
 _atom_site_symmetry_multiplicity
 _atom_site_fract_x
 _atom_site_fract_y
 _atom_site_fract_z
 _atom_site_occupancy
  Ru  Ru0  1  0.75000000  0.50000000  0.76442173  1
  Ru  Ru1  1  0.75000000  0.00000000  0.73557827  1
  Ru  Ru2  1  0.25000000  0.50000000  0.23557827  1
  Ru  Ru3  1  0.25000000  0.00000000  0.26442173  1
  Ru  Ru4  1  0.79969792  0.25000000  0.75000000  1
  Ru  Ru5  1  0.70030208  0.75000000  0.75000000  1
  Ru  Ru6  1  0.20030208  0.75000000  0.25000000  1
  Ru  Ru7  1  0.29969792  0.25000000  0.25000000  1
  Pb  Pb8  1  0.81166417  0.15636478  0.38810738  1
  Pb  Pb9  1  0.68833583  0.84363522  0.38810738  1
  Pb  Pb10  1  0.81166417  0.34363522  0.11189262  1
  Pb  Pb11  1  0.68833583  0.65636478  0.11189262  1
  Pb  Pb12  1  0.18833583  0.84363522  0.61189262  1
  Pb  Pb13  1  0.31166417  0.15636478  0.61189262  1
  Pb  Pb14  1  0.18833583  0.65636478  0.88810738  1
  Pb  Pb15  1  0.31166417  0.34363522  0.88810738  1
  Pb  Pb16  1  0.75000000  0.50000000  0.42085284  1
  Pb  Pb17  1  0.75000000  0.00000000  0.07914716  1
  Pb  Pb18  1  0.25000000  0.50000000  0.57914716  1
  Pb  Pb19  1  0.25000000  0.00000000  0.92085284  1
  N  N20  1  0.91705839  0.39804627  0.65355372  1
  N  N21  1  0.58294161  0.60195373  0.65355372  1
  N  N22  1  0.91705839  0.10195373  0.84644628  1
  N  N23  1  0.58294161  0.89804627  0.84644628  1
  N  N24  1  0.08294161  0.60195373  0.34644628  1
  N  N25  1  0.41705839  0.39804627  0.34644628  1
  N  N26  1  0.08294161  0.89804627  0.15355372  1
  N  N27  1  0.41705839  0.10195373  0.15355372  1
  N  N28  1  0.67357123  0.35455912  0.89085360  1
  N  N29  1  0.82642877  0.64544088  0.89085360  1
  N  N30  1  0.67357123  0.14544088  0.60914640  1
  N  N31  1  0.82642877  0.85455912  0.60914640  1
  N  N32  1  0.32642877  0.64544088  0.10914640  1
  N  N33  1  0.17357123  0.35455912  0.10914640  1
  N  N34  1  0.32642877  0.85455912  0.39085360  1
  N  N35  1  0.17357123  0.14544088  0.39085360  1
