# generated using pymatgen
data_Cr2SN2
_symmetry_space_group_name_H-M   'P 1'
_cell_length_a   3.25940243
_cell_length_b   3.27484255
_cell_length_c   6.11374951
_cell_angle_alpha   89.99999811
_cell_angle_beta   89.93020235
_cell_angle_gamma   120.15680104
_symmetry_Int_Tables_number   1
_chemical_formula_structural   Cr2SN2
_chemical_formula_sum   'Cr2 S1 N2'
_cell_volume   56.42582031
_cell_formula_units_Z   1
loop_
 _symmetry_equiv_pos_site_id
 _symmetry_equiv_pos_as_xyz
  1  'x, y, z'
loop_
 _atom_site_type_symbol
 _atom_site_label
 _atom_site_symmetry_multiplicity
 _atom_site_fract_x
 _atom_site_fract_y
 _atom_site_fract_z
 _atom_site_occupancy
  Cr  Cr0  1  0.66866000  0.33433100  0.69712900  1
  Cr  Cr1  1  0.33134000  0.66566900  0.30287100  1
  S  S2  1  0.00000000  0.00000000  0.00000000  1
  N  N3  1  0.66281800  0.33140900  0.37161500  1
  N  N4  1  0.33718200  0.66859100  0.62838500  1
