# generated using pymatgen
data_GaBiN2
_symmetry_space_group_name_H-M   'P 1'
_cell_length_a   5.73737900
_cell_length_b   10.74593200
_cell_length_c   15.79636500
_cell_angle_alpha   90.00000000
_cell_angle_beta   90.00000000
_cell_angle_gamma   90.00000000
_symmetry_Int_Tables_number   1
_chemical_formula_structural   GaBiN2
_chemical_formula_sum   'Ga16 Bi16 N32'
_cell_volume   973.90094614
_cell_formula_units_Z   16
loop_
 _symmetry_equiv_pos_site_id
 _symmetry_equiv_pos_as_xyz
  1  'x, y, z'
loop_
 _atom_site_type_symbol
 _atom_site_label
 _atom_site_symmetry_multiplicity
 _atom_site_fract_x
 _atom_site_fract_y
 _atom_site_fract_z
 _atom_site_occupancy
  Ga  Ga0  1  0.76199400  0.00718100  0.18447000  1
  Ga  Ga1  1  0.26199400  0.49281900  0.81553000  1
  Ga  Ga2  1  0.23800600  0.50718100  0.31553000  1
  Ga  Ga3  1  0.73800600  0.99281900  0.68447000  1
  Ga  Ga4  1  0.23800600  0.99281900  0.81553000  1
  Ga  Ga5  1  0.73800600  0.50718100  0.18447000  1
  Ga  Ga6  1  0.76199400  0.49281900  0.68447000  1
  Ga  Ga7  1  0.26199400  0.00718100  0.31553000  1
  Ga  Ga8  1  0.78112000  0.26817700  0.06406600  1
  Ga  Ga9  1  0.28112000  0.23182300  0.93593400  1
  Ga  Ga10  1  0.21888000  0.76817700  0.43593400  1
  Ga  Ga11  1  0.71888000  0.73182300  0.56406600  1
  Ga  Ga12  1  0.21888000  0.73182300  0.93593400  1
  Ga  Ga13  1  0.71888000  0.76817700  0.06406600  1
  Ga  Ga14  1  0.78112000  0.23182300  0.56406600  1
  Ga  Ga15  1  0.28112000  0.26817700  0.43593400  1
  Bi  Bi16  1  0.75328600  0.99899100  0.44236900  1
  Bi  Bi17  1  0.25328600  0.50100900  0.55763100  1
  Bi  Bi18  1  0.24671400  0.49899100  0.05763100  1
  Bi  Bi19  1  0.74671400  0.00100900  0.94236900  1
  Bi  Bi20  1  0.24671400  0.00100900  0.55763100  1
  Bi  Bi21  1  0.74671400  0.49899100  0.44236900  1
  Bi  Bi22  1  0.75328600  0.50100900  0.94236900  1
  Bi  Bi23  1  0.25328600  0.99899100  0.05763100  1
  Bi  Bi24  1  0.82596900  0.27201600  0.30191600  1
  Bi  Bi25  1  0.32596900  0.22798400  0.69808400  1
  Bi  Bi26  1  0.17403100  0.77201600  0.19808400  1
  Bi  Bi27  1  0.67403100  0.72798400  0.80191600  1
  Bi  Bi28  1  0.17403100  0.72798400  0.69808400  1
  Bi  Bi29  1  0.67403100  0.77201600  0.30191600  1
  Bi  Bi30  1  0.82596900  0.22798400  0.80191600  1
  Bi  Bi31  1  0.32596900  0.27201600  0.19808400  1
  N  N32  1  0.51744700  0.42699300  0.26433700  1
  N  N33  1  0.01744700  0.07300700  0.73566300  1
  N  N34  1  0.48255300  0.92699300  0.23566300  1
  N  N35  1  0.98255300  0.57300700  0.76433700  1
  N  N36  1  0.48255300  0.57300700  0.73566300  1
  N  N37  1  0.98255300  0.92699300  0.26433700  1
  N  N38  1  0.51744700  0.07300700  0.76433700  1
  N  N39  1  0.01744700  0.42699300  0.23566300  1
  N  N40  1  0.58560100  0.32224800  0.48402200  1
  N  N41  1  0.08560100  0.17775200  0.51597800  1
  N  N42  1  0.41439900  0.82224800  0.01597800  1
  N  N43  1  0.91439900  0.67775200  0.98402200  1
  N  N44  1  0.41439900  0.67775200  0.51597800  1
  N  N45  1  0.91439900  0.82224800  0.48402200  1
  N  N46  1  0.58560100  0.17775200  0.98402200  1
  N  N47  1  0.08560100  0.32224800  0.01597800  1
  N  N48  1  0.63889800  0.43760100  0.07319200  1
  N  N49  1  0.13889800  0.06239900  0.92680800  1
  N  N50  1  0.36110200  0.93760100  0.42680800  1
  N  N51  1  0.86110200  0.56239900  0.57319200  1
  N  N52  1  0.36110200  0.56239900  0.92680800  1
  N  N53  1  0.86110200  0.93760100  0.07319200  1
  N  N54  1  0.63889800  0.06239900  0.57319200  1
  N  N55  1  0.13889800  0.43760100  0.42680800  1
  N  N56  1  0.74892800  0.18638400  0.17596800  1
  N  N57  1  0.24892800  0.31361600  0.82403200  1
  N  N58  1  0.25107200  0.68638400  0.32403200  1
  N  N59  1  0.75107200  0.81361600  0.67596800  1
  N  N60  1  0.25107200  0.81361600  0.82403200  1
  N  N61  1  0.75107200  0.68638400  0.17596800  1
  N  N62  1  0.74892800  0.31361600  0.67596800  1
  N  N63  1  0.24892800  0.18638400  0.32403200  1
