# generated using pymatgen
data_Sr2RuN3
_symmetry_space_group_name_H-M   'P 1'
_cell_length_a   6.27995218
_cell_length_b   11.26298486
_cell_length_c   12.54634564
_cell_angle_alpha   89.99999809
_cell_angle_beta   91.88294756
_cell_angle_gamma   153.73298307
_symmetry_Int_Tables_number   1
_chemical_formula_structural   Sr2RuN3
_chemical_formula_sum   'Sr8 Ru4 N12'
_cell_volume   391.64633632
_cell_formula_units_Z   4
loop_
 _symmetry_equiv_pos_site_id
 _symmetry_equiv_pos_as_xyz
  1  'x, y, z'
loop_
 _atom_site_type_symbol
 _atom_site_label
 _atom_site_symmetry_multiplicity
 _atom_site_fract_x
 _atom_site_fract_y
 _atom_site_fract_z
 _atom_site_occupancy
  Sr  Sr0  1  0.44224300  0.01916300  0.85680600  1
  Sr  Sr1  1  0.55775700  0.57692100  0.64319400  1
  Sr  Sr2  1  0.55775700  0.98083700  0.14319400  1
  Sr  Sr3  1  0.44224300  0.42307900  0.35680600  1
  Sr  Sr4  1  0.52590100  0.87011000  0.57423400  1
  Sr  Sr5  1  0.47409900  0.34420900  0.92576600  1
  Sr  Sr6  1  0.47409900  0.12989000  0.42576600  1
  Sr  Sr7  1  0.52590100  0.65579100  0.07423400  1
  Ru  Ru8  1  0.54638900  0.26973400  0.66866900  1
  Ru  Ru9  1  0.45361100  0.72334600  0.83133100  1
  Ru  Ru10  1  0.45361100  0.73026600  0.33133100  1
  Ru  Ru11  1  0.54638900  0.27665400  0.16866900  1
  N  N12  1  0.00000000  0.60732700  0.75000000  1
  N  N13  1  0.00000000  0.39267300  0.25000000  1
  N  N14  1  0.60396000  0.13798300  0.63152100  1
  N  N15  1  0.39604000  0.53402300  0.86847900  1
  N  N16  1  0.39604000  0.86201700  0.36847900  1
  N  N17  1  0.60396000  0.46597700  0.13152100  1
  N  N18  1  0.49889800  0.15501700  0.04423100  1
  N  N19  1  0.50110200  0.65612000  0.45576900  1
  N  N20  1  0.50110200  0.84498300  0.95576900  1
  N  N21  1  0.49889800  0.34388000  0.54423100  1
  N  N22  1  0.00000000  0.99864900  0.75000000  1
  N  N23  1  0.00000000  0.00135100  0.25000000  1
