# generated using pymatgen
data_Sr4ReN4
_symmetry_space_group_name_H-M   'P 1'
_cell_length_a   9.58642600
_cell_length_b   3.84323200
_cell_length_c   20.49067000
_cell_angle_alpha   90.00000000
_cell_angle_beta   90.00000000
_cell_angle_gamma   90.00000000
_symmetry_Int_Tables_number   1
_chemical_formula_structural   Sr4ReN4
_chemical_formula_sum   'Sr16 Re4 N16'
_cell_volume   754.93486909
_cell_formula_units_Z   4
loop_
 _symmetry_equiv_pos_site_id
 _symmetry_equiv_pos_as_xyz
  1  'x, y, z'
loop_
 _atom_site_type_symbol
 _atom_site_label
 _atom_site_symmetry_multiplicity
 _atom_site_fract_x
 _atom_site_fract_y
 _atom_site_fract_z
 _atom_site_occupancy
  Sr  Sr0  1  0.57272300  0.25000000  0.85304000  1
  Sr  Sr1  1  0.07272300  0.25000000  0.64696000  1
  Sr  Sr2  1  0.42727700  0.75000000  0.14696000  1
  Sr  Sr3  1  0.92727700  0.75000000  0.35304000  1
  Sr  Sr4  1  0.67096300  0.25000000  0.46980000  1
  Sr  Sr5  1  0.17096300  0.25000000  0.03020000  1
  Sr  Sr6  1  0.32903700  0.75000000  0.53020000  1
  Sr  Sr7  1  0.82903700  0.75000000  0.96980000  1
  Sr  Sr8  1  0.84727000  0.25000000  0.76867600  1
  Sr  Sr9  1  0.34727000  0.25000000  0.73132400  1
  Sr  Sr10  1  0.15273000  0.75000000  0.23132400  1
  Sr  Sr11  1  0.65273000  0.75000000  0.26867600  1
  Sr  Sr12  1  0.85727000  0.25000000  0.14552000  1
  Sr  Sr13  1  0.35727000  0.25000000  0.35448000  1
  Sr  Sr14  1  0.14273000  0.75000000  0.85448000  1
  Sr  Sr15  1  0.64273000  0.75000000  0.64552000  1
  Re  Re16  1  0.55239100  0.25000000  0.02764300  1
  Re  Re17  1  0.05239100  0.25000000  0.47235700  1
  Re  Re18  1  0.44760900  0.75000000  0.97235700  1
  Re  Re19  1  0.94760900  0.75000000  0.52764300  1
  N  N20  1  0.10603500  0.25000000  0.38675400  1
  N  N21  1  0.60603500  0.25000000  0.11324600  1
  N  N22  1  0.89396500  0.75000000  0.61324600  1
  N  N23  1  0.39396500  0.75000000  0.88675400  1
  N  N24  1  0.02035700  0.25000000  0.93261400  1
  N  N25  1  0.52035700  0.25000000  0.56738600  1
  N  N26  1  0.97964300  0.75000000  0.06738600  1
  N  N27  1  0.47964300  0.75000000  0.43261400  1
  N  N28  1  0.82599800  0.25000000  0.26847600  1
  N  N29  1  0.32599800  0.25000000  0.23152400  1
  N  N30  1  0.17400200  0.75000000  0.73152400  1
  N  N31  1  0.67400200  0.75000000  0.76847600  1
  N  N32  1  0.94498200  0.25000000  0.88062800  1
  N  N33  1  0.44498200  0.25000000  0.61937200  1
  N  N34  1  0.05501800  0.75000000  0.11937200  1
  N  N35  1  0.55501800  0.75000000  0.38062800  1
