# generated using pymatgen
data_Ba7SnN6
_symmetry_space_group_name_H-M   'P 1'
_cell_length_a   12.74679376
_cell_length_b   7.09174822
_cell_length_c   14.88676213
_cell_angle_alpha   90.00000000
_cell_angle_beta   90.00000000
_cell_angle_gamma   90.00000000
_symmetry_Int_Tables_number   1
_chemical_formula_structural   Ba7SnN6
_chemical_formula_sum   'Ba28 Sn4 N24'
_cell_volume   1345.71940975
_cell_formula_units_Z   4
loop_
 _symmetry_equiv_pos_site_id
 _symmetry_equiv_pos_as_xyz
  1  'x, y, z'
loop_
 _atom_site_type_symbol
 _atom_site_label
 _atom_site_symmetry_multiplicity
 _atom_site_fract_x
 _atom_site_fract_y
 _atom_site_fract_z
 _atom_site_occupancy
  Ba  Ba0  1  0.03163588  0.73979076  0.98174987  1
  Ba  Ba1  1  0.46836412  0.76020924  0.48174987  1
  Ba  Ba2  1  0.53163588  0.76020924  0.01825013  1
  Ba  Ba3  1  0.96836412  0.73979076  0.51825013  1
  Ba  Ba4  1  0.96836412  0.26020924  0.01825013  1
  Ba  Ba5  1  0.53163588  0.23979076  0.51825013  1
  Ba  Ba6  1  0.46836412  0.23979076  0.98174987  1
  Ba  Ba7  1  0.03163588  0.26020924  0.48174987  1
  Ba  Ba8  1  0.22859988  0.83364133  0.62757020  1
  Ba  Ba9  1  0.27140012  0.66635867  0.12757020  1
  Ba  Ba10  1  0.72859988  0.66635867  0.37242980  1
  Ba  Ba11  1  0.77140012  0.83364133  0.87242980  1
  Ba  Ba12  1  0.77140012  0.16635867  0.37242980  1
  Ba  Ba13  1  0.72859988  0.33364133  0.87242980  1
  Ba  Ba14  1  0.27140012  0.33364133  0.62757020  1
  Ba  Ba15  1  0.22859988  0.16635867  0.12757020  1
  Ba  Ba16  1  0.28516691  0.59290337  0.87944897  1
  Ba  Ba17  1  0.21483309  0.90709663  0.37944897  1
  Ba  Ba18  1  0.78516691  0.90709663  0.12055103  1
  Ba  Ba19  1  0.71483309  0.59290337  0.62055103  1
  Ba  Ba20  1  0.71483309  0.40709663  0.12055103  1
  Ba  Ba21  1  0.78516691  0.09290337  0.62055103  1
  Ba  Ba22  1  0.21483309  0.09290337  0.87944897  1
  Ba  Ba23  1  0.28516691  0.40709663  0.37944897  1
  Ba  Ba24  1  -0.00000000  0.42894055  0.75000000  1
  Ba  Ba25  1  0.50000000  0.07105945  0.25000000  1
  Ba  Ba26  1  0.00000000  0.57105945  0.25000000  1
  Ba  Ba27  1  0.50000000  0.92894055  0.75000000  1
  Sn  Sn28  1  -0.00000000  0.92370528  0.75000000  1
  Sn  Sn29  1  0.50000000  0.57629472  0.25000000  1
  Sn  Sn30  1  0.00000000  0.07629472  0.25000000  1
  Sn  Sn31  1  0.50000000  0.42370528  0.75000000  1
  N  N32  1  0.12661998  0.74399114  0.79433529  1
  N  N33  1  0.37338002  0.75600886  0.29433529  1
  N  N34  1  0.62661998  0.75600886  0.20566471  1
  N  N35  1  0.87338002  0.74399114  0.70566471  1
  N  N36  1  0.87338002  0.25600886  0.20566471  1
  N  N37  1  0.62661998  0.24399114  0.70566471  1
  N  N38  1  0.37338002  0.24399114  0.79433529  1
  N  N39  1  0.12661998  0.25600886  0.29433529  1
  N  N40  1  0.16394418  0.59582836  0.50335354  1
  N  N41  1  0.33605582  0.90417164  0.00335354  1
  N  N42  1  0.66394418  0.90417164  0.49664646  1
  N  N43  1  0.83605582  0.59582836  0.99664646  1
  N  N44  1  0.83605582  0.40417164  0.49664646  1
  N  N45  1  0.66394418  0.09582836  0.99664646  1
  N  N46  1  0.33605582  0.09582836  0.50335354  1
  N  N47  1  0.16394418  0.40417164  0.00335354  1
  N  N48  1  0.44620464  0.59612655  0.64186353  1
  N  N49  1  0.05379536  0.90387345  0.14186353  1
  N  N50  1  0.94620464  0.90387345  0.35813647  1
  N  N51  1  0.55379536  0.59612655  0.85813647  1
  N  N52  1  0.55379536  0.40387345  0.35813647  1
  N  N53  1  0.94620464  0.09612655  0.85813647  1
  N  N54  1  0.05379536  0.09612655  0.64186353  1
  N  N55  1  0.44620464  0.40387345  0.14186353  1
