# generated using pymatgen
data_Mg2FeMo3S8
_symmetry_space_group_name_H-M   'P 1'
_cell_length_a   7.29296135
_cell_length_b   7.31230349
_cell_length_c   7.31102550
_cell_angle_alpha   60.44641500
_cell_angle_beta   60.31408174
_cell_angle_gamma   60.33569076
_symmetry_Int_Tables_number   1
_chemical_formula_structural   Mg2FeMo3S8
_chemical_formula_sum   'Mg2 Fe1 Mo3 S8'
_cell_volume   277.96803095
_cell_formula_units_Z   1
loop_
 _symmetry_equiv_pos_site_id
 _symmetry_equiv_pos_as_xyz
  1  'x, y, z'
loop_
 _atom_site_type_symbol
 _atom_site_label
 _atom_site_symmetry_multiplicity
 _atom_site_fract_x
 _atom_site_fract_y
 _atom_site_fract_z
 _atom_site_occupancy
  Mg  Mg0  1  0.87555300  0.87601300  0.87604800  1
  Mg  Mg1  1  0.12445200  0.12399000  0.12395800  1
  Fe  Fe2  1  0.49999100  0.50000700  0.49999000  1
  Mo  Mo3  1  0.50000500  0.49999900  0.99999500  1
  Mo  Mo4  1  0.00000200  0.49998700  0.50001300  1
  Mo  Mo5  1  0.49999300  0.99999800  0.50001000  1
  S  S6  1  0.74055700  0.73977900  0.73957600  1
  S  S7  1  0.26362300  0.26474700  0.71552400  1
  S  S8  1  0.26359500  0.71558300  0.26474200  1
  S  S9  1  0.71524600  0.26456200  0.26451800  1
  S  S10  1  0.73639700  0.28442200  0.73524300  1
  S  S11  1  0.28475500  0.73543100  0.73547800  1
  S  S12  1  0.25944600  0.26022300  0.26042700  1
  S  S13  1  0.73638800  0.73525400  0.28447900  1
