# generated using pymatgen
data_TaSeN
_symmetry_space_group_name_H-M   'P 1'
_cell_length_a   7.08894238
_cell_length_b   3.97325706
_cell_length_c   9.32251578
_cell_angle_alpha   90.00000464
_cell_angle_beta   68.78687950
_cell_angle_gamma   73.72527754
_symmetry_Int_Tables_number   1
_chemical_formula_structural   TaSeN
_chemical_formula_sum   'Ta4 Se4 N4'
_cell_volume   233.46528842
_cell_formula_units_Z   4
loop_
 _symmetry_equiv_pos_site_id
 _symmetry_equiv_pos_as_xyz
  1  'x, y, z'
loop_
 _atom_site_type_symbol
 _atom_site_label
 _atom_site_symmetry_multiplicity
 _atom_site_fract_x
 _atom_site_fract_y
 _atom_site_fract_z
 _atom_site_occupancy
  Ta  Ta0  1  0.63647900  0.68176000  0.85752000  1
  Ta  Ta1  1  0.36352100  0.31824000  0.14248000  1
  Ta  Ta2  1  0.20905300  0.39547300  0.88656400  1
  Ta  Ta3  1  0.79094700  0.60452700  0.11343600  1
  Se  Se4  1  0.80883300  0.59558300  0.55588400  1
  Se  Se5  1  0.19116700  0.40441700  0.44411600  1
  Se  Se6  1  0.32873800  0.83563100  0.70993900  1
  Se  Se7  1  0.67126200  0.16436900  0.29006100  1
  N  N8  1  0.91556800  0.54221600  0.87606300  1
  N  N9  1  0.08443200  0.45778400  0.12393700  1
  N  N10  1  0.52947400  0.23526200  0.88642200  1
  N  N11  1  0.47052600  0.76473800  0.11357800  1
