# generated using pymatgen
data_CoSi7N10
_symmetry_space_group_name_H-M   'P 1'
_cell_length_a   6.66472830
_cell_length_b   6.92165000
_cell_length_c   9.70535196
_cell_angle_alpha   90.00000000
_cell_angle_beta   104.32505288
_cell_angle_gamma   90.00000000
_symmetry_Int_Tables_number   1
_chemical_formula_structural   CoSi7N10
_chemical_formula_sum   'Co2 Si14 N20'
_cell_volume   433.79620970
_cell_formula_units_Z   2
loop_
 _symmetry_equiv_pos_site_id
 _symmetry_equiv_pos_as_xyz
  1  'x, y, z'
loop_
 _atom_site_type_symbol
 _atom_site_label
 _atom_site_symmetry_multiplicity
 _atom_site_fract_x
 _atom_site_fract_y
 _atom_site_fract_z
 _atom_site_occupancy
  Co  Co0  1  0.01130100  0.89834500  0.70761300  1
  Co  Co1  1  0.01130100  0.10165500  0.20761300  1
  Si  Si2  1  0.54048700  0.98226900  0.82037900  1
  Si  Si3  1  0.54048700  0.01773100  0.32037900  1
  Si  Si4  1  0.34605400  0.02087100  0.01840700  1
  Si  Si5  1  0.34605400  0.97912900  0.51840700  1
  Si  Si6  1  0.10980500  0.40259400  0.07486900  1
  Si  Si7  1  0.10980500  0.59740600  0.57486900  1
  Si  Si8  1  0.65824000  0.36121400  0.98895400  1
  Si  Si9  1  0.65824000  0.63878600  0.48895400  1
  Si  Si10  1  0.84433700  0.61775900  0.80843800  1
  Si  Si11  1  0.84433700  0.38224100  0.30843800  1
  Si  Si12  1  0.29715200  0.61847200  0.88107400  1
  Si  Si13  1  0.29715200  0.38152800  0.38107400  1
  Si  Si14  1  0.48615200  0.36663200  0.68450000  1
  Si  Si15  1  0.48615200  0.63336800  0.18450000  1
  N  N16  1  0.74944500  0.84777300  0.80989400  1
  N  N17  1  0.74944500  0.15222700  0.30989400  1
  N  N18  1  0.54687900  0.13724500  0.96442500  1
  N  N19  1  0.54687900  0.86275500  0.46442500  1
  N  N20  1  0.30858500  0.86995200  0.86240700  1
  N  N21  1  0.30858500  0.13004800  0.36240700  1
  N  N22  1  0.15297500  0.15994700  0.04994100  1
  N  N23  1  0.15297500  0.84005300  0.54994100  1
  N  N24  1  0.28995900  0.50506500  0.72229100  1
  N  N25  1  0.28995900  0.49493500  0.22229100  1
  N  N26  1  0.44649500  0.12044800  0.66764700  1
  N  N27  1  0.44649500  0.87955200  0.16764700  1
  N  N28  1  0.87951400  0.38250000  0.13040200  1
  N  N29  1  0.87951400  0.61750000  0.63040200  1
  N  N30  1  0.07529800  0.56805000  0.93523800  1
  N  N31  1  0.07529800  0.43195000  0.43523800  1
  N  N32  1  0.70026400  0.41418800  0.82292100  1
  N  N33  1  0.70026400  0.58581200  0.32292100  1
  N  N34  1  0.49935800  0.54385600  0.01989900  1
  N  N35  1  0.49935800  0.45614400  0.51989900  1
