# generated using pymatgen
data_SrRu7N10
_symmetry_space_group_name_H-M   'P 1'
_cell_length_a   7.39882742
_cell_length_b   6.94359100
_cell_length_c   10.47275647
_cell_angle_alpha   90.00000000
_cell_angle_beta   104.47032359
_cell_angle_gamma   90.00000000
_symmetry_Int_Tables_number   1
_chemical_formula_structural   SrRu7N10
_chemical_formula_sum   'Sr2 Ru14 N20'
_cell_volume   520.96402844
_cell_formula_units_Z   2
loop_
 _symmetry_equiv_pos_site_id
 _symmetry_equiv_pos_as_xyz
  1  'x, y, z'
loop_
 _atom_site_type_symbol
 _atom_site_label
 _atom_site_symmetry_multiplicity
 _atom_site_fract_x
 _atom_site_fract_y
 _atom_site_fract_z
 _atom_site_occupancy
  Sr  Sr0  1  0.85339300  0.06629700  0.64831600  1
  Sr  Sr1  1  0.85339300  0.93370300  0.14831600  1
  Ru  Ru2  1  0.54217600  0.92618300  0.85676100  1
  Ru  Ru3  1  0.54217600  0.07381700  0.35676100  1
  Ru  Ru4  1  0.35287300  0.02949400  0.04138400  1
  Ru  Ru5  1  0.35287300  0.97050600  0.54138400  1
  Ru  Ru6  1  0.14658800  0.36661300  0.07453200  1
  Ru  Ru7  1  0.14658800  0.63338700  0.57453200  1
  Ru  Ru8  1  0.65424700  0.40028700  0.99529900  1
  Ru  Ru9  1  0.65424700  0.59971300  0.49529900  1
  Ru  Ru10  1  0.85747100  0.59979600  0.78268800  1
  Ru  Ru11  1  0.85747100  0.40020400  0.28268800  1
  Ru  Ru12  1  0.28842700  0.62767000  0.88684100  1
  Ru  Ru13  1  0.28842700  0.37233000  0.38684100  1
  Ru  Ru14  1  0.48702300  0.36152700  0.66445000  1
  Ru  Ru15  1  0.48702300  0.63847300  0.16444900  1
  N  N16  1  0.76662400  0.83366200  0.82052700  1
  N  N17  1  0.76662400  0.16633800  0.32052700  1
  N  N18  1  0.58145700  0.13404100  0.99119800  1
  N  N19  1  0.58145700  0.86595900  0.49119800  1
  N  N20  1  0.27158700  0.90083500  0.87238300  1
  N  N21  1  0.27158700  0.09916500  0.37238300  1
  N  N22  1  0.12417700  0.09835700  0.07643200  1
  N  N23  1  0.12417700  0.90164300  0.57643200  1
  N  N24  1  0.31362500  0.51792200  0.72432500  1
  N  N25  1  0.31362500  0.48207800  0.22432500  1
  N  N26  1  0.48016000  0.09414300  0.70264200  1
  N  N27  1  0.48016000  0.90585700  0.20264200  1
  N  N28  1  0.89774400  0.42165600  0.10742400  1
  N  N29  1  0.89774400  0.57834400  0.60742400  1
  N  N30  1  0.06982200  0.49897300  0.91092900  1
  N  N31  1  0.06982200  0.50102700  0.41092900  1
  N  N32  1  0.69213800  0.41233300  0.81908700  1
  N  N33  1  0.69213800  0.58766700  0.31908700  1
  N  N34  1  0.56276800  0.66987900  0.99408100  1
  N  N35  1  0.56276800  0.33012100  0.49408100  1
