# generated using pymatgen
data_Sr3Y2N4
_symmetry_space_group_name_H-M   'P 1'
_cell_length_a   6.35804293
_cell_length_b   12.49463901
_cell_length_c   10.23311732
_cell_angle_alpha   90.00000000
_cell_angle_beta   90.00000000
_cell_angle_gamma   90.00000000
_symmetry_Int_Tables_number   1
_chemical_formula_structural   Sr3Y2N4
_chemical_formula_sum   'Sr12 Y8 N16'
_cell_volume   812.93369041
_cell_formula_units_Z   4
loop_
 _symmetry_equiv_pos_site_id
 _symmetry_equiv_pos_as_xyz
  1  'x, y, z'
loop_
 _atom_site_type_symbol
 _atom_site_label
 _atom_site_symmetry_multiplicity
 _atom_site_fract_x
 _atom_site_fract_y
 _atom_site_fract_z
 _atom_site_occupancy
  Sr  Sr0  1  0.68260487  0.17266133  0.39616827  1
  Sr  Sr1  1  0.81739513  0.82733867  0.39616827  1
  Sr  Sr2  1  0.68260487  0.32733867  0.10383173  1
  Sr  Sr3  1  0.81739513  0.67266133  0.10383173  1
  Sr  Sr4  1  0.31739513  0.82733867  0.60383173  1
  Sr  Sr5  1  0.18260487  0.17266133  0.60383173  1
  Sr  Sr6  1  0.31739513  0.67266133  0.89616827  1
  Sr  Sr7  1  0.18260487  0.32733867  0.89616827  1
  Sr  Sr8  1  0.75000000  0.50000000  0.43774083  1
  Sr  Sr9  1  0.75000000  -0.00000000  0.06225917  1
  Sr  Sr10  1  0.25000000  0.50000000  0.56225917  1
  Sr  Sr11  1  0.25000000  -0.00000000  0.93774083  1
  Y  Y12  1  0.75000000  0.50000000  0.79035802  1
  Y  Y13  1  0.75000000  -0.00000000  0.70964198  1
  Y  Y14  1  0.25000000  0.50000000  0.20964198  1
  Y  Y15  1  0.25000000  -0.00000000  0.29035802  1
  Y  Y16  1  0.73152481  0.25000000  0.75000000  1
  Y  Y17  1  0.76847519  0.75000000  0.75000000  1
  Y  Y18  1  0.26847519  0.75000000  0.25000000  1
  Y  Y19  1  0.23152481  0.25000000  0.25000000  1
  N  N20  1  0.95579467  0.38456167  0.66659846  1
  N  N21  1  0.54420533  0.61543833  0.66659846  1
  N  N22  1  0.95579467  0.11543833  0.83340154  1
  N  N23  1  0.54420533  0.88456167  0.83340154  1
  N  N24  1  0.04420533  0.61543833  0.33340154  1
  N  N25  1  0.45579467  0.38456167  0.33340154  1
  N  N26  1  0.04420533  0.88456167  0.16659846  1
  N  N27  1  0.45579467  0.11543833  0.16659846  1
  N  N28  1  0.56134713  0.36378339  0.88068178  1
  N  N29  1  0.93865287  0.63621661  0.88068178  1
  N  N30  1  0.56134713  0.13621661  0.61931822  1
  N  N31  1  0.93865287  0.86378339  0.61931822  1
  N  N32  1  0.43865287  0.63621661  0.11931822  1
  N  N33  1  0.06134713  0.36378339  0.11931822  1
  N  N34  1  0.43865287  0.86378339  0.38068178  1
  N  N35  1  0.06134713  0.13621661  0.38068178  1
