# generated using pymatgen
data_LaMg2Ti3S8
_symmetry_space_group_name_H-M   'P 1'
_cell_length_a   7.75294001
_cell_length_b   7.75775862
_cell_length_c   7.75278624
_cell_angle_alpha   56.25768872
_cell_angle_beta   56.17391430
_cell_angle_gamma   56.15441686
_symmetry_Int_Tables_number   1
_chemical_formula_structural   LaMg2Ti3S8
_chemical_formula_sum   'La1 Mg2 Ti3 S8'
_cell_volume   300.68294201
_cell_formula_units_Z   1
loop_
 _symmetry_equiv_pos_site_id
 _symmetry_equiv_pos_as_xyz
  1  'x, y, z'
loop_
 _atom_site_type_symbol
 _atom_site_label
 _atom_site_symmetry_multiplicity
 _atom_site_fract_x
 _atom_site_fract_y
 _atom_site_fract_z
 _atom_site_occupancy
  La  La0  1  0.50000300  0.50001700  0.49997700  1
  Mg  Mg1  1  0.87153900  0.87253800  0.87143400  1
  Mg  Mg2  1  0.12846200  0.12746400  0.12856300  1
  Ti  Ti3  1  0.50000000  0.49999900  0.99999500  1
  Ti  Ti4  1  0.99999500  0.49999400  0.50000900  1
  Ti  Ti5  1  0.50000500  0.99999200  0.50000800  1
  S  S6  1  0.74169000  0.74135600  0.74219100  1
  S  S7  1  0.23941600  0.23964400  0.72825000  1
  S  S8  1  0.23853600  0.72781600  0.23989500  1
  S  S9  1  0.72783100  0.23868400  0.23973700  1
  S  S10  1  0.76144800  0.27218700  0.76009600  1
  S  S11  1  0.27217100  0.76131100  0.76026400  1
  S  S12  1  0.25831200  0.25863100  0.25782900  1
  S  S13  1  0.76059700  0.76036200  0.27175300  1
