# generated using pymatgen
data_SrVN2
_symmetry_space_group_name_H-M   'P 1'
_cell_length_a   6.29397011
_cell_length_b   7.38476900
_cell_length_c   5.72751562
_cell_angle_alpha   90.00000000
_cell_angle_beta   113.02558089
_cell_angle_gamma   90.00000000
_symmetry_Int_Tables_number   1
_chemical_formula_structural   SrVN2
_chemical_formula_sum   'Sr4 V4 N8'
_cell_volume   245.00311147
_cell_formula_units_Z   4
loop_
 _symmetry_equiv_pos_site_id
 _symmetry_equiv_pos_as_xyz
  1  'x, y, z'
loop_
 _atom_site_type_symbol
 _atom_site_label
 _atom_site_symmetry_multiplicity
 _atom_site_fract_x
 _atom_site_fract_y
 _atom_site_fract_z
 _atom_site_occupancy
  Sr  Sr0  1  0.34279600  0.92523300  0.68473200  1
  Sr  Sr1  1  0.65720400  0.42523300  0.81526800  1
  Sr  Sr2  1  0.65720400  0.07476700  0.31526800  1
  Sr  Sr3  1  0.34279600  0.57476700  0.18473200  1
  V  V4  1  0.12134600  0.35605000  0.57292000  1
  V  V5  1  0.87865400  0.85605000  0.92708000  1
  V  V6  1  0.87865400  0.64395000  0.42708000  1
  V  V7  1  0.12134600  0.14395000  0.07292000  1
  N  N8  1  0.20873100  0.90242000  0.07202700  1
  N  N9  1  0.79126900  0.40242000  0.42797300  1
  N  N10  1  0.79126900  0.09758000  0.92797300  1
  N  N11  1  0.20873100  0.59758000  0.57202700  1
  N  N12  1  0.26241100  0.27301500  0.90040200  1
  N  N13  1  0.73758900  0.77301500  0.59959800  1
  N  N14  1  0.73758900  0.72698500  0.09959800  1
  N  N15  1  0.26241100  0.22698500  0.40040200  1
