# generated using pymatgen
data_In2Ge5N8
_symmetry_space_group_name_H-M   'P 1'
_cell_length_a   11.40489402
_cell_length_b   10.42538909
_cell_length_c   14.37718798
_cell_angle_alpha   90.00000000
_cell_angle_beta   90.00000000
_cell_angle_gamma   90.00000000
_symmetry_Int_Tables_number   1
_chemical_formula_structural   In2Ge5N8
_chemical_formula_sum   'In16 Ge40 N64'
_cell_volume   1709.45423110
_cell_formula_units_Z   8
loop_
 _symmetry_equiv_pos_site_id
 _symmetry_equiv_pos_as_xyz
  1  'x, y, z'
loop_
 _atom_site_type_symbol
 _atom_site_label
 _atom_site_symmetry_multiplicity
 _atom_site_fract_x
 _atom_site_fract_y
 _atom_site_fract_z
 _atom_site_occupancy
  In  In0  1  0.09129098  0.13015901  0.00891045  1
  In  In1  1  0.59129098  0.36984099  0.99108955  1
  In  In2  1  0.90870902  0.63015901  0.49108955  1
  In  In3  1  0.40870902  0.86984099  0.50891045  1
  In  In4  1  0.90870902  0.86984099  0.99108955  1
  In  In5  1  0.40870902  0.63015901  0.00891045  1
  In  In6  1  0.09129098  0.36984099  0.50891045  1
  In  In7  1  0.59129098  0.13015901  0.49108955  1
  In  In8  1  0.40668666  0.06541715  0.05715324  1
  In  In9  1  0.90668666  0.43458285  0.94284676  1
  In  In10  1  0.59331334  0.56541715  0.44284676  1
  In  In11  1  0.09331334  0.93458285  0.55715324  1
  In  In12  1  0.59331334  0.93458285  0.94284676  1
  In  In13  1  0.09331334  0.56541715  0.05715324  1
  In  In14  1  0.40668666  0.43458285  0.55715324  1
  In  In15  1  0.90668666  0.06541715  0.44284676  1
  Ge  Ge16  1  0.39695042  0.24855079  0.83563709  1
  Ge  Ge17  1  0.89695042  0.25144921  0.16436291  1
  Ge  Ge18  1  0.60304958  0.74855079  0.66436291  1
  Ge  Ge19  1  0.10304958  0.75144921  0.33563709  1
  Ge  Ge20  1  0.60304958  0.75144921  0.16436291  1
  Ge  Ge21  1  0.10304958  0.74855079  0.83563709  1
  Ge  Ge22  1  0.39695042  0.25144921  0.33563709  1
  Ge  Ge23  1  0.89695042  0.24855079  0.66436291  1
  Ge  Ge24  1  0.16268537  0.24488361  0.71745550  1
  Ge  Ge25  1  0.66268537  0.25511639  0.28254450  1
  Ge  Ge26  1  0.83731463  0.74488361  0.78254450  1
  Ge  Ge27  1  0.33731463  0.75511639  0.21745550  1
  Ge  Ge28  1  0.83731463  0.75511639  0.28254450  1
  Ge  Ge29  1  0.33731463  0.74488361  0.71745550  1
  Ge  Ge30  1  0.16268537  0.25511639  0.21745550  1
  Ge  Ge31  1  0.66268537  0.24488361  0.78254450  1
  Ge  Ge32  1  0.24910201  0.99165290  0.83425761  1
  Ge  Ge33  1  0.74910201  0.50834710  0.16574239  1
  Ge  Ge34  1  0.75089799  0.49165290  0.66574239  1
  Ge  Ge35  1  0.25089799  0.00834710  0.33425761  1
  Ge  Ge36  1  0.75089799  0.00834710  0.16574239  1
  Ge  Ge37  1  0.25089799  0.49165290  0.83425761  1
  Ge  Ge38  1  0.24910201  0.50834710  0.33425761  1
  Ge  Ge39  1  0.74910201  0.99165290  0.66574239  1
  Ge  Ge40  1  0.98126286  0.01393016  0.78495287  1
  Ge  Ge41  1  0.48126286  0.48606984  0.21504713  1
  Ge  Ge42  1  0.01873714  0.51393016  0.71504713  1
  Ge  Ge43  1  0.51873714  0.98606984  0.28495287  1
  Ge  Ge44  1  0.01873714  0.98606984  0.21504713  1
  Ge  Ge45  1  0.51873714  0.51393016  0.78495287  1
  Ge  Ge46  1  0.98126286  0.48606984  0.28495287  1
  Ge  Ge47  1  0.48126286  0.01393016  0.71504713  1
  Ge  Ge48  1  0.82151037  0.14354824  0.96604557  1
  Ge  Ge49  1  0.32151037  0.35645176  0.03395443  1
  Ge  Ge50  1  0.17848963  0.64354824  0.53395443  1
  Ge  Ge51  1  0.67848963  0.85645176  0.46604557  1
  Ge  Ge52  1  0.17848963  0.85645176  0.03395443  1
  Ge  Ge53  1  0.67848963  0.64354824  0.96604557  1
  Ge  Ge54  1  0.82151037  0.35645176  0.46604557  1
  Ge  Ge55  1  0.32151037  0.14354824  0.53395443  1
  N  N56  1  0.92417348  0.24427730  0.03794660  1
  N  N57  1  0.42417348  0.25572270  0.96205340  1
  N  N58  1  0.07582652  0.74427730  0.46205340  1
  N  N59  1  0.57582652  0.75572270  0.53794660  1
  N  N60  1  0.07582652  0.75572270  0.96205340  1
  N  N61  1  0.57582652  0.74427730  0.03794660  1
  N  N62  1  0.92417348  0.25572270  0.53794660  1
  N  N63  1  0.42417348  0.24427730  0.46205340  1
  N  N64  1  0.94411185  0.05040392  0.90766906  1
  N  N65  1  0.44411185  0.44959608  0.09233094  1
  N  N66  1  0.05588815  0.55040392  0.59233094  1
  N  N67  1  0.55588815  0.94959608  0.40766906  1
  N  N68  1  0.05588815  0.94959608  0.09233094  1
  N  N69  1  0.55588815  0.55040392  0.90766906  1
  N  N70  1  0.94411185  0.44959608  0.40766906  1
  N  N71  1  0.44411185  0.05040392  0.59233094  1
  N  N72  1  0.72061342  0.25697151  0.90475821  1
  N  N73  1  0.22061342  0.24302849  0.09524179  1
  N  N74  1  0.27938658  0.75697151  0.59524179  1
  N  N75  1  0.77938658  0.74302849  0.40475821  1
  N  N76  1  0.27938658  0.74302849  0.09524179  1
  N  N77  1  0.77938658  0.75697151  0.90475821  1
  N  N78  1  0.72061342  0.24302849  0.40475821  1
  N  N79  1  0.22061342  0.25697151  0.59524179  1
  N  N80  1  0.24194400  0.99468702  0.96386061  1
  N  N81  1  0.74194400  0.50531298  0.03613939  1
  N  N82  1  0.75805600  0.49468702  0.53613939  1
  N  N83  1  0.25805600  0.00531298  0.46386061  1
  N  N84  1  0.75805600  0.00531298  0.03613939  1
  N  N85  1  0.25805600  0.49468702  0.96386061  1
  N  N86  1  0.24194400  0.50531298  0.46386061  1
  N  N87  1  0.74194400  0.99468702  0.53613939  1
  N  N88  1  0.01752596  0.16222335  0.72063176  1
  N  N89  1  0.51752596  0.33777665  0.27936824  1
  N  N90  1  0.98247404  0.66222335  0.77936824  1
  N  N91  1  0.48247404  0.83777665  0.22063176  1
  N  N92  1  0.98247404  0.83777665  0.27936824  1
  N  N93  1  0.48247404  0.66222335  0.72063176  1
  N  N94  1  0.01752596  0.33777665  0.22063176  1
  N  N95  1  0.51752596  0.16222335  0.77936824  1
  N  N96  1  0.36722158  0.90959432  0.76811812  1
  N  N97  1  0.86722158  0.59040568  0.23188188  1
  N  N98  1  0.63277842  0.40959432  0.73188188  1
  N  N99  1  0.13277842  0.09040568  0.26811812  1
  N  N100  1  0.63277842  0.09040568  0.23188188  1
  N  N101  1  0.13277842  0.40959432  0.76811812  1
  N  N102  1  0.36722158  0.59040568  0.26811812  1
  N  N103  1  0.86722158  0.90959432  0.73188188  1
  N  N104  1  0.25754120  0.16610731  0.80472580  1
  N  N105  1  0.75754120  0.33389269  0.19527420  1
  N  N106  1  0.74245880  0.66610731  0.69527420  1
  N  N107  1  0.24245880  0.83389269  0.30472580  1
  N  N108  1  0.74245880  0.83389269  0.19527420  1
  N  N109  1  0.24245880  0.66610731  0.80472580  1
  N  N110  1  0.25754120  0.33389269  0.30472580  1
  N  N111  1  0.75754120  0.16610731  0.69527420  1
  N  N112  1  0.11562490  0.91416308  0.78698627  1
  N  N113  1  0.61562490  0.58583692  0.21301373  1
  N  N114  1  0.88437510  0.41416308  0.71301373  1
  N  N115  1  0.38437510  0.08583692  0.28698627  1
  N  N116  1  0.88437510  0.08583692  0.21301373  1
  N  N117  1  0.38437510  0.41416308  0.78698627  1
  N  N118  1  0.11562490  0.58583692  0.28698627  1
  N  N119  1  0.61562490  0.91416308  0.71301373  1
