# generated using pymatgen
data_MgVWS4
_symmetry_space_group_name_H-M   'P 1'
_cell_length_a   6.99576246
_cell_length_b   7.25372902
_cell_length_c   7.26576102
_cell_angle_alpha   62.16312885
_cell_angle_beta   61.25749055
_cell_angle_gamma   61.20634575
_symmetry_Int_Tables_number   1
_chemical_formula_structural   MgVWS4
_chemical_formula_sum   'Mg2 V2 W2 S8'
_cell_volume   269.69064006
_cell_formula_units_Z   2
loop_
 _symmetry_equiv_pos_site_id
 _symmetry_equiv_pos_as_xyz
  1  'x, y, z'
loop_
 _atom_site_type_symbol
 _atom_site_label
 _atom_site_symmetry_multiplicity
 _atom_site_fract_x
 _atom_site_fract_y
 _atom_site_fract_z
 _atom_site_occupancy
  Mg  Mg0  1  0.87461093  0.87518449  0.87576096  1
  Mg  Mg1  1  0.12536799  0.12486733  0.12422303  1
  V  V2  1  0.49999130  0.49998728  0.00011418  1
  V  V3  1  0.49999806  0.99998231  0.50000322  1
  W  W4  1  0.49980024  0.50002927  0.49994041  1
  W  W5  1  0.00021274  0.49999100  0.49998698  1
  S  S6  1  0.73722308  0.73914512  0.73888124  1
  S  S7  1  0.25948713  0.25758207  0.72350464  1
  S  S8  1  0.25942247  0.72350411  0.25776835  1
  S  S9  1  0.71535414  0.26082510  0.26107800  1
  S  S10  1  0.74053271  0.27664529  0.74211842  1
  S  S11  1  0.28466242  0.73910835  0.73894766  1
  S  S12  1  0.26279600  0.26082184  0.26112438  1
  S  S13  1  0.74054481  0.74232145  0.27654952  1
