# generated using pymatgen
data_DyMgCrS4
_symmetry_space_group_name_H-M   'P 1'
_cell_length_a   7.65660740
_cell_length_b   7.55949674
_cell_length_c   7.56001313
_cell_angle_alpha   59.32218902
_cell_angle_beta   59.57498696
_cell_angle_gamma   59.57482603
_symmetry_Int_Tables_number   1
_chemical_formula_structural   DyMgCrS4
_chemical_formula_sum   'Dy2 Mg2 Cr2 S8'
_cell_volume   305.82343544
_cell_formula_units_Z   2
loop_
 _symmetry_equiv_pos_site_id
 _symmetry_equiv_pos_as_xyz
  1  'x, y, z'
loop_
 _atom_site_type_symbol
 _atom_site_label
 _atom_site_symmetry_multiplicity
 _atom_site_fract_x
 _atom_site_fract_y
 _atom_site_fract_z
 _atom_site_occupancy
  Dy  Dy0  1  0.49997500  0.50005700  0.50000400  1
  Dy  Dy1  1  0.99998100  0.50000500  0.50003800  1
  Mg  Mg2  1  0.87466800  0.87532800  0.87538100  1
  Mg  Mg3  1  0.12542300  0.12466600  0.12453000  1
  Cr  Cr4  1  0.49999400  0.50004200  0.99994600  1
  Cr  Cr5  1  0.49986100  0.99988100  0.50010200  1
  S  S6  1  0.71071300  0.75479400  0.75480200  1
  S  S7  1  0.27082100  0.22918900  0.72919600  1
  S  S8  1  0.27079400  0.72919600  0.22922000  1
  S  S9  1  0.72038400  0.24520700  0.24520600  1
  S  S10  1  0.72916500  0.27082400  0.77079300  1
  S  S11  1  0.27973400  0.75480600  0.75478700  1
  S  S12  1  0.28925300  0.24516500  0.24525800  1
  S  S13  1  0.72924000  0.77083600  0.27073600  1
