# generated using pymatgen
data_Ca(GeN)2
_symmetry_space_group_name_H-M   'P 1'
_cell_length_a   3.20168205
_cell_length_b   3.20150882
_cell_length_c   8.85056806
_cell_angle_alpha   89.99581849
_cell_angle_beta   89.99601130
_cell_angle_gamma   119.99978322
_symmetry_Int_Tables_number   1
_chemical_formula_structural   Ca(GeN)2
_chemical_formula_sum   'Ca1 Ge2 N2'
_cell_volume   78.56617805
_cell_formula_units_Z   1
loop_
 _symmetry_equiv_pos_site_id
 _symmetry_equiv_pos_as_xyz
  1  'x, y, z'
loop_
 _atom_site_type_symbol
 _atom_site_label
 _atom_site_symmetry_multiplicity
 _atom_site_fract_x
 _atom_site_fract_y
 _atom_site_fract_z
 _atom_site_occupancy
  Ca  Ca0  1  0.00000000  0.00000000  0.50000000  1
  Ge  Ge1  1  0.66675900  0.33343300  0.19601900  1
  Ge  Ge2  1  0.33324100  0.66656700  0.80398100  1
  N  N3  1  0.66661800  0.33328000  0.67913500  1
  N  N4  1  0.33338200  0.66672000  0.32086500  1
