# generated using pymatgen
data_SmMg2Ti3S8
_symmetry_space_group_name_H-M   'P 1'
_cell_length_a   7.64737923
_cell_length_b   7.64868143
_cell_length_c   7.63357142
_cell_angle_alpha   57.56627857
_cell_angle_beta   57.54278411
_cell_angle_gamma   57.61436597
_symmetry_Int_Tables_number   1
_chemical_formula_structural   SmMg2Ti3S8
_chemical_formula_sum   'Sm1 Mg2 Ti3 S8'
_cell_volume   298.12063988
_cell_formula_units_Z   1
loop_
 _symmetry_equiv_pos_site_id
 _symmetry_equiv_pos_as_xyz
  1  'x, y, z'
loop_
 _atom_site_type_symbol
 _atom_site_label
 _atom_site_symmetry_multiplicity
 _atom_site_fract_x
 _atom_site_fract_y
 _atom_site_fract_z
 _atom_site_occupancy
  Sm  Sm0  1  0.50000100  0.50001600  0.49997900  1
  Mg  Mg1  1  0.87305100  0.87247700  0.87189100  1
  Mg  Mg2  1  0.12695200  0.12752600  0.12811100  1
  Ti  Ti3  1  0.50000100  0.49999400  0.00000000  1
  Ti  Ti4  1  0.99999800  0.49999300  0.50001300  1
  Ti  Ti5  1  0.50000000  0.99999200  0.50000900  1
  S  S6  1  0.74103000  0.74127800  0.74159000  1
  S  S7  1  0.24276900  0.24264900  0.72770300  1
  S  S8  1  0.24316000  0.72775000  0.24225500  1
  S  S9  1  0.72714100  0.24333200  0.24255600  1
  S  S10  1  0.75682900  0.27225300  0.75773000  1
  S  S11  1  0.27286100  0.75666100  0.75744300  1
  S  S12  1  0.25896800  0.25871200  0.25842800  1
  S  S13  1  0.75724300  0.75736100  0.27229500  1
