# generated using pymatgen
data_Mg5(SiN3)2
_symmetry_space_group_name_H-M   'P 1'
_cell_length_a   10.52756800
_cell_length_b   10.52756800
_cell_length_c   5.67542400
_cell_angle_alpha   90.00000000
_cell_angle_beta   90.00000000
_cell_angle_gamma   90.00000000
_symmetry_Int_Tables_number   1
_chemical_formula_structural   Mg5(SiN3)2
_chemical_formula_sum   'Mg20 Si8 N24'
_cell_volume   629.00547116
_cell_formula_units_Z   4
loop_
 _symmetry_equiv_pos_site_id
 _symmetry_equiv_pos_as_xyz
  1  'x, y, z'
loop_
 _atom_site_type_symbol
 _atom_site_label
 _atom_site_symmetry_multiplicity
 _atom_site_fract_x
 _atom_site_fract_y
 _atom_site_fract_z
 _atom_site_occupancy
  Mg  Mg0  1  0.27434300  0.10303300  0.84850900  1
  Mg  Mg1  1  0.22565700  0.60303300  0.84850900  1
  Mg  Mg2  1  0.72565700  0.89696700  0.84850900  1
  Mg  Mg3  1  0.77434300  0.39696700  0.84850900  1
  Mg  Mg4  1  0.89696700  0.27434300  0.15149100  1
  Mg  Mg5  1  0.60303300  0.77434300  0.15149100  1
  Mg  Mg6  1  0.10303300  0.72565700  0.15149100  1
  Mg  Mg7  1  0.39696700  0.22565700  0.15149100  1
  Mg  Mg8  1  0.50000000  0.00000000  0.00000000  1
  Mg  Mg9  1  0.00000000  0.50000000  0.00000000  1
  Mg  Mg10  1  0.40274200  0.39477100  0.67822400  1
  Mg  Mg11  1  0.09725800  0.89477100  0.67822400  1
  Mg  Mg12  1  0.59725800  0.60522900  0.67822400  1
  Mg  Mg13  1  0.90274200  0.10522900  0.67822400  1
  Mg  Mg14  1  0.60522900  0.40274200  0.32177600  1
  Mg  Mg15  1  0.89477100  0.90274200  0.32177600  1
  Mg  Mg16  1  0.39477100  0.59725800  0.32177600  1
  Mg  Mg17  1  0.10522900  0.09725800  0.32177600  1
  Mg  Mg18  1  0.50000000  0.00000000  0.50000000  1
  Mg  Mg19  1  0.00000000  0.50000000  0.50000000  1
  Si  Si20  1  0.60436100  0.22754700  0.75144300  1
  Si  Si21  1  0.89563900  0.72754700  0.75144300  1
  Si  Si22  1  0.39563900  0.77245300  0.75144300  1
  Si  Si23  1  0.10436100  0.27245300  0.75144300  1
  Si  Si24  1  0.77245300  0.60436100  0.24855700  1
  Si  Si25  1  0.72754700  0.10436100  0.24855700  1
  Si  Si26  1  0.22754700  0.39563900  0.24855700  1
  Si  Si27  1  0.27245300  0.89563900  0.24855700  1
  N  N28  1  0.45504700  0.16715000  0.80873000  1
  N  N29  1  0.04495300  0.66715000  0.80873000  1
  N  N30  1  0.54495300  0.83285000  0.80873000  1
  N  N31  1  0.95504700  0.33285000  0.80873000  1
  N  N32  1  0.83285000  0.45504700  0.19127000  1
  N  N33  1  0.66715000  0.95504700  0.19127000  1
  N  N34  1  0.16715000  0.54495300  0.19127000  1
  N  N35  1  0.33285000  0.04495300  0.19127000  1
  N  N36  1  0.60419100  0.39391500  0.69581800  1
  N  N37  1  0.89580900  0.89391500  0.69581800  1
  N  N38  1  0.39580900  0.60608500  0.69581800  1
  N  N39  1  0.10419200  0.10608500  0.69581800  1
  N  N40  1  0.60608500  0.60419100  0.30418200  1
  N  N41  1  0.89391500  0.10419200  0.30418200  1
  N  N42  1  0.39391500  0.39580900  0.30418200  1
  N  N43  1  0.10608500  0.89580900  0.30418200  1
  N  N44  1  0.20824000  0.29176000  0.00000000  1
  N  N45  1  0.29176000  0.79176000  0.00000000  1
  N  N46  1  0.79176000  0.70824000  0.00000000  1
  N  N47  1  0.70824000  0.20824000  0.00000000  1
  N  N48  1  0.64595100  0.14595100  0.50000000  1
  N  N49  1  0.85404900  0.64595100  0.50000000  1
  N  N50  1  0.35404900  0.85404900  0.50000000  1
  N  N51  1  0.14595100  0.35404900  0.50000000  1
