# generated using pymatgen
data_Nb4Te3N2
_symmetry_space_group_name_H-M   'P 1'
_cell_length_a   5.79920500
_cell_length_b   10.50425300
_cell_length_c   12.52690600
_cell_angle_alpha   90.00000000
_cell_angle_beta   90.00000000
_cell_angle_gamma   90.00000000
_symmetry_Int_Tables_number   1
_chemical_formula_structural   Nb4Te3N2
_chemical_formula_sum   'Nb16 Te12 N8'
_cell_volume   763.09297090
_cell_formula_units_Z   4
loop_
 _symmetry_equiv_pos_site_id
 _symmetry_equiv_pos_as_xyz
  1  'x, y, z'
loop_
 _atom_site_type_symbol
 _atom_site_label
 _atom_site_symmetry_multiplicity
 _atom_site_fract_x
 _atom_site_fract_y
 _atom_site_fract_z
 _atom_site_occupancy
  Nb  Nb0  1  0.60879000  0.25000000  0.83650600  1
  Nb  Nb1  1  0.10879000  0.25000000  0.66349400  1
  Nb  Nb2  1  0.39121000  0.75000000  0.16349400  1
  Nb  Nb3  1  0.89121000  0.75000000  0.33650600  1
  Nb  Nb4  1  0.66040600  0.25000000  0.55566400  1
  Nb  Nb5  1  0.16040600  0.25000000  0.94433600  1
  Nb  Nb6  1  0.33959400  0.75000000  0.44433600  1
  Nb  Nb7  1  0.83959400  0.75000000  0.05566400  1
  Nb  Nb8  1  0.74144400  0.46043500  0.01217500  1
  Nb  Nb9  1  0.24144400  0.03956500  0.48782500  1
  Nb  Nb10  1  0.25855600  0.96043500  0.98782500  1
  Nb  Nb11  1  0.75855600  0.53956500  0.51217500  1
  Nb  Nb12  1  0.25855600  0.53956500  0.98782500  1
  Nb  Nb13  1  0.75855600  0.96043500  0.51217500  1
  Nb  Nb14  1  0.74144400  0.03956500  0.01217500  1
  Nb  Nb15  1  0.24144400  0.46043500  0.48782500  1
  Te  Te16  1  0.87180800  0.25000000  0.13314400  1
  Te  Te17  1  0.37180800  0.25000000  0.36685600  1
  Te  Te18  1  0.12819200  0.75000000  0.86685600  1
  Te  Te19  1  0.62819200  0.75000000  0.63314400  1
  Te  Te20  1  0.53789800  0.55309900  0.31636400  1
  Te  Te21  1  0.03789800  0.94690100  0.18363600  1
  Te  Te22  1  0.46210200  0.05309900  0.68363600  1
  Te  Te23  1  0.96210200  0.44690100  0.81636400  1
  Te  Te24  1  0.46210200  0.44690100  0.68363600  1
  Te  Te25  1  0.96210200  0.05309900  0.81636400  1
  Te  Te26  1  0.53789800  0.94690100  0.31636400  1
  Te  Te27  1  0.03789800  0.55309900  0.18363600  1
  N  N28  1  0.55399300  0.61992500  0.05489300  1
  N  N29  1  0.05399300  0.88007500  0.44510700  1
  N  N30  1  0.44600700  0.11992500  0.94510700  1
  N  N31  1  0.94600700  0.38007500  0.55489300  1
  N  N32  1  0.44600700  0.38007500  0.94510700  1
  N  N33  1  0.94600700  0.11992500  0.55489300  1
  N  N34  1  0.55399300  0.88007500  0.05489300  1
  N  N35  1  0.05399300  0.61992500  0.44510700  1
