# generated using pymatgen
data_Li3V6N11
_symmetry_space_group_name_H-M   'P 1'
_cell_length_a   10.55237000
_cell_length_b   10.55237000
_cell_length_c   5.20061400
_cell_angle_alpha   90.00000000
_cell_angle_beta   90.00000000
_cell_angle_gamma   90.00000000
_symmetry_Int_Tables_number   1
_chemical_formula_structural   Li3V6N11
_chemical_formula_sum   'Li6 V12 N22'
_cell_volume   579.10143605
_cell_formula_units_Z   2
loop_
 _symmetry_equiv_pos_site_id
 _symmetry_equiv_pos_as_xyz
  1  'x, y, z'
loop_
 _atom_site_type_symbol
 _atom_site_label
 _atom_site_symmetry_multiplicity
 _atom_site_fract_x
 _atom_site_fract_y
 _atom_site_fract_z
 _atom_site_occupancy
  Li  Li0  1  0.30843900  0.80843900  0.85670800  1
  Li  Li1  1  0.69156100  0.19156100  0.85670800  1
  Li  Li2  1  0.19156100  0.30843900  0.85670800  1
  Li  Li3  1  0.80843900  0.69156100  0.85670800  1
  Li  Li4  1  0.50000000  0.50000000  0.87411100  1
  Li  Li5  1  0.00000000  0.00000000  0.87411100  1
  V  V6  1  0.42486900  0.28741300  0.55319100  1
  V  V7  1  0.57513100  0.71258700  0.55319100  1
  V  V8  1  0.07513100  0.78741300  0.55319100  1
  V  V9  1  0.92486900  0.21258700  0.55319100  1
  V  V10  1  0.28741300  0.57513100  0.55319100  1
  V  V11  1  0.71258700  0.42486900  0.55319100  1
  V  V12  1  0.78741300  0.92486900  0.55319100  1
  V  V13  1  0.21258700  0.07513100  0.55319100  1
  V  V14  1  0.88105700  0.38105700  0.07672500  1
  V  V15  1  0.11894300  0.61894300  0.07672500  1
  V  V16  1  0.61894300  0.88105700  0.07672500  1
  V  V17  1  0.38105700  0.11894300  0.07672500  1
  N  N18  1  0.32397600  0.41651300  0.65193800  1
  N  N19  1  0.67602400  0.58348700  0.65193800  1
  N  N20  1  0.17602400  0.91651300  0.65193800  1
  N  N21  1  0.82397600  0.08348700  0.65193800  1
  N  N22  1  0.41651300  0.67602400  0.65193800  1
  N  N23  1  0.58348700  0.32397600  0.65193800  1
  N  N24  1  0.91651300  0.82397600  0.65193800  1
  N  N25  1  0.08348700  0.17602400  0.65193800  1
  N  N26  1  0.42795000  0.26631500  0.21474000  1
  N  N27  1  0.57205000  0.73368500  0.21474000  1
  N  N28  1  0.07205000  0.76631500  0.21474000  1
  N  N29  1  0.92795000  0.23368500  0.21474000  1
  N  N30  1  0.26631500  0.57205000  0.21474000  1
  N  N31  1  0.73368500  0.42795000  0.21474000  1
  N  N32  1  0.76631500  0.92795000  0.21474000  1
  N  N33  1  0.23368500  0.07205000  0.21474000  1
  N  N34  1  0.85207600  0.35207600  0.72161600  1
  N  N35  1  0.14792400  0.64792400  0.72161600  1
  N  N36  1  0.64792400  0.85207600  0.72161600  1
  N  N37  1  0.35207600  0.14792400  0.72161600  1
  N  N38  1  0.50000000  0.00000000  0.10485200  1
  N  N39  1  0.00000000  0.50000000  0.10485200  1
