# generated using pymatgen
data_CaSi7N10
_symmetry_space_group_name_H-M   'P 1'
_cell_length_a   6.85990893
_cell_length_b   6.80786800
_cell_length_c   9.67332633
_cell_angle_alpha   90.00000000
_cell_angle_beta   105.41876907
_cell_angle_gamma   90.00000000
_symmetry_Int_Tables_number   1
_chemical_formula_structural   CaSi7N10
_chemical_formula_sum   'Ca2 Si14 N20'
_cell_volume   435.49795115
_cell_formula_units_Z   2
loop_
 _symmetry_equiv_pos_site_id
 _symmetry_equiv_pos_as_xyz
  1  'x, y, z'
loop_
 _atom_site_type_symbol
 _atom_site_label
 _atom_site_symmetry_multiplicity
 _atom_site_fract_x
 _atom_site_fract_y
 _atom_site_fract_z
 _atom_site_occupancy
  Ca  Ca0  1  0.91118900  0.00543600  0.62351500  1
  Ca  Ca1  1  0.91118900  0.99456400  0.12351500  1
  Si  Si2  1  0.54202000  0.97615800  0.82862300  1
  Si  Si3  1  0.54202000  0.02384200  0.32862300  1
  Si  Si4  1  0.35537900  0.02497500  0.01943500  1
  Si  Si5  1  0.35537900  0.97502500  0.51943500  1
  Si  Si6  1  0.11208900  0.39604800  0.07643300  1
  Si  Si7  1  0.11208900  0.60395200  0.57643300  1
  Si  Si8  1  0.66467600  0.36958900  0.99328100  1
  Si  Si9  1  0.66467600  0.63041100  0.49328100  1
  Si  Si10  1  0.85159700  0.62710500  0.81209400  1
  Si  Si11  1  0.85159700  0.37289500  0.31209400  1
  Si  Si12  1  0.29787900  0.62100400  0.88558100  1
  Si  Si13  1  0.29787900  0.37899600  0.38558100  1
  Si  Si14  1  0.48547000  0.37109500  0.68996300  1
  Si  Si15  1  0.48547000  0.62890500  0.18996300  1
  N  N16  1  0.75680400  0.85126700  0.83561000  1
  N  N17  1  0.75680400  0.14873300  0.33561000  1
  N  N18  1  0.57063500  0.13410500  0.97837800  1
  N  N19  1  0.57063500  0.86589500  0.47837800  1
  N  N20  1  0.32584200  0.87015700  0.86894000  1
  N  N21  1  0.32584200  0.12984300  0.36894000  1
  N  N22  1  0.15921900  0.16310500  0.03221900  1
  N  N23  1  0.15921900  0.83689500  0.53221900  1
  N  N24  1  0.28754700  0.50209700  0.72648000  1
  N  N25  1  0.28754700  0.49790300  0.22648000  1
  N  N26  1  0.45594900  0.11831600  0.67384600  1
  N  N27  1  0.45594900  0.88168400  0.17384600  1
  N  N28  1  0.88629100  0.37618700  0.13338300  1
  N  N29  1  0.88629100  0.62381300  0.63338300  1
  N  N30  1  0.07956600  0.57676100  0.94012000  1
  N  N31  1  0.07956600  0.42323900  0.44012000  1
  N  N32  1  0.70282600  0.42225600  0.82586500  1
  N  N33  1  0.70282600  0.57774400  0.32586500  1
  N  N34  1  0.49732200  0.53826400  0.02553300  1
  N  N35  1  0.49732200  0.46173600  0.52553300  1
