# generated using pymatgen
data_In2NiN2
_symmetry_space_group_name_H-M   'P 1'
_cell_length_a   3.33714000
_cell_length_b   3.38953100
_cell_length_c   11.83799300
_cell_angle_alpha   90.00000000
_cell_angle_beta   90.00000000
_cell_angle_gamma   90.00000000
_symmetry_Int_Tables_number   1
_chemical_formula_structural   In2NiN2
_chemical_formula_sum   'In4 Ni2 N4'
_cell_volume   133.90355760
_cell_formula_units_Z   2
loop_
 _symmetry_equiv_pos_site_id
 _symmetry_equiv_pos_as_xyz
  1  'x, y, z'
loop_
 _atom_site_type_symbol
 _atom_site_label
 _atom_site_symmetry_multiplicity
 _atom_site_fract_x
 _atom_site_fract_y
 _atom_site_fract_z
 _atom_site_occupancy
  In  In0  1  0.75000000  0.74885800  0.10343900  1
  In  In1  1  0.75000000  0.74885800  0.39656100  1
  In  In2  1  0.25000000  0.25114200  0.89656100  1
  In  In3  1  0.25000000  0.25114200  0.60343900  1
  Ni  Ni4  1  0.75000000  0.83514200  0.75000000  1
  Ni  Ni5  1  0.25000000  0.16485800  0.25000000  1
  N  N6  1  0.75000000  0.72754200  0.59198800  1
  N  N7  1  0.75000000  0.72754200  0.90801200  1
  N  N8  1  0.25000000  0.27245800  0.40801200  1
  N  N9  1  0.25000000  0.27245800  0.09198800  1
