# generated using pymatgen
data_Li7Co5O12
_symmetry_space_group_name_H-M   'P 1'
_cell_length_a   6.43170657
_cell_length_b   10.06499804
_cell_length_c   6.59226596
_cell_angle_alpha   98.34109835
_cell_angle_beta   83.58703146
_cell_angle_gamma   96.49432407
_symmetry_Int_Tables_number   1
_chemical_formula_structural   Li7Co5O12
_chemical_formula_sum   'Li14 Co10 O24'
_cell_volume   417.55209992
_cell_formula_units_Z   2
loop_
 _symmetry_equiv_pos_site_id
 _symmetry_equiv_pos_as_xyz
  1  'x, y, z'
loop_
 _atom_site_type_symbol
 _atom_site_label
 _atom_site_symmetry_multiplicity
 _atom_site_fract_x
 _atom_site_fract_y
 _atom_site_fract_z
 _atom_site_occupancy
  Li  Li0  1  0.83366700  0.25022400  0.16745900  1
  Li  Li1  1  0.83315400  0.74962400  0.16609400  1
  Li  Li2  1  0.07505700  0.13134300  0.40752400  1
  Li  Li3  1  0.07653100  0.63357400  0.40467800  1
  Li  Li4  1  0.59017500  0.36653500  0.92862700  1
  Li  Li5  1  0.59158200  0.86866900  0.92591400  1
  Li  Li6  1  0.74765900  0.12148800  0.74814400  1
  Li  Li7  1  0.74546700  0.62203200  0.74845300  1
  Li  Li8  1  0.41588800  0.12097700  0.08497400  1
  Li  Li9  1  0.41434300  0.61887900  0.08245900  1
  Li  Li10  1  0.25255700  0.38133200  0.25072300  1
  Li  Li11  1  0.25063300  0.87905500  0.24815000  1
  Li  Li12  1  0.92136300  0.37799000  0.58486600  1
  Li  Li13  1  0.91878900  0.87850500  0.58537800  1
  Co  Co14  1  0.33334700  0.49999600  0.66661300  1
  Co  Co15  1  0.33317800  0.99991700  0.66662300  1
  Co  Co16  1  0.99780800  0.50162200  0.00634900  1
  Co  Co17  1  0.99539100  0.00210200  0.00568600  1
  Co  Co18  1  0.67105800  0.99797400  0.32776700  1
  Co  Co19  1  0.66907400  0.49832300  0.32693600  1
  Co  Co20  1  0.50809800  0.25140500  0.49237300  1
  Co  Co21  1  0.50924200  0.75132200  0.48941400  1
  Co  Co22  1  0.15745600  0.24862600  0.84386300  1
  Co  Co23  1  0.15852000  0.74860600  0.84095800  1
  O  O24  1  0.44398400  0.18322200  0.78853900  1
  O  O25  1  0.43980000  0.68074400  0.78192400  1
  O  O26  1  0.22687300  0.31926100  0.55128000  1
  O  O27  1  0.22251500  0.81668800  0.54477800  1
  O  O28  1  0.94217200  0.44916400  0.28029200  1
  O  O29  1  0.94280500  0.94863600  0.27825800  1
  O  O30  1  0.72394000  0.05135300  0.05511100  1
  O  O31  1  0.72454300  0.55089600  0.05311300  1
  O  O32  1  0.11583800  0.17094000  0.11103000  1
  O  O33  1  0.11644200  0.67191500  0.10915100  1
  O  O34  1  0.77096300  0.17792500  0.45413600  1
  O  O35  1  0.77096300  0.67724300  0.45307400  1
  O  O36  1  0.89585500  0.32279200  0.88036600  1
  O  O37  1  0.89558700  0.82204300  0.87933200  1
  O  O38  1  0.55044400  0.32815300  0.22416800  1
  O  O39  1  0.55071800  0.82896500  0.22231800  1
  O  O40  1  0.61577400  0.44290300  0.60058100  1
  O  O41  1  0.62572000  0.93959100  0.59863400  1
  O  O42  1  0.26998100  0.43755500  0.95957000  1
  O  O43  1  0.27098200  0.93940900  0.95479600  1
  O  O44  1  0.39557900  0.06057500  0.37852600  1
  O  O45  1  0.39683600  0.56244800  0.37355500  1
  O  O46  1  0.04068500  0.06033600  0.73478400  1
  O  O47  1  0.05096400  0.55712400  0.73266000  1
