# generated using pymatgen
data_Ca3(TiN2)2
_symmetry_space_group_name_H-M   'P 1'
_cell_length_a   5.85508300
_cell_length_b   10.11812700
_cell_length_c   9.24506500
_cell_angle_alpha   90.00000000
_cell_angle_beta   90.00000000
_cell_angle_gamma   90.00000000
_symmetry_Int_Tables_number   1
_chemical_formula_structural   Ca3(TiN2)2
_chemical_formula_sum   'Ca12 Ti8 N16'
_cell_volume   547.70051725
_cell_formula_units_Z   4
loop_
 _symmetry_equiv_pos_site_id
 _symmetry_equiv_pos_as_xyz
  1  'x, y, z'
loop_
 _atom_site_type_symbol
 _atom_site_label
 _atom_site_symmetry_multiplicity
 _atom_site_fract_x
 _atom_site_fract_y
 _atom_site_fract_z
 _atom_site_occupancy
  Ca  Ca0  1  0.61593800  0.15613000  0.42312500  1
  Ca  Ca1  1  0.88406200  0.84387000  0.42312500  1
  Ca  Ca2  1  0.61593800  0.34387000  0.07687500  1
  Ca  Ca3  1  0.88406200  0.65613000  0.07687500  1
  Ca  Ca4  1  0.38406200  0.84387000  0.57687500  1
  Ca  Ca5  1  0.11593800  0.15613000  0.57687500  1
  Ca  Ca6  1  0.38406200  0.65613000  0.92312500  1
  Ca  Ca7  1  0.11593800  0.34387000  0.92312500  1
  Ca  Ca8  1  0.75000000  0.50000000  0.39915300  1
  Ca  Ca9  1  0.75000000  0.00000000  0.10084700  1
  Ca  Ca10  1  0.25000000  0.50000000  0.60084700  1
  Ca  Ca11  1  0.25000000  0.00000000  0.89915300  1
  Ti  Ti12  1  0.75000000  0.50000000  0.73175700  1
  Ti  Ti13  1  0.75000000  0.00000000  0.76824300  1
  Ti  Ti14  1  0.25000000  0.50000000  0.26824300  1
  Ti  Ti15  1  0.25000000  0.00000000  0.23175700  1
  Ti  Ti16  1  0.63987200  0.25000000  0.75000000  1
  Ti  Ti17  1  0.86012800  0.75000000  0.75000000  1
  Ti  Ti18  1  0.36012800  0.75000000  0.25000000  1
  Ti  Ti19  1  0.13987200  0.25000000  0.25000000  1
  N  N20  1  0.84398000  0.34875200  0.61307400  1
  N  N21  1  0.65602000  0.65124800  0.61307400  1
  N  N22  1  0.84398000  0.15124800  0.88692600  1
  N  N23  1  0.65602000  0.84875200  0.88692600  1
  N  N24  1  0.15602000  0.65124800  0.38692600  1
  N  N25  1  0.34398000  0.34875200  0.38692600  1
  N  N26  1  0.15602000  0.84875200  0.11307400  1
  N  N27  1  0.34398000  0.15124800  0.11307400  1
  N  N28  1  0.48921100  0.41406300  0.83283800  1
  N  N29  1  0.01078900  0.58593700  0.83283800  1
  N  N30  1  0.48921100  0.08593700  0.66716200  1
  N  N31  1  0.01078900  0.91406300  0.66716200  1
  N  N32  1  0.51078900  0.58593700  0.16716200  1
  N  N33  1  0.98921100  0.41406300  0.16716200  1
  N  N34  1  0.51078900  0.91406300  0.33283800  1
  N  N35  1  0.98921100  0.08593700  0.33283800  1
