# generated using pymatgen
data_KSbN2
_symmetry_space_group_name_H-M   'P 1'
_cell_length_a   5.96312900
_cell_length_b   11.95437300
_cell_length_c   16.65904500
_cell_angle_alpha   90.00000000
_cell_angle_beta   90.00000000
_cell_angle_gamma   90.00000000
_symmetry_Int_Tables_number   1
_chemical_formula_structural   KSbN2
_chemical_formula_sum   'K16 Sb16 N32'
_cell_volume   1187.54782447
_cell_formula_units_Z   16
loop_
 _symmetry_equiv_pos_site_id
 _symmetry_equiv_pos_as_xyz
  1  'x, y, z'
loop_
 _atom_site_type_symbol
 _atom_site_label
 _atom_site_symmetry_multiplicity
 _atom_site_fract_x
 _atom_site_fract_y
 _atom_site_fract_z
 _atom_site_occupancy
  K  K0  1  0.25684600  0.00867400  0.44031600  1
  K  K1  1  0.75684600  0.49132600  0.55968400  1
  K  K2  1  0.74315400  0.50867400  0.05968400  1
  K  K3  1  0.24315400  0.99132600  0.94031600  1
  K  K4  1  0.74315400  0.99132600  0.55968400  1
  K  K5  1  0.24315400  0.50867400  0.44031600  1
  K  K6  1  0.25684600  0.49132600  0.94031600  1
  K  K7  1  0.75684600  0.00867400  0.05968400  1
  K  K8  1  0.29805500  0.26485700  0.31580100  1
  K  K9  1  0.79805500  0.23514300  0.68419900  1
  K  K10  1  0.70194500  0.76485700  0.18419900  1
  K  K11  1  0.20194500  0.73514300  0.81580100  1
  K  K12  1  0.70194500  0.73514300  0.68419900  1
  K  K13  1  0.20194500  0.76485700  0.31580100  1
  K  K14  1  0.29805500  0.23514300  0.81580100  1
  K  K15  1  0.79805500  0.26485700  0.18419900  1
  Sb  Sb16  1  0.77149900  0.00877400  0.31168600  1
  Sb  Sb17  1  0.27149900  0.49122600  0.68831400  1
  Sb  Sb18  1  0.22850100  0.50877400  0.18831400  1
  Sb  Sb19  1  0.72850100  0.99122600  0.81168600  1
  Sb  Sb20  1  0.22850100  0.99122600  0.68831400  1
  Sb  Sb21  1  0.72850100  0.50877400  0.31168600  1
  Sb  Sb22  1  0.77149900  0.49122600  0.81168600  1
  Sb  Sb23  1  0.27149900  0.00877400  0.18831400  1
  Sb  Sb24  1  0.77799400  0.26089700  0.43596400  1
  Sb  Sb25  1  0.27799400  0.23910300  0.56403600  1
  Sb  Sb26  1  0.22200600  0.76089700  0.06403600  1
  Sb  Sb27  1  0.72200600  0.73910300  0.93596400  1
  Sb  Sb28  1  0.22200600  0.73910300  0.56403600  1
  Sb  Sb29  1  0.72200600  0.76089700  0.43596400  1
  Sb  Sb30  1  0.77799400  0.23910300  0.93596400  1
  Sb  Sb31  1  0.27799400  0.26089700  0.06403600  1
  N  N32  1  0.03979100  0.31927800  0.50073300  1
  N  N33  1  0.53979100  0.18072200  0.49926700  1
  N  N34  1  0.96020900  0.81927800  0.99926700  1
  N  N35  1  0.46020900  0.68072200  0.00073300  1
  N  N36  1  0.96020900  0.68072200  0.49926700  1
  N  N37  1  0.46020900  0.81927800  0.50073300  1
  N  N38  1  0.03979100  0.18072200  0.00073300  1
  N  N39  1  0.53979100  0.31927800  0.99926700  1
  N  N40  1  0.63242400  0.40419000  0.40000700  1
  N  N41  1  0.13242400  0.09581000  0.59999300  1
  N  N42  1  0.36757600  0.90419000  0.09999300  1
  N  N43  1  0.86757600  0.59581000  0.90000700  1
  N  N44  1  0.36757600  0.59581000  0.59999300  1
  N  N45  1  0.86757600  0.90419000  0.40000700  1
  N  N46  1  0.63242400  0.09581000  0.90000700  1
  N  N47  1  0.13242400  0.40419000  0.09999300  1
  N  N48  1  0.87520000  0.16472000  0.34217200  1
  N  N49  1  0.37520000  0.33528000  0.65782800  1
  N  N50  1  0.12480000  0.66472000  0.15782800  1
  N  N51  1  0.62480000  0.83528000  0.84217200  1
  N  N52  1  0.12480000  0.83528000  0.65782800  1
  N  N53  1  0.62480000  0.66472000  0.34217200  1
  N  N54  1  0.87520000  0.33528000  0.84217200  1
  N  N55  1  0.37520000  0.16472000  0.15782800  1
  N  N56  1  0.55557900  0.47589500  0.20988100  1
  N  N57  1  0.05557900  0.02410500  0.79011900  1
  N  N58  1  0.44442100  0.97589500  0.29011900  1
  N  N59  1  0.94442100  0.52410500  0.70988100  1
  N  N60  1  0.44442100  0.52410500  0.79011900  1
  N  N61  1  0.94442100  0.97589500  0.20988100  1
  N  N62  1  0.55557900  0.02410500  0.70988100  1
  N  N63  1  0.05557900  0.47589500  0.29011900  1
