# generated using pymatgen
data_Mg2VGa3S8
_symmetry_space_group_name_H-M   'P 1'
_cell_length_a   7.31204675
_cell_length_b   7.37493910
_cell_length_c   7.33960434
_cell_angle_alpha   59.68792584
_cell_angle_beta   60.06754947
_cell_angle_gamma   59.75539573
_symmetry_Int_Tables_number   1
_chemical_formula_structural   Mg2VGa3S8
_chemical_formula_sum   'Mg2 V1 Ga3 S8'
_cell_volume   278.82652758
_cell_formula_units_Z   1
loop_
 _symmetry_equiv_pos_site_id
 _symmetry_equiv_pos_as_xyz
  1  'x, y, z'
loop_
 _atom_site_type_symbol
 _atom_site_label
 _atom_site_symmetry_multiplicity
 _atom_site_fract_x
 _atom_site_fract_y
 _atom_site_fract_z
 _atom_site_occupancy
  Mg  Mg0  1  0.87517561  0.87485466  0.87492007  1
  Mg  Mg1  1  0.12482577  0.12514440  0.12508483  1
  V  V2  1  0.50000876  0.00001466  0.49997070  1
  Ga  Ga3  1  0.50000213  0.50001612  0.49998088  1
  Ga  Ga4  1  0.50000866  0.49999135  0.99999854  1
  Ga  Ga5  1  0.99999792  0.49999234  0.50002120  1
  S  S6  1  0.73624483  0.74454256  0.73661433  1
  S  S7  1  0.26538571  0.25587152  0.71574491  1
  S  S8  1  0.26004729  0.71751939  0.26016207  1
  S  S9  1  0.71570205  0.25510373  0.26562986  1
  S  S10  1  0.73994229  0.28247360  0.73983795  1
  S  S11  1  0.28429478  0.74489024  0.73437525  1
  S  S12  1  0.26374579  0.25545111  0.26339948  1
  S  S13  1  0.73462242  0.74412931  0.28426092  1
