# generated using pymatgen
data_Y3Mg2WS8
_symmetry_space_group_name_H-M   'P 1'
_cell_length_a   7.83878085
_cell_length_b   7.69067437
_cell_length_c   7.83870300
_cell_angle_alpha   59.36226515
_cell_angle_beta   59.99877419
_cell_angle_gamma   59.36015192
_symmetry_Int_Tables_number   1
_chemical_formula_structural   Y3Mg2WS8
_chemical_formula_sum   'Y3 Mg2 W1 S8'
_cell_volume   330.88476627
_cell_formula_units_Z   1
loop_
 _symmetry_equiv_pos_site_id
 _symmetry_equiv_pos_as_xyz
  1  'x, y, z'
loop_
 _atom_site_type_symbol
 _atom_site_label
 _atom_site_symmetry_multiplicity
 _atom_site_fract_x
 _atom_site_fract_y
 _atom_site_fract_z
 _atom_site_occupancy
  Y  Y0  1  0.50000000  0.50001900  0.49998200  1
  Y  Y1  1  0.50000000  0.49999100  0.00000100  1
  Y  Y2  1  0.00000300  0.49998900  0.50001100  1
  Mg  Mg3  1  0.87470400  0.87586600  0.87472000  1
  Mg  Mg4  1  0.12529300  0.12414800  0.12527700  1
  W  W5  1  0.50000200  0.99999100  0.50000800  1
  S  S6  1  0.73276700  0.76631500  0.73279300  1
  S  S7  1  0.26722300  0.23369800  0.73187200  1
  S  S8  1  0.25487900  0.73532800  0.25489900  1
  S  S9  1  0.73187400  0.23367900  0.26721400  1
  S  S10  1  0.74510700  0.26467600  0.74508600  1
  S  S11  1  0.26812500  0.76631500  0.73278900  1
  S  S12  1  0.26723300  0.23367200  0.26722100  1
  S  S13  1  0.73279400  0.76630600  0.26812700  1
