# generated using pymatgen
data_Ca5(CoN3)2
_symmetry_space_group_name_H-M   'P 1'
_cell_length_a   5.81472610
_cell_length_b   6.21556148
_cell_length_c   12.51150202
_cell_angle_alpha   89.99999860
_cell_angle_beta   100.34184470
_cell_angle_gamma   122.30779633
_symmetry_Int_Tables_number   1
_chemical_formula_structural   Ca5(CoN3)2
_chemical_formula_sum   'Ca10 Co4 N12'
_cell_volume   373.46379045
_cell_formula_units_Z   2
loop_
 _symmetry_equiv_pos_site_id
 _symmetry_equiv_pos_as_xyz
  1  'x, y, z'
loop_
 _atom_site_type_symbol
 _atom_site_label
 _atom_site_symmetry_multiplicity
 _atom_site_fract_x
 _atom_site_fract_y
 _atom_site_fract_z
 _atom_site_occupancy
  Ca  Ca0  1  0.00000000  0.36891900  0.75000000  1
  Ca  Ca1  1  0.00000000  0.63108100  0.25000000  1
  Ca  Ca2  1  0.13135300  0.80589400  0.99969200  1
  Ca  Ca3  1  0.86864700  0.67454200  0.50030800  1
  Ca  Ca4  1  0.86864700  0.19410600  0.00030800  1
  Ca  Ca5  1  0.13135300  0.32545800  0.49969200  1
  Ca  Ca6  1  0.31774400  0.05231600  0.72268400  1
  Ca  Ca7  1  0.68225600  0.73457100  0.77731600  1
  Ca  Ca8  1  0.68225600  0.94768400  0.27731600  1
  Ca  Ca9  1  0.31774400  0.26542900  0.22268400  1
  Co  Co10  1  0.54340600  0.88523700  0.56584800  1
  Co  Co11  1  0.45659400  0.34183200  0.93415200  1
  Co  Co12  1  0.45659400  0.11476300  0.43415200  1
  Co  Co13  1  0.54340600  0.65816800  0.06584800  1
  N  N14  1  0.28952000  0.67667100  0.64519900  1
  N  N15  1  0.71048000  0.38715200  0.85480100  1
  N  N16  1  0.71048000  0.32332900  0.35480100  1
  N  N17  1  0.28952000  0.61284800  0.14519900  1
  N  N18  1  0.56555100  0.22908300  0.57330900  1
  N  N19  1  0.43444900  0.66353200  0.92669100  1
  N  N20  1  0.43444900  0.77091700  0.42669100  1
  N  N21  1  0.56555100  0.33646800  0.07330900  1
  N  N22  1  0.89271600  0.98459400  0.62880600  1
  N  N23  1  0.10728400  0.09187600  0.87119400  1
  N  N24  1  0.10728400  0.01540600  0.37119400  1
  N  N25  1  0.89271600  0.90812400  0.12880600  1
