# generated using pymatgen
data_MgGaMoS4
_symmetry_space_group_name_H-M   'P 1'
_cell_length_a   7.35906943
_cell_length_b   7.39663090
_cell_length_c   7.39669141
_cell_angle_alpha   60.34149424
_cell_angle_beta   60.16707739
_cell_angle_gamma   60.16807819
_symmetry_Int_Tables_number   1
_chemical_formula_structural   MgGaMoS4
_chemical_formula_sum   'Mg2 Ga2 Mo2 S8'
_cell_volume   286.14671320
_cell_formula_units_Z   2
loop_
 _symmetry_equiv_pos_site_id
 _symmetry_equiv_pos_as_xyz
  1  'x, y, z'
loop_
 _atom_site_type_symbol
 _atom_site_label
 _atom_site_symmetry_multiplicity
 _atom_site_fract_x
 _atom_site_fract_y
 _atom_site_fract_z
 _atom_site_occupancy
  Mg  Mg0  1  0.87415100  0.87584200  0.87585100  1
  Mg  Mg1  1  0.12585500  0.12415100  0.12415300  1
  Ga  Ga2  1  0.50000400  0.50002500  0.49996500  1
  Ga  Ga3  1  0.99999600  0.49998900  0.50002000  1
  Mo  Mo4  1  0.50000100  0.49999300  0.00000000  1
  Mo  Mo5  1  0.49999500  0.00000000  0.50000900  1
  S  S6  1  0.73951400  0.73810300  0.73809200  1
  S  S7  1  0.26143900  0.26092700  0.71617900  1
  S  S8  1  0.26144300  0.71618300  0.26092300  1
  S  S9  1  0.71570900  0.26190100  0.26189700  1
  S  S10  1  0.73854700  0.28382000  0.73906800  1
  S  S11  1  0.28429100  0.73809100  0.73810500  1
  S  S12  1  0.26048500  0.26189100  0.26191900  1
  S  S13  1  0.73857200  0.73907800  0.28382000  1
