# generated using pymatgen
data_Ba4GeN4
_symmetry_space_group_name_H-M   'P 1'
_cell_length_a   7.37035396
_cell_length_b   7.03870420
_cell_length_c   9.21744360
_cell_angle_alpha   73.99511635
_cell_angle_beta   81.21442426
_cell_angle_gamma   58.55573874
_symmetry_Int_Tables_number   1
_chemical_formula_structural   Ba4GeN4
_chemical_formula_sum   'Ba8 Ge2 N8'
_cell_volume   392.12215737
_cell_formula_units_Z   2
loop_
 _symmetry_equiv_pos_site_id
 _symmetry_equiv_pos_as_xyz
  1  'x, y, z'
loop_
 _atom_site_type_symbol
 _atom_site_label
 _atom_site_symmetry_multiplicity
 _atom_site_fract_x
 _atom_site_fract_y
 _atom_site_fract_z
 _atom_site_occupancy
  Ba  Ba0  1  0.76748400  0.65764300  0.12939600  1
  Ba  Ba1  1  0.23251600  0.34235700  0.87060400  1
  Ba  Ba2  1  0.72679300  0.24767300  0.94393400  1
  Ba  Ba3  1  0.27320700  0.75232700  0.05606600  1
  Ba  Ba4  1  0.70719800  0.56037600  0.54410200  1
  Ba  Ba5  1  0.29280200  0.43962400  0.45589800  1
  Ba  Ba6  1  0.17216400  0.93972000  0.63351700  1
  Ba  Ba7  1  0.82783600  0.06028000  0.36648300  1
  Ge  Ge8  1  0.76534300  0.87115100  0.75385500  1
  Ge  Ge9  1  0.23465700  0.12884900  0.24614500  1
  N  N10  1  0.96954000  0.68809800  0.61733000  1
  N  N11  1  0.03046000  0.31190200  0.38267000  1
  N  N12  1  0.96235800  0.80883200  0.90897600  1
  N  N13  1  0.03764200  0.19116800  0.09102400  1
  N  N14  1  0.55294100  0.78740400  0.83695400  1
  N  N15  1  0.44705900  0.21259600  0.16304600  1
  N  N16  1  0.34105900  0.81012400  0.34847100  1
  N  N17  1  0.65894100  0.18987600  0.65152900  1
