# generated using pymatgen
data_Sr(ZnN)2
_symmetry_space_group_name_H-M   'P 1'
_cell_length_a   6.00041219
_cell_length_b   6.62552338
_cell_length_c   7.49831128
_cell_angle_alpha   89.99999813
_cell_angle_beta   51.33129512
_cell_angle_gamma   56.48955391
_symmetry_Int_Tables_number   1
_chemical_formula_structural   Sr(ZnN)2
_chemical_formula_sum   'Sr2 Zn4 N4'
_cell_volume   164.57880246
_cell_formula_units_Z   2
loop_
 _symmetry_equiv_pos_site_id
 _symmetry_equiv_pos_as_xyz
  1  'x, y, z'
loop_
 _atom_site_type_symbol
 _atom_site_label
 _atom_site_symmetry_multiplicity
 _atom_site_fract_x
 _atom_site_fract_y
 _atom_site_fract_z
 _atom_site_occupancy
  Sr  Sr0  1  0.00000000  0.00000000  0.25000000  1
  Sr  Sr1  1  0.00000000  0.00000000  0.75000000  1
  Zn  Zn2  1  0.73385900  0.50000000  0.63307000  1
  Zn  Zn3  1  0.26614100  0.50000000  0.36693000  1
  Zn  Zn4  1  0.26614100  0.23385900  0.86693000  1
  Zn  Zn5  1  0.73385900  0.76614100  0.13307000  1
  N  N6  1  0.66917100  0.50000000  0.16541500  1
  N  N7  1  0.33082900  0.50000000  0.83458500  1
  N  N8  1  0.33082900  0.16917100  0.33458500  1
  N  N9  1  0.66917100  0.83082900  0.66541500  1
