# generated using pymatgen
data_Cr2Pb3N4
_symmetry_space_group_name_H-M   'P 1'
_cell_length_a   6.68650900
_cell_length_b   9.93267100
_cell_length_c   9.49907100
_cell_angle_alpha   90.00000000
_cell_angle_beta   90.00000000
_cell_angle_gamma   90.00000000
_symmetry_Int_Tables_number   1
_chemical_formula_structural   Cr2Pb3N4
_chemical_formula_sum   'Cr8 Pb12 N16'
_cell_volume   630.87979390
_cell_formula_units_Z   4
loop_
 _symmetry_equiv_pos_site_id
 _symmetry_equiv_pos_as_xyz
  1  'x, y, z'
loop_
 _atom_site_type_symbol
 _atom_site_label
 _atom_site_symmetry_multiplicity
 _atom_site_fract_x
 _atom_site_fract_y
 _atom_site_fract_z
 _atom_site_occupancy
  Cr  Cr0  1  0.75000000  0.50000000  0.71123300  1
  Cr  Cr1  1  0.75000000  0.00000000  0.78876700  1
  Cr  Cr2  1  0.25000000  0.50000000  0.28876700  1
  Cr  Cr3  1  0.25000000  0.00000000  0.21123300  1
  Cr  Cr4  1  0.73929700  0.25000000  0.75000000  1
  Cr  Cr5  1  0.76070300  0.75000000  0.75000000  1
  Cr  Cr6  1  0.26070300  0.75000000  0.25000000  1
  Cr  Cr7  1  0.23929700  0.25000000  0.25000000  1
  Pb  Pb8  1  0.59957900  0.16227600  0.43059400  1
  Pb  Pb9  1  0.90042100  0.83772400  0.43059400  1
  Pb  Pb10  1  0.59957900  0.33772400  0.06940600  1
  Pb  Pb11  1  0.90042100  0.66227600  0.06940600  1
  Pb  Pb12  1  0.40042100  0.83772400  0.56940600  1
  Pb  Pb13  1  0.09957900  0.16227600  0.56940600  1
  Pb  Pb14  1  0.40042100  0.66227600  0.93059400  1
  Pb  Pb15  1  0.09957900  0.33772400  0.93059400  1
  Pb  Pb16  1  0.75000000  0.50000000  0.39318600  1
  Pb  Pb17  1  0.75000000  0.00000000  0.10681400  1
  Pb  Pb18  1  0.25000000  0.50000000  0.60681400  1
  Pb  Pb19  1  0.25000000  0.00000000  0.89318600  1
  N  N20  1  0.88872700  0.35746900  0.62527300  1
  N  N21  1  0.61127300  0.64253100  0.62527300  1
  N  N22  1  0.88872700  0.14253100  0.87472700  1
  N  N23  1  0.61127300  0.85746900  0.87472700  1
  N  N24  1  0.11127300  0.64253100  0.37472700  1
  N  N25  1  0.38872700  0.35746900  0.37472700  1
  N  N26  1  0.11127300  0.85746900  0.12527300  1
  N  N27  1  0.38872700  0.14253100  0.12527300  1
  N  N28  1  0.59071500  0.39105700  0.81629600  1
  N  N29  1  0.90928500  0.60894300  0.81629600  1
  N  N30  1  0.59071500  0.10894300  0.68370400  1
  N  N31  1  0.90928500  0.89105700  0.68370400  1
  N  N32  1  0.40928500  0.60894300  0.18370400  1
  N  N33  1  0.09071500  0.39105700  0.18370400  1
  N  N34  1  0.40928500  0.89105700  0.31629600  1
  N  N35  1  0.09071500  0.10894300  0.31629600  1
