# generated using pymatgen
data_Mg2V3WS8
_symmetry_space_group_name_H-M   'P 1'
_cell_length_a   7.15853840
_cell_length_b   7.15335757
_cell_length_c   7.16763089
_cell_angle_alpha   61.79029679
_cell_angle_beta   61.87447267
_cell_angle_gamma   61.57129271
_symmetry_Int_Tables_number   1
_chemical_formula_structural   Mg2V3WS8
_chemical_formula_sum   'Mg2 V3 W1 S8'
_cell_volume   269.68119304
_cell_formula_units_Z   1
loop_
 _symmetry_equiv_pos_site_id
 _symmetry_equiv_pos_as_xyz
  1  'x, y, z'
loop_
 _atom_site_type_symbol
 _atom_site_label
 _atom_site_symmetry_multiplicity
 _atom_site_fract_x
 _atom_site_fract_y
 _atom_site_fract_z
 _atom_site_occupancy
  Mg  Mg0  1  0.87461500  0.87425000  0.87509400  1
  Mg  Mg1  1  0.12538700  0.12575600  0.12490700  1
  V  V2  1  0.50001300  0.49999500  0.99998900  1
  V  V3  1  0.99999700  0.49998700  0.50002600  1
  V  V4  1  0.49998700  0.99999600  0.50000700  1
  W  W5  1  0.50000100  0.50001900  0.49998000  1
  S  S6  1  0.73699200  0.73679500  0.73705500  1
  S  S7  1  0.25979500  0.25954500  0.72038700  1
  S  S8  1  0.25887300  0.72040600  0.25973700  1
  S  S9  1  0.72045900  0.25884200  0.25993900  1
  S  S10  1  0.74111800  0.27959000  0.74025000  1
  S  S11  1  0.27953900  0.74114900  0.74006200  1
  S  S12  1  0.26300400  0.26321000  0.26295400  1
  S  S13  1  0.74022300  0.74045600  0.27961400  1
