# generated using pymatgen
data_Mg2MnAl3S8
_symmetry_space_group_name_H-M   'P 1'
_cell_length_a   7.24721707
_cell_length_b   7.26008363
_cell_length_c   7.24249472
_cell_angle_alpha   60.09353557
_cell_angle_beta   60.00192729
_cell_angle_gamma   60.04839370
_symmetry_Int_Tables_number   1
_chemical_formula_structural   Mg2MnAl3S8
_chemical_formula_sum   'Mg2 Mn1 Al3 S8'
_cell_volume   269.74741513
_cell_formula_units_Z   1
loop_
 _symmetry_equiv_pos_site_id
 _symmetry_equiv_pos_as_xyz
  1  'x, y, z'
loop_
 _atom_site_type_symbol
 _atom_site_label
 _atom_site_symmetry_multiplicity
 _atom_site_fract_x
 _atom_site_fract_y
 _atom_site_fract_z
 _atom_site_occupancy
  Mg  Mg0  1  0.87513494  0.87469328  0.87507444  1
  Mg  Mg1  1  0.12488776  0.12526204  0.12492978  1
  Mn  Mn2  1  0.50001276  0.00004902  0.49995040  1
  Al  Al3  1  0.49996663  0.50003115  0.50003257  1
  Al  Al4  1  0.49997324  0.50001959  -0.00003018  1
  Al  Al5  1  0.99997367  0.49998757  0.50003873  1
  S  S6  1  0.73989590  0.73392957  0.73999001  1
  S  S7  1  0.26066928  0.26516782  0.71343821  1
  S  S8  1  0.26189435  0.71420043  0.26195983  1
  S  S9  1  0.71365286  0.26566038  0.26027801  1
  S  S10  1  0.73810526  0.28575230  0.73805918  1
  S  S11  1  0.28642420  0.73435793  0.73967582  1
  S  S12  1  0.26007074  0.26605825  0.26002309  1
  S  S13  1  0.73934241  0.73482566  0.28658110  1
