# generated using pymatgen
data_CaRhN2
_symmetry_space_group_name_H-M   'P 1'
_cell_length_a   5.05915900
_cell_length_b   10.13338100
_cell_length_c   17.22285100
_cell_angle_alpha   90.00000000
_cell_angle_beta   90.00000000
_cell_angle_gamma   90.00000000
_symmetry_Int_Tables_number   1
_chemical_formula_structural   CaRhN2
_chemical_formula_sum   'Ca16 Rh16 N32'
_cell_volume   882.95332199
_cell_formula_units_Z   16
loop_
 _symmetry_equiv_pos_site_id
 _symmetry_equiv_pos_as_xyz
  1  'x, y, z'
loop_
 _atom_site_type_symbol
 _atom_site_label
 _atom_site_symmetry_multiplicity
 _atom_site_fract_x
 _atom_site_fract_y
 _atom_site_fract_z
 _atom_site_occupancy
  Ca  Ca0  1  0.74267600  0.99246500  0.43771100  1
  Ca  Ca1  1  0.24267600  0.50753500  0.56228900  1
  Ca  Ca2  1  0.25732400  0.49246500  0.06228900  1
  Ca  Ca3  1  0.75732400  0.00753500  0.93771100  1
  Ca  Ca4  1  0.25732400  0.00753500  0.56228900  1
  Ca  Ca5  1  0.75732400  0.49246500  0.43771100  1
  Ca  Ca6  1  0.74267600  0.50753500  0.93771100  1
  Ca  Ca7  1  0.24267600  0.99246500  0.06228900  1
  Ca  Ca8  1  0.74840900  0.24578500  0.31217000  1
  Ca  Ca9  1  0.24840900  0.25421500  0.68783000  1
  Ca  Ca10  1  0.25159100  0.74578500  0.18783000  1
  Ca  Ca11  1  0.75159100  0.75421500  0.81217000  1
  Ca  Ca12  1  0.25159100  0.75421500  0.68783000  1
  Ca  Ca13  1  0.75159100  0.74578500  0.31217000  1
  Ca  Ca14  1  0.74840900  0.25421500  0.81217000  1
  Ca  Ca15  1  0.24840900  0.24578500  0.18783000  1
  Rh  Rh16  1  0.69062900  0.02409500  0.18869900  1
  Rh  Rh17  1  0.19062900  0.47590500  0.81130100  1
  Rh  Rh18  1  0.30937100  0.52409500  0.31130100  1
  Rh  Rh19  1  0.80937100  0.97590500  0.68869900  1
  Rh  Rh20  1  0.30937100  0.97590500  0.81130100  1
  Rh  Rh21  1  0.80937100  0.52409500  0.18869900  1
  Rh  Rh22  1  0.69062900  0.47590500  0.68869900  1
  Rh  Rh23  1  0.19062900  0.02409500  0.31130100  1
  Rh  Rh24  1  0.80841200  0.27873600  0.06524700  1
  Rh  Rh25  1  0.30841200  0.22126400  0.93475300  1
  Rh  Rh26  1  0.19158800  0.77873600  0.43475300  1
  Rh  Rh27  1  0.69158800  0.72126400  0.56524700  1
  Rh  Rh28  1  0.19158800  0.72126400  0.93475300  1
  Rh  Rh29  1  0.69158800  0.77873600  0.06524700  1
  Rh  Rh30  1  0.80841200  0.22126400  0.56524700  1
  Rh  Rh31  1  0.30841200  0.27873600  0.43475300  1
  N  N32  1  0.69141600  0.48961300  0.29624900  1
  N  N33  1  0.19141600  0.01038700  0.70375100  1
  N  N34  1  0.30858400  0.98961300  0.20375100  1
  N  N35  1  0.80858400  0.51038700  0.79624900  1
  N  N36  1  0.30858400  0.51038700  0.70375100  1
  N  N37  1  0.80858400  0.98961300  0.29624900  1
  N  N38  1  0.69141600  0.01038700  0.79624900  1
  N  N39  1  0.19141600  0.48961300  0.20375100  1
  N  N40  1  0.67984200  0.24881800  0.45494000  1
  N  N41  1  0.17984200  0.25118200  0.54506000  1
  N  N42  1  0.32015800  0.74881800  0.04506000  1
  N  N43  1  0.82015800  0.75118200  0.95494000  1
  N  N44  1  0.32015800  0.75118200  0.54506000  1
  N  N45  1  0.82015800  0.74881800  0.45494000  1
  N  N46  1  0.67984200  0.25118200  0.95494000  1
  N  N47  1  0.17984200  0.24881800  0.04506000  1
  N  N48  1  0.75103100  0.46763300  0.07830700  1
  N  N49  1  0.25103100  0.03236700  0.92169300  1
  N  N50  1  0.24896900  0.96763300  0.42169300  1
  N  N51  1  0.74896900  0.53236700  0.57830700  1
  N  N52  1  0.24896900  0.53236700  0.92169300  1
  N  N53  1  0.74896900  0.96763300  0.07830700  1
  N  N54  1  0.75103100  0.03236700  0.57830700  1
  N  N55  1  0.25103100  0.46763300  0.42169300  1
  N  N56  1  0.72359500  0.21629600  0.17031500  1
  N  N57  1  0.22359500  0.28370400  0.82968500  1
  N  N58  1  0.27640500  0.71629600  0.32968500  1
  N  N59  1  0.77640500  0.78370400  0.67031500  1
  N  N60  1  0.27640500  0.78370400  0.82968500  1
  N  N61  1  0.77640500  0.71629600  0.17031500  1
  N  N62  1  0.72359500  0.28370400  0.67031500  1
  N  N63  1  0.22359500  0.21629600  0.32968500  1
