# generated using pymatgen
data_Si7NiN10
_symmetry_space_group_name_H-M   'P 1'
_cell_length_a   6.64040945
_cell_length_b   6.96207200
_cell_length_c   9.69529240
_cell_angle_alpha   90.00000000
_cell_angle_beta   103.13940403
_cell_angle_gamma   90.00000000
_symmetry_Int_Tables_number   1
_chemical_formula_structural   Si7NiN10
_chemical_formula_sum   'Si14 Ni2 N20'
_cell_volume   436.48860345
_cell_formula_units_Z   2
loop_
 _symmetry_equiv_pos_site_id
 _symmetry_equiv_pos_as_xyz
  1  'x, y, z'
loop_
 _atom_site_type_symbol
 _atom_site_label
 _atom_site_symmetry_multiplicity
 _atom_site_fract_x
 _atom_site_fract_y
 _atom_site_fract_z
 _atom_site_occupancy
  Si  Si0  1  0.54339200  0.98259900  0.82238300  1
  Si  Si1  1  0.54339200  0.01740100  0.32238300  1
  Si  Si2  1  0.34960400  0.01828900  0.02245700  1
  Si  Si3  1  0.34960400  0.98171100  0.52245700  1
  Si  Si4  1  0.11676800  0.40070700  0.07471000  1
  Si  Si5  1  0.11676800  0.59929300  0.57471000  1
  Si  Si6  1  0.65541400  0.36036900  0.98733500  1
  Si  Si7  1  0.65541400  0.63963100  0.48733500  1
  Si  Si8  1  0.84668700  0.61873600  0.81159400  1
  Si  Si9  1  0.84668700  0.38126400  0.31159400  1
  Si  Si10  1  0.29981400  0.62343900  0.88185700  1
  Si  Si11  1  0.29981400  0.37656100  0.38185700  1
  Si  Si12  1  0.48606100  0.36647800  0.68543700  1
  Si  Si13  1  0.48606100  0.63352200  0.18543700  1
  Ni  Ni14  1  0.97048100  0.88380100  0.68590800  1
  Ni  Ni15  1  0.97048100  0.11619900  0.18590800  1
  N  N16  1  0.75435300  0.84804100  0.80739600  1
  N  N17  1  0.75435300  0.15195900  0.30739600  1
  N  N18  1  0.54949000  0.13867000  0.96644800  1
  N  N19  1  0.54949000  0.86133000  0.46644800  1
  N  N20  1  0.32447300  0.86863900  0.86994600  1
  N  N21  1  0.32447300  0.13136100  0.36994600  1
  N  N22  1  0.15322600  0.16001800  0.05135800  1
  N  N23  1  0.15322600  0.83998200  0.55135800  1
  N  N24  1  0.28855600  0.50551200  0.72363400  1
  N  N25  1  0.28855600  0.49448800  0.22363400  1
  N  N26  1  0.45053700  0.12150400  0.67126200  1
  N  N27  1  0.45053700  0.87849600  0.17126200  1
  N  N28  1  0.87864300  0.37461600  0.12848000  1
  N  N29  1  0.87864300  0.62538400  0.62848000  1
  N  N30  1  0.07562700  0.56912500  0.93724200  1
  N  N31  1  0.07562700  0.43087500  0.43724200  1
  N  N32  1  0.70071300  0.41619400  0.82150900  1
  N  N33  1  0.70071300  0.58380600  0.32150900  1
  N  N34  1  0.49846100  0.54241700  0.02034700  1
  N  N35  1  0.49846100  0.45758300  0.52034700  1
