# generated using pymatgen
data_TaAuN2
_symmetry_space_group_name_H-M   'P 1'
_cell_length_a   6.35094400
_cell_length_b   12.52928400
_cell_length_c   13.58398800
_cell_angle_alpha   90.00000000
_cell_angle_beta   90.00000000
_cell_angle_gamma   90.00000000
_symmetry_Int_Tables_number   1
_chemical_formula_structural   TaAuN2
_chemical_formula_sum   'Ta16 Au16 N32'
_cell_volume   1080.91570283
_cell_formula_units_Z   16
loop_
 _symmetry_equiv_pos_site_id
 _symmetry_equiv_pos_as_xyz
  1  'x, y, z'
loop_
 _atom_site_type_symbol
 _atom_site_label
 _atom_site_symmetry_multiplicity
 _atom_site_fract_x
 _atom_site_fract_y
 _atom_site_fract_z
 _atom_site_occupancy
  Ta  Ta0  1  0.68648000  0.02382900  0.31214400  1
  Ta  Ta1  1  0.18648000  0.47617100  0.68785600  1
  Ta  Ta2  1  0.31352000  0.52382900  0.18785600  1
  Ta  Ta3  1  0.81352000  0.97617100  0.81214400  1
  Ta  Ta4  1  0.31352000  0.97617100  0.68785600  1
  Ta  Ta5  1  0.81352000  0.52382900  0.31214400  1
  Ta  Ta6  1  0.68648000  0.47617100  0.81214400  1
  Ta  Ta7  1  0.18648000  0.02382900  0.18785600  1
  Ta  Ta8  1  0.76509400  0.27863200  0.43730000  1
  Ta  Ta9  1  0.26509400  0.22136800  0.56270000  1
  Ta  Ta10  1  0.23490600  0.77863200  0.06270000  1
  Ta  Ta11  1  0.73490600  0.72136800  0.93730000  1
  Ta  Ta12  1  0.23490600  0.72136800  0.56270000  1
  Ta  Ta13  1  0.73490600  0.77863200  0.43730000  1
  Ta  Ta14  1  0.76509400  0.22136800  0.93730000  1
  Ta  Ta15  1  0.26509400  0.27863200  0.06270000  1
  Au  Au16  1  0.28474700  0.02226300  0.43685900  1
  Au  Au17  1  0.78474700  0.47773700  0.56314100  1
  Au  Au18  1  0.71525300  0.52226300  0.06314100  1
  Au  Au19  1  0.21525300  0.97773700  0.93685900  1
  Au  Au20  1  0.71525300  0.97773700  0.56314100  1
  Au  Au21  1  0.21525300  0.52226300  0.43685900  1
  Au  Au22  1  0.28474700  0.47773700  0.93685900  1
  Au  Au23  1  0.78474700  0.02226300  0.06314100  1
  Au  Au24  1  0.15639400  0.22920300  0.31535700  1
  Au  Au25  1  0.65639400  0.27079700  0.68464300  1
  Au  Au26  1  0.84360600  0.72920300  0.18464300  1
  Au  Au27  1  0.34360600  0.77079700  0.81535700  1
  Au  Au28  1  0.84360600  0.77079700  0.68464300  1
  Au  Au29  1  0.34360600  0.72920300  0.31535700  1
  Au  Au30  1  0.15639400  0.27079700  0.81535700  1
  Au  Au31  1  0.65639400  0.22920300  0.18464300  1
  N  N32  1  0.07297400  0.26731700  0.45994000  1
  N  N33  1  0.57297400  0.23268300  0.54006000  1
  N  N34  1  0.92702600  0.76731700  0.04006000  1
  N  N35  1  0.42702600  0.73268300  0.95994000  1
  N  N36  1  0.92702600  0.73268300  0.54006000  1
  N  N37  1  0.42702600  0.76731700  0.45994000  1
  N  N38  1  0.07297400  0.23268300  0.95994000  1
  N  N39  1  0.57297400  0.26731700  0.04006000  1
  N  N40  1  0.71180100  0.43332500  0.41834000  1
  N  N41  1  0.21180100  0.06667500  0.58166000  1
  N  N42  1  0.28819900  0.93332500  0.08166000  1
  N  N43  1  0.78819900  0.56667500  0.91834000  1
  N  N44  1  0.28819900  0.56667500  0.58166000  1
  N  N45  1  0.78819900  0.93332500  0.41834000  1
  N  N46  1  0.71180100  0.06667500  0.91834000  1
  N  N47  1  0.21180100  0.43332500  0.08166000  1
  N  N48  1  0.69549900  0.18075500  0.33013300  1
  N  N49  1  0.19549900  0.31924500  0.66986700  1
  N  N50  1  0.30450100  0.68075500  0.16986700  1
  N  N51  1  0.80450100  0.81924500  0.83013300  1
  N  N52  1  0.30450100  0.81924500  0.66986700  1
  N  N53  1  0.80450100  0.68075500  0.33013300  1
  N  N54  1  0.69549900  0.31924500  0.83013300  1
  N  N55  1  0.19549900  0.18075500  0.16986700  1
  N  N56  1  0.61607700  0.48889700  0.20666700  1
  N  N57  1  0.11607700  0.01110300  0.79333300  1
  N  N58  1  0.38392300  0.98889700  0.29333300  1
  N  N59  1  0.88392300  0.51110300  0.70666700  1
  N  N60  1  0.38392300  0.51110300  0.79333300  1
  N  N61  1  0.88392300  0.98889700  0.20666700  1
  N  N62  1  0.61607700  0.01110300  0.70666700  1
  N  N63  1  0.11607700  0.48889700  0.29333300  1
