# generated using pymatgen
data_Ga5(GeN3)3
_symmetry_space_group_name_H-M   'P 1'
_cell_length_a   6.44483860
_cell_length_b   9.78117249
_cell_length_c   19.63680900
_cell_angle_alpha   90.00000000
_cell_angle_beta   90.00000000
_cell_angle_gamma   139.36183666
_symmetry_Int_Tables_number   1
_chemical_formula_structural   Ga5(GeN3)3
_chemical_formula_sum   'Ga20 Ge12 N36'
_cell_volume   806.19758113
_cell_formula_units_Z   4
loop_
 _symmetry_equiv_pos_site_id
 _symmetry_equiv_pos_as_xyz
  1  'x, y, z'
loop_
 _atom_site_type_symbol
 _atom_site_label
 _atom_site_symmetry_multiplicity
 _atom_site_fract_x
 _atom_site_fract_y
 _atom_site_fract_z
 _atom_site_occupancy
  Ga  Ga0  1  0.00000000  0.57102900  0.84838200  1
  Ga  Ga1  1  0.00000000  0.42897000  0.15161800  1
  Ga  Ga2  1  0.00000000  0.92897100  0.34838200  1
  Ga  Ga3  1  0.00000000  0.07102900  0.65161800  1
  Ga  Ga4  1  0.58064300  0.08487600  0.87144400  1
  Ga  Ga5  1  0.58064300  0.49576600  0.12855600  1
  Ga  Ga6  1  0.58064300  0.99576600  0.37144400  1
  Ga  Ga7  1  0.58064300  0.58487600  0.62855600  1
  Ga  Ga8  1  0.41935700  0.91512400  0.12855600  1
  Ga  Ga9  1  0.41935700  0.50423400  0.87144400  1
  Ga  Ga10  1  0.41935700  0.00423400  0.62855600  1
  Ga  Ga11  1  0.41935700  0.41512400  0.37144400  1
  Ga  Ga12  1  0.00000000  0.51375000  0.60381800  1
  Ga  Ga13  1  0.00000000  0.48625000  0.39618200  1
  Ga  Ga14  1  0.00000000  0.98625000  0.10381800  1
  Ga  Ga15  1  0.00000000  0.01375000  0.89618200  1
  Ga  Ga16  1  0.64053200  0.32026600  0.00000000  1
  Ga  Ga17  1  0.64053200  0.82026600  0.50000000  1
  Ga  Ga18  1  0.35946800  0.67973400  0.00000000  1
  Ga  Ga19  1  0.35946800  0.17973400  0.50000000  1
  Ge  Ge20  1  0.00000000  0.78409200  0.98446900  1
  Ge  Ge21  1  0.00000000  0.21590800  0.01553100  1
  Ge  Ge22  1  0.00000000  0.71590800  0.48446900  1
  Ge  Ge23  1  0.00000000  0.28409200  0.51553100  1
  Ge  Ge24  1  0.00000000  0.34540800  0.73961900  1
  Ge  Ge25  1  0.00000000  0.65459200  0.26038100  1
  Ge  Ge26  1  0.00000000  0.15459200  0.23961900  1
  Ge  Ge27  1  0.00000000  0.84540800  0.76038100  1
  Ge  Ge28  1  0.50000000  0.81189300  0.75000000  1
  Ge  Ge29  1  0.50000000  0.68810700  0.25000000  1
  Ge  Ge30  1  0.50000000  0.18810700  0.25000000  1
  Ge  Ge31  1  0.50000000  0.31189300  0.75000000  1
  N  N32  1  0.00000000  0.51834700  0.69751600  1
  N  N33  1  0.00000000  0.48165300  0.30248400  1
  N  N34  1  0.00000000  0.98165300  0.19751600  1
  N  N35  1  0.00000000  0.01834700  0.80248400  1
  N  N36  1  0.00000000  0.21125300  0.91967100  1
  N  N37  1  0.00000000  0.78874700  0.08032900  1
  N  N38  1  0.00000000  0.28874700  0.41967100  1
  N  N39  1  0.00000000  0.71125300  0.58032900  1
  N  N40  1  0.00000000  0.60181200  0.95228100  1
  N  N41  1  0.00000000  0.39818800  0.04771900  1
  N  N42  1  0.00000000  0.89818800  0.45228100  1
  N  N43  1  0.00000000  0.10181200  0.54771900  1
  N  N44  1  0.69027700  0.54546600  0.80975500  1
  N  N45  1  0.69027700  0.14481200  0.19024500  1
  N  N46  1  0.69027700  0.64481200  0.30975500  1
  N  N47  1  0.69027700  0.04546600  0.69024500  1
  N  N48  1  0.30972300  0.45453400  0.19024500  1
  N  N49  1  0.30972300  0.85518800  0.80975500  1
  N  N50  1  0.30972300  0.35518800  0.69024500  1
  N  N51  1  0.30972300  0.95453400  0.30975500  1
  N  N52  1  0.70214100  0.27872700  0.80949800  1
  N  N53  1  0.70214100  0.42341400  0.19050200  1
  N  N54  1  0.70214100  0.92341400  0.30949800  1
  N  N55  1  0.70214100  0.77872700  0.69050200  1
  N  N56  1  0.29785900  0.72127300  0.19050200  1
  N  N57  1  0.29785900  0.57658600  0.80949800  1
  N  N58  1  0.29785900  0.07658600  0.69050200  1
  N  N59  1  0.29785900  0.22127300  0.30949800  1
  N  N60  1  0.33873700  0.05937300  0.94531700  1
  N  N61  1  0.33873700  0.27936300  0.05468300  1
  N  N62  1  0.33873700  0.77936300  0.44531700  1
  N  N63  1  0.33873700  0.55937300  0.55468300  1
  N  N64  1  0.66126300  0.94062700  0.05468300  1
  N  N65  1  0.66126300  0.72063700  0.94531700  1
  N  N66  1  0.66126300  0.22063700  0.55468300  1
  N  N67  1  0.66126300  0.44062700  0.44531700  1
