# generated using pymatgen
data_NiGe7N10
_symmetry_space_group_name_H-M   'P 1'
_cell_length_a   6.91798083
_cell_length_b   7.42150000
_cell_length_c   10.23227719
_cell_angle_alpha   90.00000000
_cell_angle_beta   101.94686724
_cell_angle_gamma   90.00000000
_symmetry_Int_Tables_number   1
_chemical_formula_structural   NiGe7N10
_chemical_formula_sum   'Ni2 Ge14 N20'
_cell_volume   513.96452786
_cell_formula_units_Z   2
loop_
 _symmetry_equiv_pos_site_id
 _symmetry_equiv_pos_as_xyz
  1  'x, y, z'
loop_
 _atom_site_type_symbol
 _atom_site_label
 _atom_site_symmetry_multiplicity
 _atom_site_fract_x
 _atom_site_fract_y
 _atom_site_fract_z
 _atom_site_occupancy
  Ni  Ni0  1  0.95141300  0.87889700  0.67849500  1
  Ni  Ni1  1  0.95141300  0.12110300  0.17849500  1
  Ge  Ge2  1  0.54784900  0.98168100  0.82132400  1
  Ge  Ge3  1  0.54784900  0.01831900  0.32132400  1
  Ge  Ge4  1  0.33718300  0.01580500  0.02420100  1
  Ge  Ge5  1  0.33718300  0.98419500  0.52420100  1
  Ge  Ge6  1  0.12032200  0.39499900  0.07346900  1
  Ge  Ge7  1  0.12032200  0.60500100  0.57346900  1
  Ge  Ge8  1  0.65528000  0.35387200  0.98910000  1
  Ge  Ge9  1  0.65528000  0.64612800  0.48910000  1
  Ge  Ge10  1  0.84662700  0.61840000  0.81766200  1
  Ge  Ge11  1  0.84662700  0.38160000  0.31766200  1
  Ge  Ge12  1  0.30571100  0.62908500  0.88137900  1
  Ge  Ge13  1  0.30571100  0.37091500  0.38137900  1
  Ge  Ge14  1  0.49149200  0.36373000  0.68479900  1
  Ge  Ge15  1  0.49149200  0.63627000  0.18479900  1
  N  N16  1  0.77391100  0.85821700  0.80369500  1
  N  N17  1  0.77391100  0.14178300  0.30369500  1
  N  N18  1  0.54456600  0.13450000  0.96741400  1
  N  N19  1  0.54456600  0.86550000  0.46741400  1
  N  N20  1  0.32125300  0.87312900  0.86828300  1
  N  N21  1  0.32125300  0.12687100  0.36828300  1
  N  N22  1  0.12599100  0.14845000  0.05129800  1
  N  N23  1  0.12599100  0.85155000  0.55129800  1
  N  N24  1  0.29531500  0.51378300  0.72125700  1
  N  N25  1  0.29531500  0.48621700  0.22125700  1
  N  N26  1  0.44811100  0.12157100  0.67266600  1
  N  N27  1  0.44811100  0.87842900  0.17266600  1
  N  N28  1  0.87900100  0.36274900  0.13192000  1
  N  N29  1  0.87900100  0.63725100  0.63192000  1
  N  N30  1  0.07900100  0.57448100  0.94278300  1
  N  N31  1  0.07900100  0.42551900  0.44278300  1
  N  N32  1  0.70985700  0.40593400  0.82178000  1
  N  N33  1  0.70985700  0.59406600  0.32178000  1
  N  N34  1  0.50941400  0.55026800  0.01777500  1
  N  N35  1  0.50941400  0.44973200  0.51777500  1
