# generated using pymatgen
data_Sr7SnN6
_symmetry_space_group_name_H-M   'P 1'
_cell_length_a   11.98699600
_cell_length_b   6.72004100
_cell_length_c   14.10507800
_cell_angle_alpha   90.00000000
_cell_angle_beta   90.00000000
_cell_angle_gamma   90.00000000
_symmetry_Int_Tables_number   1
_chemical_formula_structural   Sr7SnN6
_chemical_formula_sum   'Sr28 Sn4 N24'
_cell_volume   1136.20782334
_cell_formula_units_Z   4
loop_
 _symmetry_equiv_pos_site_id
 _symmetry_equiv_pos_as_xyz
  1  'x, y, z'
loop_
 _atom_site_type_symbol
 _atom_site_label
 _atom_site_symmetry_multiplicity
 _atom_site_fract_x
 _atom_site_fract_y
 _atom_site_fract_z
 _atom_site_occupancy
  Sr  Sr0  1  0.03574900  0.72924000  0.98167200  1
  Sr  Sr1  1  0.46425100  0.77076000  0.48167200  1
  Sr  Sr2  1  0.53574900  0.77076000  0.01832800  1
  Sr  Sr3  1  0.96425100  0.72924000  0.51832800  1
  Sr  Sr4  1  0.96425100  0.27076000  0.01832800  1
  Sr  Sr5  1  0.53574900  0.22924000  0.51832800  1
  Sr  Sr6  1  0.46425100  0.22924000  0.98167200  1
  Sr  Sr7  1  0.03574900  0.27076000  0.48167200  1
  Sr  Sr8  1  0.23198700  0.84192500  0.62813600  1
  Sr  Sr9  1  0.26801300  0.65807500  0.12813600  1
  Sr  Sr10  1  0.73198700  0.65807500  0.37186400  1
  Sr  Sr11  1  0.76801300  0.84192500  0.87186400  1
  Sr  Sr12  1  0.76801300  0.15807500  0.37186400  1
  Sr  Sr13  1  0.73198700  0.34192500  0.87186400  1
  Sr  Sr14  1  0.26801300  0.34192500  0.62813600  1
  Sr  Sr15  1  0.23198700  0.15807500  0.12813600  1
  Sr  Sr16  1  0.28771800  0.60363100  0.88372900  1
  Sr  Sr17  1  0.21228200  0.89636900  0.38372900  1
  Sr  Sr18  1  0.78771800  0.89636900  0.11627100  1
  Sr  Sr19  1  0.71228200  0.60363100  0.61627100  1
  Sr  Sr20  1  0.71228200  0.39636900  0.11627100  1
  Sr  Sr21  1  0.78771800  0.10363100  0.61627100  1
  Sr  Sr22  1  0.21228200  0.10363100  0.88372900  1
  Sr  Sr23  1  0.28771800  0.39636900  0.38372900  1
  Sr  Sr24  1  0.00000000  0.44682800  0.75000000  1
  Sr  Sr25  1  0.50000000  0.05317200  0.25000000  1
  Sr  Sr26  1  0.00000000  0.55317200  0.25000000  1
  Sr  Sr27  1  0.50000000  0.94682800  0.75000000  1
  Sn  Sn28  1  0.00000000  0.94434200  0.75000000  1
  Sn  Sn29  1  0.50000000  0.55565800  0.25000000  1
  Sn  Sn30  1  0.00000000  0.05565800  0.25000000  1
  Sn  Sn31  1  0.50000000  0.44434200  0.75000000  1
  N  N32  1  0.13048800  0.75618900  0.80008700  1
  N  N33  1  0.36951200  0.74381100  0.30008700  1
  N  N34  1  0.63048800  0.74381100  0.19991300  1
  N  N35  1  0.86951200  0.75618900  0.69991300  1
  N  N36  1  0.86951200  0.24381100  0.19991300  1
  N  N37  1  0.63048800  0.25618900  0.69991300  1
  N  N38  1  0.36951200  0.25618900  0.80008700  1
  N  N39  1  0.13048800  0.24381100  0.30008700  1
  N  N40  1  0.16302800  0.59325400  0.50518600  1
  N  N41  1  0.33697200  0.90674600  0.00518600  1
  N  N42  1  0.66302800  0.90674600  0.49481400  1
  N  N43  1  0.83697200  0.59325400  0.99481400  1
  N  N44  1  0.83697200  0.40674600  0.49481400  1
  N  N45  1  0.66302800  0.09325400  0.99481400  1
  N  N46  1  0.33697200  0.09325400  0.50518600  1
  N  N47  1  0.16302800  0.40674600  0.00518600  1
  N  N48  1  0.43206800  0.63045400  0.64428200  1
  N  N49  1  0.06793200  0.86954600  0.14428200  1
  N  N50  1  0.93206800  0.86954600  0.35571800  1
  N  N51  1  0.56793200  0.63045400  0.85571800  1
  N  N52  1  0.56793200  0.36954600  0.35571800  1
  N  N53  1  0.93206800  0.13045400  0.85571800  1
  N  N54  1  0.06793200  0.13045400  0.64428200  1
  N  N55  1  0.43206800  0.36954600  0.14428200  1
