# generated using pymatgen
data_YMgTiS4
_symmetry_space_group_name_H-M   'P 1'
_cell_length_a   7.77095191
_cell_length_b   7.61805506
_cell_length_c   7.62326098
_cell_angle_alpha   58.64585132
_cell_angle_beta   59.35434415
_cell_angle_gamma   59.33748486
_symmetry_Int_Tables_number   1
_chemical_formula_structural   YMgTiS4
_chemical_formula_sum   'Y2 Mg2 Ti2 S8'
_cell_volume   312.62537723
_cell_formula_units_Z   2
loop_
 _symmetry_equiv_pos_site_id
 _symmetry_equiv_pos_as_xyz
  1  'x, y, z'
loop_
 _atom_site_type_symbol
 _atom_site_label
 _atom_site_symmetry_multiplicity
 _atom_site_fract_x
 _atom_site_fract_y
 _atom_site_fract_z
 _atom_site_occupancy
  Y  Y0  1  0.50000200  0.50001500  0.49998000  1
  Y  Y1  1  0.99999900  0.49999300  0.50001100  1
  Mg  Mg2  1  0.87708800  0.87284800  0.87297200  1
  Mg  Mg3  1  0.12291300  0.12715900  0.12703100  1
  Ti  Ti4  1  0.50000000  0.49999500  0.99999900  1
  Ti  Ti5  1  0.50000000  0.99999600  0.50000500  1
  S  S6  1  0.72042500  0.75340200  0.75340800  1
  S  S7  1  0.26816300  0.23229700  0.73149900  1
  S  S8  1  0.26802800  0.73149000  0.23234700  1
  S  S9  1  0.72721900  0.24652900  0.24665300  1
  S  S10  1  0.73195800  0.26851000  0.76764300  1
  S  S11  1  0.27278400  0.75346600  0.75334300  1
  S  S12  1  0.27957200  0.24658800  0.24660800  1
  S  S13  1  0.73185400  0.76770900  0.26850100  1
