# generated using pymatgen
data_Cs6WN4
_symmetry_space_group_name_H-M   'P 1'
_cell_length_a   8.94699700
_cell_length_b   8.94699700
_cell_length_c   7.92481000
_cell_angle_alpha   90.00000000
_cell_angle_beta   90.00000000
_cell_angle_gamma   90.00000000
_symmetry_Int_Tables_number   1
_chemical_formula_structural   Cs6WN4
_chemical_formula_sum   'Cs12 W2 N8'
_cell_volume   634.37117663
_cell_formula_units_Z   2
loop_
 _symmetry_equiv_pos_site_id
 _symmetry_equiv_pos_as_xyz
  1  'x, y, z'
loop_
 _atom_site_type_symbol
 _atom_site_label
 _atom_site_symmetry_multiplicity
 _atom_site_fract_x
 _atom_site_fract_y
 _atom_site_fract_z
 _atom_site_occupancy
  Cs  Cs0  1  0.00000000  0.50000000  0.73664800  1
  Cs  Cs1  1  0.50000000  0.00000000  0.76335200  1
  Cs  Cs2  1  0.50000000  0.00000000  0.26335200  1
  Cs  Cs3  1  0.00000000  0.50000000  0.23664800  1
  Cs  Cs4  1  0.21118200  0.21118200  0.50000000  1
  Cs  Cs5  1  0.78881800  0.78881800  0.50000000  1
  Cs  Cs6  1  0.71118200  0.71118200  0.00000000  1
  Cs  Cs7  1  0.28881800  0.28881800  0.00000000  1
  Cs  Cs8  1  0.78881800  0.21118200  0.50000000  1
  Cs  Cs9  1  0.21118200  0.78881800  0.50000000  1
  Cs  Cs10  1  0.28881800  0.71118200  0.00000000  1
  Cs  Cs11  1  0.71118200  0.28881800  0.00000000  1
  W  W12  1  0.50000000  0.50000000  0.50000000  1
  W  W13  1  0.00000000  0.00000000  0.00000000  1
  N  N14  1  0.31829900  0.50000000  0.37056200  1
  N  N15  1  0.68170100  0.50000000  0.37056200  1
  N  N16  1  0.81829900  0.00000000  0.12943800  1
  N  N17  1  0.18170100  0.00000000  0.12943800  1
  N  N18  1  0.50000000  0.31829900  0.62943800  1
  N  N19  1  0.50000000  0.68170100  0.62943800  1
  N  N20  1  0.00000000  0.81829900  0.87056200  1
  N  N21  1  0.00000000  0.18170100  0.87056200  1
