# generated using pymatgen
data_Na3AlN2
_symmetry_space_group_name_H-M   'P 1'
_cell_length_a   9.27457300
_cell_length_b   10.70935440
_cell_length_c   10.70935467
_cell_angle_alpha   90.00000110
_cell_angle_beta   125.26439097
_cell_angle_gamma   54.73560799
_symmetry_Int_Tables_number   1
_chemical_formula_structural   Na3AlN2
_chemical_formula_sum   'Na24 Al8 N16'
_cell_volume   614.12935756
_cell_formula_units_Z   8
loop_
 _symmetry_equiv_pos_site_id
 _symmetry_equiv_pos_as_xyz
  1  'x, y, z'
loop_
 _atom_site_type_symbol
 _atom_site_label
 _atom_site_symmetry_multiplicity
 _atom_site_fract_x
 _atom_site_fract_y
 _atom_site_fract_z
 _atom_site_occupancy
  Na  Na0  1  0.19121700  0.06765600  0.96009000  1
  Na  Na1  1  0.80878300  0.75887300  0.53991000  1
  Na  Na2  1  0.80878300  0.43234400  0.76887300  1
  Na  Na3  1  0.19121700  0.74112700  0.73112700  1
  Na  Na4  1  0.27103800  0.76887300  0.29878300  1
  Na  Na5  1  0.72896200  0.73112700  0.02774600  1
  Na  Na6  1  0.27103800  0.96009000  0.47225400  1
  Na  Na7  1  0.72896200  0.53991000  0.20121700  1
  Na  Na8  1  0.67347100  0.02774600  0.74112700  1
  Na  Na9  1  0.67347100  0.29878300  0.43234400  1
  Na  Na10  1  0.32652900  0.20121700  0.75887300  1
  Na  Na11  1  0.32652900  0.47225400  0.06765600  1
  Na  Na12  1  0.80878300  0.93234400  0.03991000  1
  Na  Na13  1  0.19121700  0.24112700  0.46009000  1
  Na  Na14  1  0.19121700  0.56765600  0.23112700  1
  Na  Na15  1  0.80878300  0.25887300  0.26887300  1
  Na  Na16  1  0.72896200  0.23112700  0.70121700  1
  Na  Na17  1  0.27103800  0.26887300  0.97225400  1
  Na  Na18  1  0.72896200  0.03991000  0.52774600  1
  Na  Na19  1  0.27103800  0.46009000  0.79878300  1
  Na  Na20  1  0.32652900  0.97225400  0.25887300  1
  Na  Na21  1  0.32652900  0.70121700  0.56765600  1
  Na  Na22  1  0.67347100  0.79878300  0.24112700  1
  Na  Na23  1  0.67347100  0.52774600  0.93234400  1
  Al  Al24  1  0.20959500  0.00000000  0.70959500  1
  Al  Al25  1  0.79040500  0.70959500  0.79040500  1
  Al  Al26  1  0.79040500  0.50000000  0.50000000  1
  Al  Al27  1  0.20959500  0.79040500  0.00000000  1
  Al  Al28  1  0.79040500  0.00000000  0.29040500  1
  Al  Al29  1  0.20959500  0.29040500  0.20959500  1
  Al  Al30  1  0.20959500  0.50000000  0.50000000  1
  Al  Al31  1  0.79040500  0.20959500  0.00000000  1
  N  N32  1  0.00000000  0.00000000  0.50000000  1
  N  N33  1  0.00000000  0.50000000  0.00000000  1
  N  N34  1  0.00000000  0.50000000  0.50000000  1
  N  N35  1  0.00000000  0.00000000  0.00000000  1
  N  N36  1  0.50000000  0.92761100  0.75000000  1
  N  N37  1  0.50000000  0.57238900  0.25000000  1
  N  N38  1  0.00000000  0.25000000  0.67761100  1
  N  N39  1  0.00000000  0.75000000  0.82238900  1
  N  N40  1  0.64477800  0.67761100  0.57238900  1
  N  N41  1  0.35522200  0.82238900  0.92761100  1
  N  N42  1  0.50000000  0.07238900  0.25000000  1
  N  N43  1  0.50000000  0.42761100  0.75000000  1
  N  N44  1  0.00000000  0.75000000  0.32238900  1
  N  N45  1  0.00000000  0.25000000  0.17761100  1
  N  N46  1  0.35522200  0.32238900  0.42761100  1
  N  N47  1  0.64477800  0.17761100  0.07238900  1
