# generated using pymatgen
data_DyMgMnS4
_symmetry_space_group_name_H-M   'P 1'
_cell_length_a   7.74106626
_cell_length_b   7.55652854
_cell_length_c   7.55628571
_cell_angle_alpha   60.18353225
_cell_angle_beta   59.17145785
_cell_angle_gamma   59.20400402
_symmetry_Int_Tables_number   1
_chemical_formula_structural   DyMgMnS4
_chemical_formula_sum   'Dy2 Mg2 Mn2 S8'
_cell_volume   309.07027956
_cell_formula_units_Z   2
loop_
 _symmetry_equiv_pos_site_id
 _symmetry_equiv_pos_as_xyz
  1  'x, y, z'
loop_
 _atom_site_type_symbol
 _atom_site_label
 _atom_site_symmetry_multiplicity
 _atom_site_fract_x
 _atom_site_fract_y
 _atom_site_fract_z
 _atom_site_occupancy
  Dy  Dy0  1  0.49998200  0.49999600  0.49998800  1
  Dy  Dy1  1  0.00003100  0.49999900  0.50004500  1
  Mg  Mg2  1  0.87588500  0.87407100  0.87419300  1
  Mg  Mg3  1  0.12407000  0.12595700  0.12588500  1
  Mn  Mn4  1  0.50016400  0.50003100  0.99966800  1
  Mn  Mn5  1  0.49993300  0.99989000  0.50004900  1
  S  S6  1  0.71502800  0.75510500  0.75527100  1
  S  S7  1  0.27039900  0.23163600  0.72744300  1
  S  S8  1  0.27054100  0.72746200  0.23164900  1
  S  S9  1  0.72534600  0.24473500  0.24500200  1
  S  S10  1  0.72945800  0.27254800  0.76835900  1
  S  S11  1  0.27460500  0.75528200  0.75505200  1
  S  S12  1  0.28494600  0.24492500  0.24479200  1
  S  S13  1  0.72961700  0.76835600  0.27260400  1
