# generated using pymatgen
data_Al2InN3
_symmetry_space_group_name_H-M   'P 1'
_cell_length_a   5.67227926
_cell_length_b   5.65531607
_cell_length_c   5.24761000
_cell_angle_alpha   90.00000000
_cell_angle_beta   90.00000000
_cell_angle_gamma   119.90111664
_symmetry_Int_Tables_number   1
_chemical_formula_structural   Al2InN3
_chemical_formula_sum   'Al4 In2 N6'
_cell_volume   145.92797118
_cell_formula_units_Z   2
loop_
 _symmetry_equiv_pos_site_id
 _symmetry_equiv_pos_as_xyz
  1  'x, y, z'
loop_
 _atom_site_type_symbol
 _atom_site_label
 _atom_site_symmetry_multiplicity
 _atom_site_fract_x
 _atom_site_fract_y
 _atom_site_fract_z
 _atom_site_occupancy
  Al  Al0  1  0.34340800  0.33491000  0.49174500  1
  Al  Al1  1  0.65659200  0.99150100  0.49174500  1
  Al  Al2  1  0.65659200  0.66509000  0.99174500  1
  Al  Al3  1  0.34340800  0.00849900  0.99174500  1
  In  In4  1  0.00000000  0.67806800  0.48675400  1
  In  In5  1  0.00000000  0.32193200  0.98675400  1
  N  N6  1  0.37075900  0.33361700  0.85561000  1
  N  N7  1  0.62924100  0.96285800  0.85561000  1
  N  N8  1  0.62924100  0.66638300  0.35561000  1
  N  N9  1  0.37075900  0.03714200  0.35561000  1
  N  N10  1  0.00000000  0.70208800  0.90653700  1
  N  N11  1  0.00000000  0.29791200  0.40653700  1
