# generated using pymatgen
data_LuMg2Mn3S8
_symmetry_space_group_name_H-M   'P 1'
_cell_length_a   7.42631940
_cell_length_b   7.42847827
_cell_length_c   7.42598193
_cell_angle_alpha   59.61885112
_cell_angle_beta   59.62293692
_cell_angle_gamma   59.62147291
_symmetry_Int_Tables_number   1
_chemical_formula_structural   LuMg2Mn3S8
_chemical_formula_sum   'Lu1 Mg2 Mn3 S8'
_cell_volume   287.18146359
_cell_formula_units_Z   1
loop_
 _symmetry_equiv_pos_site_id
 _symmetry_equiv_pos_as_xyz
  1  'x, y, z'
loop_
 _atom_site_type_symbol
 _atom_site_label
 _atom_site_symmetry_multiplicity
 _atom_site_fract_x
 _atom_site_fract_y
 _atom_site_fract_z
 _atom_site_occupancy
  Lu  Lu0  1  0.50000370  0.50003153  0.49998788  1
  Mg  Mg1  1  0.87497706  0.87505324  0.87486289  1
  Mg  Mg2  1  0.12499830  0.12493325  0.12508717  1
  Mn  Mn3  1  0.50004152  0.50000429  0.00000885  1
  Mn  Mn4  1  -0.00000032  0.49998414  0.50003069  1
  Mn  Mn5  1  0.50000550  0.00000987  0.50001274  1
  S  S6  1  0.73935533  0.73933047  0.73945017  1
  S  S7  1  0.24870838  0.24859944  0.71942903  1
  S  S8  1  0.24858145  0.71955263  0.24865986  1
  S  S9  1  0.71946688  0.24859193  0.24873297  1
  S  S10  1  0.75139351  0.28044289  0.75132688  1
  S  S11  1  0.28053457  0.75139775  0.75127163  1
  S  S12  1  0.26063767  0.26064841  0.26056325  1
  S  S13  1  0.75130046  0.75141516  0.28057699  1
