# generated using pymatgen
data_Ba7HfN6
_symmetry_space_group_name_H-M   'P 1'
_cell_length_a   12.51327500
_cell_length_b   7.27575500
_cell_length_c   14.95708300
_cell_angle_alpha   90.00000000
_cell_angle_beta   90.00000000
_cell_angle_gamma   90.00000000
_symmetry_Int_Tables_number   1
_chemical_formula_structural   Ba7HfN6
_chemical_formula_sum   'Ba28 Hf4 N24'
_cell_volume   1361.74553233
_cell_formula_units_Z   4
loop_
 _symmetry_equiv_pos_site_id
 _symmetry_equiv_pos_as_xyz
  1  'x, y, z'
loop_
 _atom_site_type_symbol
 _atom_site_label
 _atom_site_symmetry_multiplicity
 _atom_site_fract_x
 _atom_site_fract_y
 _atom_site_fract_z
 _atom_site_occupancy
  Ba  Ba0  1  0.00874300  0.74253200  0.97324600  1
  Ba  Ba1  1  0.49125700  0.75746800  0.47324600  1
  Ba  Ba2  1  0.50874300  0.75746800  0.02675400  1
  Ba  Ba3  1  0.99125700  0.74253200  0.52675400  1
  Ba  Ba4  1  0.99125700  0.25746800  0.02675400  1
  Ba  Ba5  1  0.50874300  0.24253200  0.52675400  1
  Ba  Ba6  1  0.49125700  0.24253200  0.97324600  1
  Ba  Ba7  1  0.00874300  0.25746800  0.47324600  1
  Ba  Ba8  1  0.26674800  0.73961900  0.62749500  1
  Ba  Ba9  1  0.23325200  0.76038100  0.12749500  1
  Ba  Ba10  1  0.76674800  0.76038100  0.37250500  1
  Ba  Ba11  1  0.73325200  0.73961900  0.87250500  1
  Ba  Ba12  1  0.73325200  0.26038100  0.37250500  1
  Ba  Ba13  1  0.76674800  0.23961900  0.87250500  1
  Ba  Ba14  1  0.23325200  0.23961900  0.62749500  1
  Ba  Ba15  1  0.26674800  0.26038100  0.12749500  1
  Ba  Ba16  1  0.28163400  0.58434100  0.87830800  1
  Ba  Ba17  1  0.21836600  0.91565900  0.37830800  1
  Ba  Ba18  1  0.78163400  0.91565900  0.12169200  1
  Ba  Ba19  1  0.71836600  0.58434100  0.62169200  1
  Ba  Ba20  1  0.71836600  0.41565900  0.12169200  1
  Ba  Ba21  1  0.78163400  0.08434100  0.62169200  1
  Ba  Ba22  1  0.21836600  0.08434100  0.87830800  1
  Ba  Ba23  1  0.28163400  0.41565900  0.37830800  1
  Ba  Ba24  1  0.00000000  0.44486500  0.75000000  1
  Ba  Ba25  1  0.50000000  0.05513500  0.25000000  1
  Ba  Ba26  1  0.00000000  0.55513500  0.25000000  1
  Ba  Ba27  1  0.50000000  0.94486500  0.75000000  1
  Hf  Hf28  1  0.00000000  0.93724600  0.75000000  1
  Hf  Hf29  1  0.50000000  0.56275400  0.25000000  1
  Hf  Hf30  1  0.00000000  0.06275400  0.25000000  1
  Hf  Hf31  1  0.50000000  0.43724600  0.75000000  1
  N  N32  1  0.12953800  0.76339500  0.78201300  1
  N  N33  1  0.37046200  0.73660500  0.28201300  1
  N  N34  1  0.62953800  0.73660500  0.21798700  1
  N  N35  1  0.87046200  0.76339500  0.71798700  1
  N  N36  1  0.87046200  0.23660500  0.21798700  1
  N  N37  1  0.62953800  0.26339500  0.71798700  1
  N  N38  1  0.37046200  0.26339500  0.78201300  1
  N  N39  1  0.12953800  0.23660500  0.28201300  1
  N  N40  1  0.16537600  0.52840800  0.51439400  1
  N  N41  1  0.33462400  0.97159200  0.01439400  1
  N  N42  1  0.66537600  0.97159200  0.48560600  1
  N  N43  1  0.83462400  0.52840800  0.98560600  1
  N  N44  1  0.83462400  0.47159200  0.48560600  1
  N  N45  1  0.66537600  0.02840800  0.98560600  1
  N  N46  1  0.33462400  0.02840800  0.51439400  1
  N  N47  1  0.16537600  0.47159200  0.01439400  1
  N  N48  1  0.47634300  0.60896600  0.64087600  1
  N  N49  1  0.02365700  0.89103400  0.14087600  1
  N  N50  1  0.97634300  0.89103400  0.35912400  1
  N  N51  1  0.52365700  0.60896600  0.85912400  1
  N  N52  1  0.52365700  0.39103400  0.35912400  1
  N  N53  1  0.97634300  0.10896600  0.85912400  1
  N  N54  1  0.02365700  0.10896600  0.64087600  1
  N  N55  1  0.47634300  0.39103400  0.14087600  1
