# generated using pymatgen
data_NaRuN2
_symmetry_space_group_name_H-M   'P 1'
_cell_length_a   5.52692800
_cell_length_b   11.08040000
_cell_length_c   15.27951600
_cell_angle_alpha   90.00000000
_cell_angle_beta   90.00000000
_cell_angle_gamma   90.00000000
_symmetry_Int_Tables_number   1
_chemical_formula_structural   NaRuN2
_chemical_formula_sum   'Na16 Ru16 N32'
_cell_volume   935.72631517
_cell_formula_units_Z   16
loop_
 _symmetry_equiv_pos_site_id
 _symmetry_equiv_pos_as_xyz
  1  'x, y, z'
loop_
 _atom_site_type_symbol
 _atom_site_label
 _atom_site_symmetry_multiplicity
 _atom_site_fract_x
 _atom_site_fract_y
 _atom_site_fract_z
 _atom_site_occupancy
  Na  Na0  1  0.27711800  0.00059800  0.44537200  1
  Na  Na1  1  0.77711800  0.49940200  0.55462800  1
  Na  Na2  1  0.72288200  0.50059800  0.05462800  1
  Na  Na3  1  0.22288200  0.99940200  0.94537200  1
  Na  Na4  1  0.72288200  0.99940200  0.55462800  1
  Na  Na5  1  0.22288200  0.50059800  0.44537200  1
  Na  Na6  1  0.27711800  0.49940200  0.94537200  1
  Na  Na7  1  0.77711800  0.00059800  0.05462800  1
  Na  Na8  1  0.24679600  0.27241700  0.31677800  1
  Na  Na9  1  0.74679600  0.22758300  0.68322200  1
  Na  Na10  1  0.75320400  0.77241700  0.18322200  1
  Na  Na11  1  0.25320400  0.72758300  0.81677800  1
  Na  Na12  1  0.75320400  0.72758300  0.68322200  1
  Na  Na13  1  0.25320400  0.77241700  0.31677800  1
  Na  Na14  1  0.24679600  0.22758300  0.81677800  1
  Na  Na15  1  0.74679600  0.27241700  0.18322200  1
  Ru  Ru16  1  0.78069300  0.01611600  0.30889400  1
  Ru  Ru17  1  0.28069300  0.48388400  0.69110600  1
  Ru  Ru18  1  0.21930700  0.51611600  0.19110600  1
  Ru  Ru19  1  0.71930700  0.98388400  0.80889400  1
  Ru  Ru20  1  0.21930700  0.98388400  0.69110600  1
  Ru  Ru21  1  0.71930700  0.51611600  0.30889400  1
  Ru  Ru22  1  0.78069300  0.48388400  0.80889400  1
  Ru  Ru23  1  0.28069300  0.01611600  0.19110600  1
  Ru  Ru24  1  0.73465100  0.27092400  0.43324200  1
  Ru  Ru25  1  0.23465100  0.22907600  0.56675800  1
  Ru  Ru26  1  0.26534900  0.77092400  0.06675800  1
  Ru  Ru27  1  0.76534900  0.72907600  0.93324200  1
  Ru  Ru28  1  0.26534900  0.72907600  0.56675800  1
  Ru  Ru29  1  0.76534900  0.77092400  0.43324200  1
  Ru  Ru30  1  0.73465100  0.22907600  0.93324200  1
  Ru  Ru31  1  0.23465100  0.27092400  0.06675800  1
  N  N32  1  0.00505700  0.31695300  0.50266200  1
  N  N33  1  0.50505700  0.18304700  0.49733800  1
  N  N34  1  0.99494300  0.81695300  0.99733800  1
  N  N35  1  0.49494300  0.68304700  0.00266200  1
  N  N36  1  0.99494300  0.68304700  0.49733800  1
  N  N37  1  0.49494300  0.81695300  0.50266200  1
  N  N38  1  0.00505700  0.18304700  0.00266200  1
  N  N39  1  0.50505700  0.31695300  0.99733800  1
  N  N40  1  0.59398300  0.41782700  0.39887700  1
  N  N41  1  0.09398300  0.08217300  0.60112300  1
  N  N42  1  0.40601700  0.91782700  0.10112300  1
  N  N43  1  0.90601700  0.58217300  0.89887700  1
  N  N44  1  0.40601700  0.58217300  0.60112300  1
  N  N45  1  0.90601700  0.91782700  0.39887700  1
  N  N46  1  0.59398300  0.08217300  0.89887700  1
  N  N47  1  0.09398300  0.41782700  0.10112300  1
  N  N48  1  0.81649100  0.18164700  0.33228200  1
  N  N49  1  0.31649100  0.31835300  0.66771800  1
  N  N50  1  0.18350900  0.68164700  0.16771800  1
  N  N51  1  0.68350900  0.81835300  0.83228200  1
  N  N52  1  0.18350900  0.81835300  0.66771800  1
  N  N53  1  0.68350900  0.68164700  0.33228200  1
  N  N54  1  0.81649100  0.31835300  0.83228200  1
  N  N55  1  0.31649100  0.18164700  0.16771800  1
  N  N56  1  0.54974000  0.47800900  0.20527700  1
  N  N57  1  0.04974000  0.02199100  0.79472300  1
  N  N58  1  0.45026000  0.97800900  0.29472300  1
  N  N59  1  0.95026000  0.52199100  0.70527700  1
  N  N60  1  0.45026000  0.52199100  0.79472300  1
  N  N61  1  0.95026000  0.97800900  0.20527700  1
  N  N62  1  0.54974000  0.02199100  0.70527700  1
  N  N63  1  0.04974000  0.47800900  0.29472300  1
