# generated using pymatgen
data_Sr7PbN6
_symmetry_space_group_name_H-M   'P 1'
_cell_length_a   6.84967300
_cell_length_b   9.89768950
_cell_length_c   9.89768950
_cell_angle_alpha   79.37823512
_cell_angle_beta   69.75569595
_cell_angle_gamma   69.75569595
_symmetry_Int_Tables_number   1
_chemical_formula_structural   Sr7PbN6
_chemical_formula_sum   'Sr14 Pb2 N12'
_cell_volume   589.08752409
_cell_formula_units_Z   2
loop_
 _symmetry_equiv_pos_site_id
 _symmetry_equiv_pos_as_xyz
  1  'x, y, z'
loop_
 _atom_site_type_symbol
 _atom_site_label
 _atom_site_symmetry_multiplicity
 _atom_site_fract_x
 _atom_site_fract_y
 _atom_site_fract_z
 _atom_site_occupancy
  Sr  Sr0  1  0.28189500  0.95041100  0.04958900  1
  Sr  Sr1  1  0.71810500  0.04958900  0.95041100  1
  Sr  Sr2  1  0.21810500  0.45041100  0.54958900  1
  Sr  Sr3  1  0.78189500  0.54958900  0.45041100  1
  Sr  Sr4  1  0.76155800  0.15271700  0.58953900  1
  Sr  Sr5  1  0.49618700  0.58953900  0.15271700  1
  Sr  Sr6  1  0.73844200  0.91046100  0.34728300  1
  Sr  Sr7  1  0.00381300  0.34728300  0.91046100  1
  Sr  Sr8  1  0.23844200  0.84728300  0.41046100  1
  Sr  Sr9  1  0.50381300  0.41046100  0.84728300  1
  Sr  Sr10  1  0.26155800  0.08953900  0.65271700  1
  Sr  Sr11  1  0.99618700  0.65271700  0.08953900  1
  Sr  Sr12  1  0.25000000  0.25000000  0.25000000  1
  Sr  Sr13  1  0.75000000  0.75000000  0.75000000  1
  Pb  Pb14  1  0.75000000  0.25000000  0.25000000  1
  Pb  Pb15  1  0.25000000  0.75000000  0.75000000  1
  N  N16  1  0.02373900  0.06265900  0.29444200  1
  N  N17  1  0.61915900  0.29444200  0.06265900  1
  N  N18  1  0.47626100  0.20555800  0.43734100  1
  N  N19  1  0.88084100  0.43734100  0.20555800  1
  N  N20  1  0.97626100  0.93734100  0.70555800  1
  N  N21  1  0.38084100  0.70555800  0.93734100  1
  N  N22  1  0.52373900  0.79444200  0.56265900  1
  N  N23  1  0.11915900  0.56265900  0.79444200  1
  N  N24  1  0.88334300  0.35038700  0.64961300  1
  N  N25  1  0.11665700  0.64961300  0.35038700  1
  N  N26  1  0.61665700  0.85038700  0.14961300  1
  N  N27  1  0.38334300  0.14961300  0.85038700  1
