# generated using pymatgen
data_Ca4RhN4
_symmetry_space_group_name_H-M   'P 1'
_cell_length_a   6.12541010
_cell_length_b   5.99772573
_cell_length_c   8.70026797
_cell_angle_alpha   67.58569055
_cell_angle_beta   77.92344118
_cell_angle_gamma   70.13069437
_symmetry_Int_Tables_number   1
_chemical_formula_structural   Ca4RhN4
_chemical_formula_sum   'Ca8 Rh2 N8'
_cell_volume   276.72879718
_cell_formula_units_Z   2
loop_
 _symmetry_equiv_pos_site_id
 _symmetry_equiv_pos_as_xyz
  1  'x, y, z'
loop_
 _atom_site_type_symbol
 _atom_site_label
 _atom_site_symmetry_multiplicity
 _atom_site_fract_x
 _atom_site_fract_y
 _atom_site_fract_z
 _atom_site_occupancy
  Ca  Ca0  1  0.78788211  0.58418078  0.15488697  1
  Ca  Ca1  1  0.21211789  0.41581922  0.84511303  1
  Ca  Ca2  1  0.72045128  0.21247874  0.98656167  1
  Ca  Ca3  1  0.27954872  0.78752126  0.01343833  1
  Ca  Ca4  1  0.73161593  0.48102089  0.57223131  1
  Ca  Ca5  1  0.26838407  0.51897911  0.42776869  1
  Ca  Ca6  1  0.21516408  0.95526959  0.62049200  1
  Ca  Ca7  1  0.78483592  0.04473041  0.37950800  1
  Rh  Rh8  1  0.71111477  0.85297150  0.75888761  1
  Rh  Rh9  1  0.28888523  0.14702850  0.24111239  1
  N  N10  1  0.98393896  0.67933908  0.61716057  1
  N  N11  1  0.01606104  0.32066092  0.38283943  1
  N  N12  1  0.94762868  0.85230751  0.88646274  1
  N  N13  1  0.05237132  0.14769249  0.11353726  1
  N  N14  1  0.51038016  0.61953976  0.79424142  1
  N  N15  1  0.48961984  0.38046024  0.20575858  1
  N  N16  1  0.52965966  0.83533052  0.32488843  1
  N  N17  1  0.47034034  0.16466948  0.67511157  1
