# generated using pymatgen
data_Ti2Pb5N6
_symmetry_space_group_name_H-M   'P 1'
_cell_length_a   6.10571658
_cell_length_b   7.89115658
_cell_length_c   15.24234578
_cell_angle_alpha   90.00000020
_cell_angle_beta   89.76384347
_cell_angle_gamma   130.25649737
_symmetry_Int_Tables_number   1
_chemical_formula_structural   Ti2Pb5N6
_chemical_formula_sum   'Ti4 Pb10 N12'
_cell_volume   560.45134874
_cell_formula_units_Z   2
loop_
 _symmetry_equiv_pos_site_id
 _symmetry_equiv_pos_as_xyz
  1  'x, y, z'
loop_
 _atom_site_type_symbol
 _atom_site_label
 _atom_site_symmetry_multiplicity
 _atom_site_fract_x
 _atom_site_fract_y
 _atom_site_fract_z
 _atom_site_occupancy
  Ti  Ti0  1  0.52303600  0.90689600  0.57314500  1
  Ti  Ti1  1  0.47696400  0.38386000  0.92685500  1
  Ti  Ti2  1  0.47696400  0.09310400  0.42685500  1
  Ti  Ti3  1  0.52303600  0.61614000  0.07314500  1
  Pb  Pb4  1  0.11117000  0.81265100  0.98539000  1
  Pb  Pb5  1  0.88883000  0.70148100  0.51461000  1
  Pb  Pb6  1  0.88883000  0.18734900  0.01461000  1
  Pb  Pb7  1  0.11117000  0.29851900  0.48539000  1
  Pb  Pb8  1  0.28388400  0.11079800  0.66924800  1
  Pb  Pb9  1  0.71611600  0.82691300  0.83075200  1
  Pb  Pb10  1  0.71611600  0.88920200  0.33075200  1
  Pb  Pb11  1  0.28388400  0.17308700  0.16924800  1
  Pb  Pb12  1  0.00000000  0.50416000  0.75000000  1
  Pb  Pb13  1  0.00000000  0.49584000  0.25000000  1
  N  N14  1  0.87722400  0.96456700  0.59200900  1
  N  N15  1  0.12277600  0.08734300  0.90799100  1
  N  N16  1  0.12277600  0.03543300  0.40799100  1
  N  N17  1  0.87722400  0.91265700  0.09200900  1
  N  N18  1  0.18922300  0.77620400  0.64998100  1
  N  N19  1  0.81077700  0.58698100  0.85001900  1
  N  N20  1  0.81077700  0.22379600  0.35001900  1
  N  N21  1  0.18922300  0.41301900  0.14998100  1
  N  N22  1  0.61468100  0.18435200  0.54550400  1
  N  N23  1  0.38531900  0.56967000  0.95449600  1
  N  N24  1  0.38531900  0.81564800  0.45449600  1
  N  N25  1  0.61468100  0.43033000  0.04550400  1
