# generated using pymatgen
data_VFe2N3
_symmetry_space_group_name_H-M   'P 1'
_cell_length_a   5.30107801
_cell_length_b   5.24763571
_cell_length_c   4.92502100
_cell_angle_alpha   90.00000000
_cell_angle_beta   90.00000000
_cell_angle_gamma   119.66707235
_symmetry_Int_Tables_number   1
_chemical_formula_structural   VFe2N3
_chemical_formula_sum   'V2 Fe4 N6'
_cell_volume   119.04572657
_cell_formula_units_Z   2
loop_
 _symmetry_equiv_pos_site_id
 _symmetry_equiv_pos_as_xyz
  1  'x, y, z'
loop_
 _atom_site_type_symbol
 _atom_site_label
 _atom_site_symmetry_multiplicity
 _atom_site_fract_x
 _atom_site_fract_y
 _atom_site_fract_z
 _atom_site_occupancy
  V  V0  1  0.00000000  0.68022700  0.47861700  1
  V  V1  1  0.00000000  0.31977300  0.97861700  1
  Fe  Fe2  1  0.30724500  0.29857400  0.49872000  1
  Fe  Fe3  1  0.69275500  0.99132900  0.49872000  1
  Fe  Fe4  1  0.69275500  0.70142600  0.99872000  1
  Fe  Fe5  1  0.30724500  0.00867100  0.99872000  1
  N  N6  1  0.36320300  0.36399600  0.86676500  1
  N  N7  1  0.63679700  0.00079500  0.86676500  1
  N  N8  1  0.63679700  0.63600400  0.36676500  1
  N  N9  1  0.36320300  0.99920500  0.36676500  1
  N  N10  1  0.00000000  0.67193900  0.86241100  1
  N  N11  1  0.00000000  0.32806100  0.36241100  1
