# generated using pymatgen
data_CoGeN2
_symmetry_space_group_name_H-M   'P 1'
_cell_length_a   5.22180100
_cell_length_b   10.71099000
_cell_length_c   12.68486000
_cell_angle_alpha   90.00000000
_cell_angle_beta   90.00000000
_cell_angle_gamma   90.00000000
_symmetry_Int_Tables_number   1
_chemical_formula_structural   CoGeN2
_chemical_formula_sum   'Co16 Ge16 N32'
_cell_volume   709.47257015
_cell_formula_units_Z   16
loop_
 _symmetry_equiv_pos_site_id
 _symmetry_equiv_pos_as_xyz
  1  'x, y, z'
loop_
 _atom_site_type_symbol
 _atom_site_label
 _atom_site_symmetry_multiplicity
 _atom_site_fract_x
 _atom_site_fract_y
 _atom_site_fract_z
 _atom_site_occupancy
  Co  Co0  1  0.63583500  0.95295700  0.44350000  1
  Co  Co1  1  0.13583500  0.54704300  0.55650000  1
  Co  Co2  1  0.36416500  0.45295700  0.05650000  1
  Co  Co3  1  0.86416500  0.04704300  0.94350000  1
  Co  Co4  1  0.36416500  0.04704300  0.55650000  1
  Co  Co5  1  0.86416500  0.45295700  0.44350000  1
  Co  Co6  1  0.63583500  0.54704300  0.94350000  1
  Co  Co7  1  0.13583500  0.95295700  0.05650000  1
  Co  Co8  1  0.81620300  0.30471200  0.30183300  1
  Co  Co9  1  0.31620300  0.19528800  0.69816700  1
  Co  Co10  1  0.18379700  0.80471200  0.19816700  1
  Co  Co11  1  0.68379700  0.69528800  0.80183300  1
  Co  Co12  1  0.18379700  0.69528800  0.69816700  1
  Co  Co13  1  0.68379700  0.80471200  0.30183300  1
  Co  Co14  1  0.81620300  0.19528800  0.80183300  1
  Co  Co15  1  0.31620300  0.30471200  0.19816700  1
  Ge  Ge16  1  0.62297000  0.04301000  0.18444900  1
  Ge  Ge17  1  0.12297000  0.45699000  0.81555100  1
  Ge  Ge18  1  0.37703000  0.54301000  0.31555100  1
  Ge  Ge19  1  0.87703000  0.95699000  0.68444900  1
  Ge  Ge20  1  0.37703000  0.95699000  0.81555100  1
  Ge  Ge21  1  0.87703000  0.54301000  0.18444900  1
  Ge  Ge22  1  0.62297000  0.45699000  0.68444900  1
  Ge  Ge23  1  0.12297000  0.04301000  0.31555100  1
  Ge  Ge24  1  0.81826800  0.29013100  0.06134300  1
  Ge  Ge25  1  0.31826800  0.20986900  0.93865700  1
  Ge  Ge26  1  0.18173200  0.79013100  0.43865700  1
  Ge  Ge27  1  0.68173200  0.70986900  0.56134300  1
  Ge  Ge28  1  0.18173200  0.70986900  0.93865700  1
  Ge  Ge29  1  0.68173200  0.79013100  0.06134300  1
  Ge  Ge30  1  0.81826800  0.20986900  0.56134300  1
  Ge  Ge31  1  0.31826800  0.29013100  0.43865700  1
  N  N32  1  0.71149800  0.48047600  0.30527400  1
  N  N33  1  0.21149800  0.01952400  0.69472600  1
  N  N34  1  0.28850200  0.98047600  0.19472600  1
  N  N35  1  0.78850200  0.51952400  0.80527400  1
  N  N36  1  0.28850200  0.51952400  0.69472600  1
  N  N37  1  0.78850200  0.98047600  0.30527400  1
  N  N38  1  0.71149800  0.01952400  0.80527400  1
  N  N39  1  0.21149800  0.48047600  0.19472600  1
  N  N40  1  0.68048100  0.29050300  0.44143700  1
  N  N41  1  0.18048100  0.20949700  0.55856300  1
  N  N42  1  0.31951900  0.79050300  0.05856300  1
  N  N43  1  0.81951900  0.70949700  0.94143700  1
  N  N44  1  0.31951900  0.70949700  0.55856300  1
  N  N45  1  0.81951900  0.79050300  0.44143700  1
  N  N46  1  0.68048100  0.20949700  0.94143700  1
  N  N47  1  0.18048100  0.29050300  0.05856300  1
  N  N48  1  0.72843000  0.46128700  0.06775300  1
  N  N49  1  0.22843000  0.03871300  0.93224700  1
  N  N50  1  0.27157000  0.96128700  0.43224700  1
  N  N51  1  0.77157000  0.53871300  0.56775300  1
  N  N52  1  0.27157000  0.53871300  0.93224700  1
  N  N53  1  0.77157000  0.96128700  0.06775300  1
  N  N54  1  0.72843000  0.03871300  0.56775300  1
  N  N55  1  0.22843000  0.46128700  0.43224700  1
  N  N56  1  0.65148500  0.21829100  0.18079500  1
  N  N57  1  0.15148500  0.28170900  0.81920500  1
  N  N58  1  0.34851500  0.71829100  0.31920500  1
  N  N59  1  0.84851500  0.78170900  0.68079500  1
  N  N60  1  0.34851500  0.78170900  0.81920500  1
  N  N61  1  0.84851500  0.71829100  0.18079500  1
  N  N62  1  0.65148500  0.28170900  0.68079500  1
  N  N63  1  0.15148500  0.21829100  0.31920500  1
