# generated using pymatgen
data_LuMgCrS4
_symmetry_space_group_name_H-M   'P 1'
_cell_length_a   7.57649140
_cell_length_b   7.49395313
_cell_length_c   7.50535165
_cell_angle_alpha   59.40320375
_cell_angle_beta   59.68733972
_cell_angle_gamma   59.64636560
_symmetry_Int_Tables_number   1
_chemical_formula_structural   LuMgCrS4
_chemical_formula_sum   'Lu2 Mg2 Cr2 S8'
_cell_volume   298.43674668
_cell_formula_units_Z   2
loop_
 _symmetry_equiv_pos_site_id
 _symmetry_equiv_pos_as_xyz
  1  'x, y, z'
loop_
 _atom_site_type_symbol
 _atom_site_label
 _atom_site_symmetry_multiplicity
 _atom_site_fract_x
 _atom_site_fract_y
 _atom_site_fract_z
 _atom_site_occupancy
  Lu  Lu0  1  0.49999100  0.50000800  0.49999000  1
  Lu  Lu1  1  0.00000800  0.49999000  0.50000800  1
  Mg  Mg2  1  0.87531900  0.87414300  0.87520500  1
  Mg  Mg3  1  0.12468200  0.12587400  0.12478400  1
  Cr  Cr4  1  0.50003000  0.49998900  0.00000100  1
  Cr  Cr5  1  0.49998100  0.99998400  0.50000100  1
  S  S6  1  0.71520700  0.75274700  0.75074900  1
  S  S7  1  0.26950300  0.23393300  0.72694400  1
  S  S8  1  0.26907500  0.72699000  0.23496600  1
  S  S9  1  0.71866900  0.24721200  0.24925100  1
  S  S10  1  0.73090600  0.27301500  0.76503200  1
  S  S11  1  0.28131700  0.75279500  0.75076000  1
  S  S12  1  0.28479800  0.24724800  0.24925700  1
  S  S13  1  0.73051900  0.76606900  0.27305200  1
