# generated using pymatgen
data_Bi4Te3N2
_symmetry_space_group_name_H-M   'P 1'
_cell_length_a   7.65870800
_cell_length_b   16.43397800
_cell_length_c   4.15057300
_cell_angle_alpha   90.00000000
_cell_angle_beta   90.00000000
_cell_angle_gamma   90.00000000
_symmetry_Int_Tables_number   1
_chemical_formula_structural   Bi4Te3N2
_chemical_formula_sum   'Bi8 Te6 N4'
_cell_volume   522.40373046
_cell_formula_units_Z   2
loop_
 _symmetry_equiv_pos_site_id
 _symmetry_equiv_pos_as_xyz
  1  'x, y, z'
loop_
 _atom_site_type_symbol
 _atom_site_label
 _atom_site_symmetry_multiplicity
 _atom_site_fract_x
 _atom_site_fract_y
 _atom_site_fract_z
 _atom_site_occupancy
  Bi  Bi0  1  0.69312000  0.93883500  0.50000000  1
  Bi  Bi1  1  0.30688000  0.06116500  0.50000000  1
  Bi  Bi2  1  0.19312000  0.56116500  0.00000000  1
  Bi  Bi3  1  0.80688000  0.43883500  0.00000000  1
  Bi  Bi4  1  0.79554800  0.64294200  0.50000000  1
  Bi  Bi5  1  0.20445200  0.35705900  0.50000000  1
  Bi  Bi6  1  0.29554800  0.85705800  0.00000000  1
  Bi  Bi7  1  0.70445200  0.14294100  0.00000000  1
  Te  Te8  1  0.50000000  0.50000000  0.50000000  1
  Te  Te9  1  0.00000000  0.00000000  0.00000000  1
  Te  Te10  1  0.83902400  0.28345400  0.50000000  1
  Te  Te11  1  0.16097600  0.71654600  0.50000000  1
  Te  Te12  1  0.33902400  0.21654600  0.00000000  1
  Te  Te13  1  0.66097600  0.78345400  0.00000000  1
  N  N14  1  0.60796000  0.07476000  0.50000000  1
  N  N15  1  0.39204000  0.92524000  0.50000000  1
  N  N16  1  0.10796000  0.42524000  0.00000000  1
  N  N17  1  0.89204000  0.57476000  0.00000000  1
