# generated using pymatgen
data_V(PbN)4
_symmetry_space_group_name_H-M   'P 1'
_cell_length_a   6.51391224
_cell_length_b   7.55343596
_cell_length_c   8.69941009
_cell_angle_alpha   72.66183650
_cell_angle_beta   86.85682733
_cell_angle_gamma   73.03477652
_symmetry_Int_Tables_number   1
_chemical_formula_structural   V(PbN)4
_chemical_formula_sum   'V2 Pb8 N8'
_cell_volume   390.56061301
_cell_formula_units_Z   2
loop_
 _symmetry_equiv_pos_site_id
 _symmetry_equiv_pos_as_xyz
  1  'x, y, z'
loop_
 _atom_site_type_symbol
 _atom_site_label
 _atom_site_symmetry_multiplicity
 _atom_site_fract_x
 _atom_site_fract_y
 _atom_site_fract_z
 _atom_site_occupancy
  V  V0  1  0.77900000  0.75354000  0.74266700  1
  V  V1  1  0.22100000  0.24646000  0.25733300  1
  Pb  Pb2  1  0.83951100  0.61458100  0.13587200  1
  Pb  Pb3  1  0.16048900  0.38541900  0.86412800  1
  Pb  Pb4  1  0.68956500  0.26840800  0.99595400  1
  Pb  Pb5  1  0.31043500  0.73159200  0.00404600  1
  Pb  Pb6  1  0.77650800  0.40304600  0.58541300  1
  Pb  Pb7  1  0.22349200  0.59695400  0.41458700  1
  Pb  Pb8  1  0.27221200  0.00159400  0.60734700  1
  Pb  Pb9  1  0.72778800  0.99840600  0.39265300  1
  N  N10  1  0.90062800  0.67055800  0.56952000  1
  N  N11  1  0.09937200  0.32944200  0.43048000  1
  N  N12  1  0.00711300  0.70035200  0.88764900  1
  N  N13  1  0.99288700  0.29964800  0.11235100  1
  N  N14  1  0.60389400  0.60768000  0.84478300  1
  N  N15  1  0.39610600  0.39232000  0.15521700  1
  N  N16  1  0.37197900  0.99774100  0.34287400  1
  N  N17  1  0.62802100  0.00225900  0.65712600  1
