# generated using pymatgen
data_HfCrAgS4
_symmetry_space_group_name_H-M   'P 1'
_cell_length_a   7.11506031
_cell_length_b   13.29237442
_cell_length_c   6.13180345
_cell_angle_alpha   90.20139114
_cell_angle_beta   90.08015542
_cell_angle_gamma   89.83328826
_symmetry_Int_Tables_number   1
_chemical_formula_structural   HfCrAgS4
_chemical_formula_sum   'Hf4 Cr4 Ag4 S16'
_cell_volume   579.91512723
_cell_formula_units_Z   4
loop_
 _symmetry_equiv_pos_site_id
 _symmetry_equiv_pos_as_xyz
  1  'x, y, z'
loop_
 _atom_site_type_symbol
 _atom_site_label
 _atom_site_symmetry_multiplicity
 _atom_site_fract_x
 _atom_site_fract_y
 _atom_site_fract_z
 _atom_site_occupancy
  Hf  Hf0  1  0.51552300  0.74623500  0.00101400  1
  Hf  Hf1  1  0.25066300  0.24963000  0.49952600  1
  Hf  Hf2  1  0.74965100  0.24957900  0.49937500  1
  Hf  Hf3  1  0.23449600  0.75209600  0.50124800  1
  Cr  Cr4  1  0.99998300  0.24636300  0.00029400  1
  Cr  Cr5  1  0.99795500  0.75387300  0.99852700  1
  Cr  Cr6  1  0.49998000  0.25324500  0.99994000  1
  Cr  Cr7  1  0.75178500  0.75045200  0.49782700  1
  Ag  Ag8  1  0.00154900  0.00331400  0.34947800  1
  Ag  Ag9  1  0.50003500  0.49614400  0.66198000  1
  Ag  Ag10  1  0.99572700  0.50034600  0.02410600  1
  Ag  Ag11  1  0.50392100  0.99533700  0.97991600  1
  S  S12  1  0.25052600  0.35579200  0.84721300  1
  S  S13  1  0.76390900  0.64369100  0.81735300  1
  S  S14  1  0.75023400  0.14412500  0.15130600  1
  S  S15  1  0.24227000  0.85899900  0.15648400  1
  S  S16  1  0.25054700  0.14424000  0.15150400  1
  S  S17  1  0.76198300  0.85718600  0.17780800  1
  S  S18  1  0.74837400  0.35580700  0.84733300  1
  S  S19  1  0.24226600  0.64225300  0.84015500  1
  S  S20  1  0.00084200  0.14105300  0.67478900  1
  S  S21  1  0.98385900  0.85655500  0.67327800  1
  S  S22  1  0.49939800  0.35877400  0.32485800  1
  S  S23  1  0.50859800  0.64247300  0.34452100  1
  S  S24  1  0.99942900  0.35597100  0.32198200  1
  S  S25  1  0.98805700  0.64812400  0.31844400  1
  S  S26  1  0.50079100  0.14303300  0.67905900  1
  S  S27  1  0.50764800  0.85531000  0.66068500  1
