# generated using pymatgen
data_Zr(PbN)4
_symmetry_space_group_name_H-M   'P 1'
_cell_length_a   6.97888214
_cell_length_b   7.91208718
_cell_length_c   9.59071129
_cell_angle_alpha   65.68163988
_cell_angle_beta   76.01876034
_cell_angle_gamma   55.44479426
_symmetry_Int_Tables_number   1
_chemical_formula_structural   Zr(PbN)4
_chemical_formula_sum   'Zr2 Pb8 N8'
_cell_volume   397.42615619
_cell_formula_units_Z   2
loop_
 _symmetry_equiv_pos_site_id
 _symmetry_equiv_pos_as_xyz
  1  'x, y, z'
loop_
 _atom_site_type_symbol
 _atom_site_label
 _atom_site_symmetry_multiplicity
 _atom_site_fract_x
 _atom_site_fract_y
 _atom_site_fract_z
 _atom_site_occupancy
  Zr  Zr0  1  0.75007500  0.81159400  0.75019300  1
  Zr  Zr1  1  0.24992500  0.18840600  0.24980700  1
  Pb  Pb2  1  0.76225000  0.61502500  0.13684600  1
  Pb  Pb3  1  0.23775000  0.38497500  0.86315400  1
  Pb  Pb4  1  0.76759400  0.29267800  0.95308000  1
  Pb  Pb5  1  0.23240600  0.70732200  0.04692000  1
  Pb  Pb6  1  0.73245200  0.51308100  0.54681300  1
  Pb  Pb7  1  0.26754800  0.48691900  0.45318700  1
  Pb  Pb8  1  0.26258400  0.98643300  0.63662500  1
  Pb  Pb9  1  0.73741600  0.01356700  0.36337500  1
  N  N10  1  0.97424900  0.57640000  0.64636700  1
  N  N11  1  0.02575100  0.42360000  0.35363300  1
  N  N12  1  0.97332100  0.72603600  0.91363800  1
  N  N13  1  0.02667900  0.27396400  0.08636200  1
  N  N14  1  0.52586800  0.69721300  0.85378200  1
  N  N15  1  0.47413200  0.30278700  0.14621800  1
  N  N16  1  0.47331600  0.88722700  0.41325200  1
  N  N17  1  0.52668400  0.11277300  0.58674800  1
