# generated using pymatgen
data_Sr2MgSi2O7
_symmetry_space_group_name_H-M   'P 1'
_cell_length_a   7.97008000
_cell_length_b   9.49358016
_cell_length_c   9.62706503
_cell_angle_alpha   113.99347791
_cell_angle_beta   90.00000000
_cell_angle_gamma   90.00000000
_symmetry_Int_Tables_number   1
_chemical_formula_structural   Sr2MgSi2O7
_chemical_formula_sum   'Sr8 Mg4 Si8 O28'
_cell_volume   665.48577611
_cell_formula_units_Z   4
loop_
 _symmetry_equiv_pos_site_id
 _symmetry_equiv_pos_as_xyz
  1  'x, y, z'
loop_
 _atom_site_type_symbol
 _atom_site_label
 _atom_site_symmetry_multiplicity
 _atom_site_fract_x
 _atom_site_fract_y
 _atom_site_fract_z
 _atom_site_occupancy
  Sr  Sr0  1  0.44918300  0.72415800  0.79927900  1
  Sr  Sr1  1  0.26732400  0.45186200  0.02351500  1
  Sr  Sr2  1  0.23267600  0.95186200  0.52351500  1
  Sr  Sr3  1  0.94918300  0.77584200  0.70072100  1
  Sr  Sr4  1  0.55081700  0.27584200  0.20072100  1
  Sr  Sr5  1  0.05081700  0.22415800  0.29927900  1
  Sr  Sr6  1  0.76732400  0.04813800  0.47648500  1
  Sr  Sr7  1  0.73267600  0.54813800  0.97648500  1
  Mg  Mg8  1  0.10865700  0.83429900  0.11584200  1
  Mg  Mg9  1  0.39134300  0.33429900  0.61584200  1
  Mg  Mg10  1  0.89134300  0.16570100  0.88415800  1
  Mg  Mg11  1  0.60865700  0.66570100  0.38415800  1
  Si  Si12  1  0.72627100  0.46413700  0.58053500  1
  Si  Si13  1  0.03989000  0.36672200  0.70841200  1
  Si  Si14  1  0.27372900  0.53586400  0.41946500  1
  Si  Si15  1  0.53989000  0.13327800  0.79158800  1
  Si  Si16  1  0.22627100  0.03586300  0.91946500  1
  Si  Si17  1  0.96011000  0.63327800  0.29158800  1
  Si  Si18  1  0.77372900  0.96413600  0.08053500  1
  Si  Si19  1  0.46011000  0.86672200  0.20841200  1
  O  O20  1  0.27872000  0.95250500  0.26532100  1
  O  O21  1  0.45146600  0.14735200  0.64334300  1
  O  O22  1  0.91935600  0.48999700  0.66273400  1
  O  O23  1  0.58064400  0.98999700  0.16273400  1
  O  O24  1  0.41935600  0.01000300  0.83726600  1
  O  O25  1  0.94649700  0.79747900  0.44038300  1
  O  O26  1  0.95146600  0.35264800  0.85665700  1
  O  O27  1  0.90784400  0.96145400  0.20919800  1
  O  O28  1  0.55350300  0.29747900  0.94038300  1
  O  O29  1  0.68616600  0.62490600  0.56056400  1
  O  O30  1  0.40784400  0.53854600  0.29080200  1
  O  O31  1  0.44649700  0.70252100  0.05961700  1
  O  O32  1  0.09215600  0.03854600  0.79080200  1
  O  O33  1  0.22128000  0.45250500  0.76532100  1
  O  O34  1  0.04853400  0.64735200  0.14334300  1
  O  O35  1  0.72915300  0.30380700  0.42933000  1
  O  O36  1  0.05350300  0.20252100  0.55961700  1
  O  O37  1  0.22915300  0.19619300  0.07067000  1
  O  O38  1  0.72128000  0.04749500  0.73467900  1
  O  O39  1  0.08064400  0.51000300  0.33726600  1
  O  O40  1  0.77084700  0.80380700  0.92933000  1
  O  O41  1  0.31383400  0.37509400  0.43943600  1
  O  O42  1  0.77872000  0.54749500  0.23467900  1
  O  O43  1  0.54853400  0.85264800  0.35665700  1
  O  O44  1  0.18616600  0.87509400  0.93943600  1
  O  O45  1  0.81383400  0.12490600  0.06056400  1
  O  O46  1  0.27084700  0.69619300  0.57067000  1
  O  O47  1  0.59215600  0.46145400  0.70919800  1
