# generated using pymatgen
data_Ca9(MnN4)2
_symmetry_space_group_name_H-M   'P 1'
_cell_length_a   9.62518935
_cell_length_b   4.90732382
_cell_length_c   7.87042953
_cell_angle_alpha   90.00000285
_cell_angle_beta   69.09127193
_cell_angle_gamma   75.23110614
_symmetry_Int_Tables_number   1
_chemical_formula_structural   Ca9(MnN4)2
_chemical_formula_sum   'Ca9 Mn2 N8'
_cell_volume   334.09080139
_cell_formula_units_Z   1
loop_
 _symmetry_equiv_pos_site_id
 _symmetry_equiv_pos_as_xyz
  1  'x, y, z'
loop_
 _atom_site_type_symbol
 _atom_site_label
 _atom_site_symmetry_multiplicity
 _atom_site_fract_x
 _atom_site_fract_y
 _atom_site_fract_z
 _atom_site_occupancy
  Ca  Ca0  1  0.00000000  0.50000000  0.50000000  1
  Ca  Ca1  1  0.07512800  0.96243600  0.76291000  1
  Ca  Ca2  1  0.92487200  0.03756400  0.23709000  1
  Ca  Ca3  1  0.65453500  0.67273300  0.44807600  1
  Ca  Ca4  1  0.34546500  0.32726700  0.55192400  1
  Ca  Ca5  1  0.82614900  0.58692600  0.98642900  1
  Ca  Ca6  1  0.17385100  0.41307400  0.01357100  1
  Ca  Ca7  1  0.38780100  0.80610000  0.17996700  1
  Ca  Ca8  1  0.61219900  0.19390000  0.82003300  1
  Mn  Mn9  1  0.38584700  0.80707700  0.79998100  1
  Mn  Mn10  1  0.61415300  0.19292300  0.20001900  1
  N  N11  1  0.21832200  0.89083900  0.99777400  1
  N  N12  1  0.78167800  0.10916100  0.00222600  1
  N  N13  1  0.36503500  0.81748200  0.59370000  1
  N  N14  1  0.63496500  0.18251800  0.40630000  1
  N  N15  1  0.56863600  0.71568200  0.81147300  1
  N  N16  1  0.43136400  0.28431800  0.18852700  1
  N  N17  1  0.92716300  0.53641800  0.24820800  1
  N  N18  1  0.07283700  0.46358200  0.75179200  1
