# generated using pymatgen
data_SrTi7N10
_symmetry_space_group_name_H-M   'P 1'
_cell_length_a   7.37799460
_cell_length_b   7.39239700
_cell_length_c   10.95928478
_cell_angle_alpha   90.00000000
_cell_angle_beta   102.47490051
_cell_angle_gamma   90.00000000
_symmetry_Int_Tables_number   1
_chemical_formula_structural   SrTi7N10
_chemical_formula_sum   'Sr2 Ti14 N20'
_cell_volume   583.61907075
_cell_formula_units_Z   2
loop_
 _symmetry_equiv_pos_site_id
 _symmetry_equiv_pos_as_xyz
  1  'x, y, z'
loop_
 _atom_site_type_symbol
 _atom_site_label
 _atom_site_symmetry_multiplicity
 _atom_site_fract_x
 _atom_site_fract_y
 _atom_site_fract_z
 _atom_site_occupancy
  Sr  Sr0  1  0.90410900  0.99661900  0.61557000  1
  Sr  Sr1  1  0.90410900  0.00338100  0.11557000  1
  Ti  Ti2  1  0.55386400  0.98384500  0.82542900  1
  Ti  Ti3  1  0.55386400  0.01615500  0.32542900  1
  Ti  Ti4  1  0.37034100  0.01739500  0.02711200  1
  Ti  Ti5  1  0.37034100  0.98260500  0.52711200  1
  Ti  Ti6  1  0.11850400  0.40344700  0.07559700  1
  Ti  Ti7  1  0.11850400  0.59655300  0.57559700  1
  Ti  Ti8  1  0.66214500  0.37220500  0.99137300  1
  Ti  Ti9  1  0.66214500  0.62779500  0.49137300  1
  Ti  Ti10  1  0.85750900  0.63035900  0.80310900  1
  Ti  Ti11  1  0.85750900  0.36964100  0.30310900  1
  Ti  Ti12  1  0.30055300  0.61375500  0.88815900  1
  Ti  Ti13  1  0.30055300  0.38624500  0.38815900  1
  Ti  Ti14  1  0.47563100  0.38289300  0.69198900  1
  Ti  Ti15  1  0.47563100  0.61710700  0.19198900  1
  N  N16  1  0.77646000  0.86381400  0.82181400  1
  N  N17  1  0.77646000  0.13618600  0.32181400  1
  N  N18  1  0.59026600  0.12481800  0.97854100  1
  N  N19  1  0.59026600  0.87518200  0.47854100  1
  N  N20  1  0.34840500  0.86699400  0.88014700  1
  N  N21  1  0.34840500  0.13300600  0.38014700  1
  N  N22  1  0.16841300  0.16195200  0.04301900  1
  N  N23  1  0.16841300  0.83804800  0.54301900  1
  N  N24  1  0.26464000  0.49369000  0.72990100  1
  N  N25  1  0.26464000  0.50631000  0.22990100  1
  N  N26  1  0.46161500  0.12312600  0.67624600  1
  N  N27  1  0.46161500  0.87687400  0.17624600  1
  N  N28  1  0.88032700  0.37008800  0.12507500  1
  N  N29  1  0.88032700  0.62991200  0.62507500  1
  N  N30  1  0.07089300  0.57981600  0.93631400  1
  N  N31  1  0.07089300  0.42018400  0.43631400  1
  N  N32  1  0.67450900  0.45328200  0.82676800  1
  N  N33  1  0.67450900  0.54671800  0.32676800  1
  N  N34  1  0.46411800  0.50569300  0.03313600  1
  N  N35  1  0.46411800  0.49430700  0.53313600  1
