# generated using pymatgen
data_ZrCrAgS4
_symmetry_space_group_name_H-M   'P 1'
_cell_length_a   7.23215700
_cell_length_b   13.24053800
_cell_length_c   6.13227200
_cell_angle_alpha   90.00000000
_cell_angle_beta   90.00000000
_cell_angle_gamma   90.00000000
_symmetry_Int_Tables_number   1
_chemical_formula_structural   ZrCrAgS4
_chemical_formula_sum   'Zr4 Cr4 Ag4 S16'
_cell_volume   587.21195331
_cell_formula_units_Z   4
loop_
 _symmetry_equiv_pos_site_id
 _symmetry_equiv_pos_as_xyz
  1  'x, y, z'
loop_
 _atom_site_type_symbol
 _atom_site_label
 _atom_site_symmetry_multiplicity
 _atom_site_fract_x
 _atom_site_fract_y
 _atom_site_fract_z
 _atom_site_occupancy
  Zr  Zr0  1  0.25000000  0.25000000  0.50000000  1
  Zr  Zr1  1  0.75000000  0.75000000  0.50000000  1
  Zr  Zr2  1  0.75000000  0.25000000  0.50000000  1
  Zr  Zr3  1  0.25000000  0.75000000  0.50000000  1
  Cr  Cr4  1  0.00000000  0.24702600  0.99871100  1
  Cr  Cr5  1  0.00000000  0.75297400  0.99871100  1
  Cr  Cr6  1  0.50000000  0.25297400  0.00128900  1
  Cr  Cr7  1  0.50000000  0.74702600  0.00128900  1
  Ag  Ag8  1  0.00000000  0.00000000  0.34206700  1
  Ag  Ag9  1  0.50000000  0.50000000  0.65793300  1
  Ag  Ag10  1  0.00000000  0.50000000  0.01167900  1
  Ag  Ag11  1  0.50000000  0.00000000  0.98832100  1
  S  S12  1  0.25165000  0.35585400  0.85016900  1
  S  S13  1  0.74835000  0.64414600  0.85016900  1
  S  S14  1  0.75165000  0.14414600  0.14983100  1
  S  S15  1  0.24835000  0.85585400  0.14983100  1
  S  S16  1  0.24835000  0.14414600  0.14983100  1
  S  S17  1  0.75165000  0.85585400  0.14983100  1
  S  S18  1  0.74835000  0.35585400  0.85016900  1
  S  S19  1  0.25165000  0.64414600  0.85016900  1
  S  S20  1  0.00000000  0.13974700  0.67701300  1
  S  S21  1  0.00000000  0.86025300  0.67701300  1
  S  S22  1  0.50000000  0.36025300  0.32298700  1
  S  S23  1  0.50000000  0.63974700  0.32298700  1
  S  S24  1  0.00000000  0.35742100  0.31740300  1
  S  S25  1  0.00000000  0.64257900  0.31740300  1
  S  S26  1  0.50000000  0.14257900  0.68259700  1
  S  S27  1  0.50000000  0.85742100  0.68259700  1
