# generated using pymatgen
data_Sc5(GeN3)3
_symmetry_space_group_name_H-M   'P 1'
_cell_length_a   7.62975943
_cell_length_b   11.25524277
_cell_length_c   15.18979000
_cell_angle_alpha   90.00000000
_cell_angle_beta   90.00000000
_cell_angle_gamma   137.52638057
_symmetry_Int_Tables_number   1
_chemical_formula_structural   Sc5(GeN3)3
_chemical_formula_sum   'Sc20 Ge12 N36'
_cell_volume   880.81054912
_cell_formula_units_Z   4
loop_
 _symmetry_equiv_pos_site_id
 _symmetry_equiv_pos_as_xyz
  1  'x, y, z'
loop_
 _atom_site_type_symbol
 _atom_site_label
 _atom_site_symmetry_multiplicity
 _atom_site_fract_x
 _atom_site_fract_y
 _atom_site_fract_z
 _atom_site_occupancy
  Sc  Sc0  1  0.00000000  0.49745300  0.87302600  1
  Sc  Sc1  1  0.00000000  0.50254700  0.12697400  1
  Sc  Sc2  1  0.00000000  0.00254700  0.37302600  1
  Sc  Sc3  1  0.00000000  0.99745300  0.62697400  1
  Sc  Sc4  1  0.38411400  0.95464500  0.89208600  1
  Sc  Sc5  1  0.38411400  0.42947000  0.10791400  1
  Sc  Sc6  1  0.38411400  0.92947000  0.39208600  1
  Sc  Sc7  1  0.38411400  0.45464500  0.60791400  1
  Sc  Sc8  1  0.61588600  0.04535500  0.10791400  1
  Sc  Sc9  1  0.61588600  0.57053000  0.89208600  1
  Sc  Sc10  1  0.61588600  0.07053000  0.60791400  1
  Sc  Sc11  1  0.61588600  0.54535500  0.39208600  1
  Sc  Sc12  1  0.00000000  0.46840200  0.59843200  1
  Sc  Sc13  1  0.00000000  0.53159800  0.40156800  1
  Sc  Sc14  1  0.00000000  0.03159800  0.09843200  1
  Sc  Sc15  1  0.00000000  0.96840200  0.90156800  1
  Sc  Sc16  1  0.52912300  0.26456200  0.00000000  1
  Sc  Sc17  1  0.52912300  0.76456200  0.50000000  1
  Sc  Sc18  1  0.47087700  0.73543800  0.00000000  1
  Sc  Sc19  1  0.47087700  0.23543800  0.50000000  1
  Ge  Ge20  1  0.00000000  0.75469100  0.04532500  1
  Ge  Ge21  1  0.00000000  0.24530900  0.95467500  1
  Ge  Ge22  1  0.00000000  0.74530900  0.54532500  1
  Ge  Ge23  1  0.00000000  0.25469100  0.45467500  1
  Ge  Ge24  1  0.00000000  0.21426500  0.74536000  1
  Ge  Ge25  1  0.00000000  0.78573500  0.25464000  1
  Ge  Ge26  1  0.00000000  0.28573500  0.24536000  1
  Ge  Ge27  1  0.00000000  0.71426500  0.75464000  1
  Ge  Ge28  1  0.50000000  0.76326200  0.75000000  1
  Ge  Ge29  1  0.50000000  0.73673800  0.25000000  1
  Ge  Ge30  1  0.50000000  0.23673800  0.25000000  1
  Ge  Ge31  1  0.50000000  0.26326200  0.75000000  1
  N  N32  1  0.00000000  0.31180700  0.64822200  1
  N  N33  1  0.00000000  0.68819300  0.35177800  1
  N  N34  1  0.00000000  0.18819300  0.14822200  1
  N  N35  1  0.00000000  0.81180700  0.85177800  1
  N  N36  1  0.00000000  0.30406300  0.84241300  1
  N  N37  1  0.00000000  0.69593700  0.15758700  1
  N  N38  1  0.00000000  0.19593700  0.34241300  1
  N  N39  1  0.00000000  0.80406300  0.65758700  1
  N  N40  1  0.74058700  0.48670100  0.79624100  1
  N  N41  1  0.74058700  0.25388700  0.20375900  1
  N  N42  1  0.74058700  0.75388700  0.29624100  1
  N  N43  1  0.74058700  0.98670100  0.70375900  1
  N  N44  1  0.25941200  0.51329900  0.20375900  1
  N  N45  1  0.25941200  0.74611300  0.79624100  1
  N  N46  1  0.25941200  0.24611300  0.70375900  1
  N  N47  1  0.25941200  0.01329900  0.29624100  1
  N  N48  1  0.45628300  0.16690200  0.86045700  1
  N  N49  1  0.45628300  0.28938100  0.13954300  1
  N  N50  1  0.45628300  0.78938100  0.36045700  1
  N  N51  1  0.45628300  0.66690200  0.63954300  1
  N  N52  1  0.54371700  0.83309800  0.13954300  1
  N  N53  1  0.54371700  0.71061900  0.86045700  1
  N  N54  1  0.54371700  0.21061900  0.63954300  1
  N  N55  1  0.54371700  0.33309800  0.36045700  1
  N  N56  1  0.28410400  0.99647800  0.02118700  1
  N  N57  1  0.28410400  0.28762700  0.97881300  1
  N  N58  1  0.28410400  0.78762700  0.52118700  1
  N  N59  1  0.28410400  0.49647800  0.47881300  1
  N  N60  1  0.71589600  0.00352200  0.97881300  1
  N  N61  1  0.71589600  0.71237300  0.02118700  1
  N  N62  1  0.71589600  0.21237300  0.47881300  1
  N  N63  1  0.71589600  0.50352200  0.52118700  1
  N  N64  1  0.00000000  0.61051600  0.98739400  1
  N  N65  1  0.00000000  0.38948400  0.01260600  1
  N  N66  1  0.00000000  0.88948400  0.48739400  1
  N  N67  1  0.00000000  0.11051600  0.51260600  1
