# generated using pymatgen
data_CrSiN2
_symmetry_space_group_name_H-M   'P 1'
_cell_length_a   5.00911200
_cell_length_b   10.19396700
_cell_length_c   13.28888400
_cell_angle_alpha   90.00000000
_cell_angle_beta   90.00000000
_cell_angle_gamma   90.00000000
_symmetry_Int_Tables_number   1
_chemical_formula_structural   CrSiN2
_chemical_formula_sum   'Cr16 Si16 N32'
_cell_volume   678.56659506
_cell_formula_units_Z   16
loop_
 _symmetry_equiv_pos_site_id
 _symmetry_equiv_pos_as_xyz
  1  'x, y, z'
loop_
 _atom_site_type_symbol
 _atom_site_label
 _atom_site_symmetry_multiplicity
 _atom_site_fract_x
 _atom_site_fract_y
 _atom_site_fract_z
 _atom_site_occupancy
  Cr  Cr0  1  0.68275600  0.97943400  0.44711000  1
  Cr  Cr1  1  0.18275600  0.52056600  0.55289000  1
  Cr  Cr2  1  0.31724400  0.47943400  0.05289000  1
  Cr  Cr3  1  0.81724400  0.02056600  0.94711000  1
  Cr  Cr4  1  0.31724400  0.02056600  0.55289000  1
  Cr  Cr5  1  0.81724400  0.47943400  0.44711000  1
  Cr  Cr6  1  0.68275600  0.52056600  0.94711000  1
  Cr  Cr7  1  0.18275600  0.97943400  0.05289000  1
  Cr  Cr8  1  0.82942000  0.28171800  0.30883300  1
  Cr  Cr9  1  0.32942000  0.21828200  0.69116700  1
  Cr  Cr10  1  0.17058000  0.78171800  0.19116700  1
  Cr  Cr11  1  0.67058000  0.71828200  0.80883300  1
  Cr  Cr12  1  0.17058000  0.71828200  0.69116700  1
  Cr  Cr13  1  0.67058000  0.78171800  0.30883300  1
  Cr  Cr14  1  0.82942000  0.21828200  0.80883300  1
  Cr  Cr15  1  0.32942000  0.28171800  0.19116700  1
  Si  Si16  1  0.66852400  0.02491900  0.18769600  1
  Si  Si17  1  0.16852400  0.47508100  0.81230400  1
  Si  Si18  1  0.33147600  0.52491900  0.31230400  1
  Si  Si19  1  0.83147600  0.97508100  0.68769600  1
  Si  Si20  1  0.33147600  0.97508100  0.81230400  1
  Si  Si21  1  0.83147600  0.52491900  0.18769600  1
  Si  Si22  1  0.66852400  0.47508100  0.68769600  1
  Si  Si23  1  0.16852400  0.02491900  0.31230400  1
  Si  Si24  1  0.82123500  0.27541900  0.06268200  1
  Si  Si25  1  0.32123500  0.22458100  0.93731800  1
  Si  Si26  1  0.17876500  0.77541900  0.43731800  1
  Si  Si27  1  0.67876500  0.72458100  0.56268200  1
  Si  Si28  1  0.17876500  0.72458100  0.93731800  1
  Si  Si29  1  0.67876500  0.77541900  0.06268200  1
  Si  Si30  1  0.82123500  0.22458100  0.56268200  1
  Si  Si31  1  0.32123500  0.27541900  0.43731800  1
  N  N32  1  0.66495300  0.47600400  0.29782700  1
  N  N33  1  0.16495300  0.02399600  0.70217300  1
  N  N34  1  0.33504700  0.97600400  0.20217300  1
  N  N35  1  0.83504700  0.52399600  0.79782700  1
  N  N36  1  0.33504700  0.52399600  0.70217300  1
  N  N37  1  0.83504700  0.97600400  0.29782700  1
  N  N38  1  0.66495300  0.02399600  0.79782700  1
  N  N39  1  0.16495300  0.47600400  0.20217300  1
  N  N40  1  0.66966200  0.28268900  0.45348900  1
  N  N41  1  0.16966200  0.21731100  0.54651100  1
  N  N42  1  0.33033800  0.78268900  0.04651100  1
  N  N43  1  0.83033800  0.71731100  0.95348900  1
  N  N44  1  0.33033800  0.71731100  0.54651100  1
  N  N45  1  0.83033800  0.78268900  0.45348900  1
  N  N46  1  0.66966200  0.21731100  0.95348900  1
  N  N47  1  0.16966200  0.28268900  0.04651100  1
  N  N48  1  0.70984500  0.43939900  0.08251600  1
  N  N49  1  0.20984500  0.06060100  0.91748400  1
  N  N50  1  0.29015500  0.93939900  0.41748400  1
  N  N51  1  0.79015500  0.56060100  0.58251600  1
  N  N52  1  0.29015500  0.56060100  0.91748400  1
  N  N53  1  0.79015500  0.93939900  0.08251600  1
  N  N54  1  0.70984500  0.06060100  0.58251600  1
  N  N55  1  0.20984500  0.43939900  0.41748400  1
  N  N56  1  0.70763700  0.19393700  0.17117500  1
  N  N57  1  0.20763700  0.30606300  0.82882500  1
  N  N58  1  0.29236300  0.69393700  0.32882500  1
  N  N59  1  0.79236300  0.80606300  0.67117500  1
  N  N60  1  0.29236300  0.80606300  0.82882500  1
  N  N61  1  0.79236300  0.69393700  0.17117500  1
  N  N62  1  0.70763700  0.30606300  0.67117500  1
  N  N63  1  0.20763700  0.19393700  0.32882500  1
