# generated using pymatgen
data_KSrN
_symmetry_space_group_name_H-M   'P 1'
_cell_length_a   4.07783019
_cell_length_b   4.07834196
_cell_length_c   7.11538171
_cell_angle_alpha   73.49306847
_cell_angle_beta   73.34846551
_cell_angle_gamma   60.00415048
_symmetry_Int_Tables_number   1
_chemical_formula_structural   KSrN
_chemical_formula_sum   'K1 Sr1 N1'
_cell_volume   96.76170393
_cell_formula_units_Z   1
loop_
 _symmetry_equiv_pos_site_id
 _symmetry_equiv_pos_as_xyz
  1  'x, y, z'
loop_
 _atom_site_type_symbol
 _atom_site_label
 _atom_site_symmetry_multiplicity
 _atom_site_fract_x
 _atom_site_fract_y
 _atom_site_fract_z
 _atom_site_occupancy
  K  K0  1  0.11531900  0.71902300  0.05033900  1
  Sr  Sr1  1  0.65159800  0.25830500  0.43849900  1
  N  N2  1  0.36308300  0.96867200  0.30516300  1
