# generated using pymatgen
data_Ca3Ru3N5
_symmetry_space_group_name_H-M   'P 1'
_cell_length_a   5.96212778
_cell_length_b   6.92636003
_cell_length_c   8.31428205
_cell_angle_alpha   105.56116210
_cell_angle_beta   106.55155359
_cell_angle_gamma   94.96393963
_symmetry_Int_Tables_number   1
_chemical_formula_structural   Ca3Ru3N5
_chemical_formula_sum   'Ca6 Ru6 N10'
_cell_volume   312.07888157
_cell_formula_units_Z   2
loop_
 _symmetry_equiv_pos_site_id
 _symmetry_equiv_pos_as_xyz
  1  'x, y, z'
loop_
 _atom_site_type_symbol
 _atom_site_label
 _atom_site_symmetry_multiplicity
 _atom_site_fract_x
 _atom_site_fract_y
 _atom_site_fract_z
 _atom_site_occupancy
  Ca  Ca0  1  0.81442400  0.41995900  0.61768600  1
  Ca  Ca1  1  0.18557600  0.58004100  0.38231400  1
  Ca  Ca2  1  0.66571800  0.87759500  0.88416700  1
  Ca  Ca3  1  0.33428200  0.12240500  0.11583300  1
  Ca  Ca4  1  0.64437400  0.66185000  0.18562900  1
  Ca  Ca5  1  0.35562600  0.33815000  0.81437100  1
  Ru  Ru6  1  0.92113000  0.31703200  0.98109200  1
  Ru  Ru7  1  0.07887000  0.68296800  0.01890800  1
  Ru  Ru8  1  0.69944500  0.93872000  0.56007200  1
  Ru  Ru9  1  0.30055500  0.06128000  0.43992800  1
  Ru  Ru10  1  0.12760900  0.85916800  0.71931200  1
  Ru  Ru11  1  0.87239100  0.14083200  0.28068800  1
  N  N12  1  0.96224700  0.09248500  0.80229600  1
  N  N13  1  0.03775300  0.90751500  0.19770400  1
  N  N14  1  0.85648200  0.70119200  0.49698500  1
  N  N15  1  0.14351800  0.29880800  0.50301500  1
  N  N16  1  0.73466900  0.53698900  0.89691700  1
  N  N17  1  0.26533100  0.46301100  0.10308300  1
  N  N18  1  0.38049200  0.90518300  0.61146400  1
  N  N19  1  0.61950800  0.09481700  0.38853600  1
  N  N20  1  0.31006800  0.77109900  0.92089400  1
  N  N21  1  0.68993200  0.22890100  0.07910600  1
