# generated using pymatgen
data_LiOsN2
_symmetry_space_group_name_H-M   'P 1'
_cell_length_a   5.69077600
_cell_length_b   6.52407900
_cell_length_c   5.44365600
_cell_angle_alpha   90.00000000
_cell_angle_beta   90.00000000
_cell_angle_gamma   90.00000000
_symmetry_Int_Tables_number   1
_chemical_formula_structural   LiOsN2
_chemical_formula_sum   'Li4 Os4 N8'
_cell_volume   202.10700932
_cell_formula_units_Z   4
loop_
 _symmetry_equiv_pos_site_id
 _symmetry_equiv_pos_as_xyz
  1  'x, y, z'
loop_
 _atom_site_type_symbol
 _atom_site_label
 _atom_site_symmetry_multiplicity
 _atom_site_fract_x
 _atom_site_fract_y
 _atom_site_fract_z
 _atom_site_occupancy
  Li  Li0  1  0.58085600  0.37737200  0.00535800  1
  Li  Li1  1  0.41914400  0.62262800  0.50535800  1
  Li  Li2  1  0.91914400  0.87737200  0.50535800  1
  Li  Li3  1  0.08085600  0.12262800  0.00535800  1
  Os  Os4  1  0.57084100  0.87534300  0.00638800  1
  Os  Os5  1  0.42915900  0.12465700  0.50638800  1
  Os  Os6  1  0.92915900  0.37534300  0.50638800  1
  Os  Os7  1  0.07084100  0.62465700  0.00638800  1
  N  N8  1  0.61123000  0.35588500  0.40465300  1
  N  N9  1  0.38877000  0.64411500  0.90465300  1
  N  N10  1  0.88877000  0.85588500  0.90465300  1
  N  N11  1  0.11123000  0.14411500  0.40465300  1
  N  N12  1  0.56687500  0.89347800  0.35360200  1
  N  N13  1  0.43312500  0.10652200  0.85360200  1
  N  N14  1  0.93312500  0.39347800  0.85360200  1
  N  N15  1  0.06687500  0.60652200  0.35360200  1
