# generated using pymatgen
data_InSiN2
_symmetry_space_group_name_H-M   'P 1'
_cell_length_a   5.55055600
_cell_length_b   10.32567700
_cell_length_c   13.91025300
_cell_angle_alpha   90.00000000
_cell_angle_beta   90.00000000
_cell_angle_gamma   90.00000000
_symmetry_Int_Tables_number   1
_chemical_formula_structural   InSiN2
_chemical_formula_sum   'In16 Si16 N32'
_cell_volume   797.24178586
_cell_formula_units_Z   16
loop_
 _symmetry_equiv_pos_site_id
 _symmetry_equiv_pos_as_xyz
  1  'x, y, z'
loop_
 _atom_site_type_symbol
 _atom_site_label
 _atom_site_symmetry_multiplicity
 _atom_site_fract_x
 _atom_site_fract_y
 _atom_site_fract_z
 _atom_site_occupancy
  In  In0  1  0.77631200  0.00030300  0.42339800  1
  In  In1  1  0.27631200  0.49969700  0.57660200  1
  In  In2  1  0.22368800  0.50030300  0.07660200  1
  In  In3  1  0.72368800  0.99969700  0.92339800  1
  In  In4  1  0.22368800  0.99969700  0.57660200  1
  In  In5  1  0.72368800  0.50030300  0.42339800  1
  In  In6  1  0.77631200  0.49969700  0.92339800  1
  In  In7  1  0.27631200  0.00030300  0.07660200  1
  In  In8  1  0.88891300  0.23028700  0.32013900  1
  In  In9  1  0.38891300  0.26971300  0.67986100  1
  In  In10  1  0.11108700  0.73028700  0.17986100  1
  In  In11  1  0.61108700  0.76971300  0.82013900  1
  In  In12  1  0.11108700  0.76971300  0.67986100  1
  In  In13  1  0.61108700  0.73028700  0.32013900  1
  In  In14  1  0.88891300  0.26971300  0.82013900  1
  In  In15  1  0.38891300  0.23028700  0.17986100  1
  Si  Si16  1  0.79930400  0.99506400  0.18668400  1
  Si  Si17  1  0.29930400  0.50493600  0.81331600  1
  Si  Si18  1  0.20069600  0.49506400  0.31331600  1
  Si  Si19  1  0.70069600  0.00493600  0.68668400  1
  Si  Si20  1  0.20069600  0.00493600  0.81331600  1
  Si  Si21  1  0.70069600  0.49506400  0.18668400  1
  Si  Si22  1  0.79930400  0.50493600  0.68668400  1
  Si  Si23  1  0.29930400  0.99506400  0.31331600  1
  Si  Si24  1  0.83893500  0.26454300  0.06000400  1
  Si  Si25  1  0.33893500  0.23545700  0.93999600  1
  Si  Si26  1  0.16106500  0.76454300  0.43999600  1
  Si  Si27  1  0.66106500  0.73545700  0.56000400  1
  Si  Si28  1  0.16106500  0.73545700  0.93999600  1
  Si  Si29  1  0.66106500  0.76454300  0.06000400  1
  Si  Si30  1  0.83893500  0.23545700  0.56000400  1
  Si  Si31  1  0.33893500  0.26454300  0.43999600  1
  N  N32  1  0.42453400  0.44017200  0.23324200  1
  N  N33  1  0.92453400  0.05982800  0.76675800  1
  N  N34  1  0.57546600  0.94017200  0.26675800  1
  N  N35  1  0.07546600  0.55982800  0.73324200  1
  N  N36  1  0.57546600  0.55982800  0.76675800  1
  N  N37  1  0.07546600  0.94017200  0.23324200  1
  N  N38  1  0.42453400  0.05982800  0.73324200  1
  N  N39  1  0.92453400  0.44017200  0.26675800  1
  N  N40  1  0.65028600  0.29856500  0.46759100  1
  N  N41  1  0.15028600  0.20143500  0.53240900  1
  N  N42  1  0.34971400  0.79856500  0.03240900  1
  N  N43  1  0.84971400  0.70143500  0.96759100  1
  N  N44  1  0.34971400  0.70143500  0.53240900  1
  N  N45  1  0.84971400  0.79856500  0.46759100  1
  N  N46  1  0.65028600  0.20143500  0.96759100  1
  N  N47  1  0.15028600  0.29856500  0.03240900  1
  N  N48  1  0.71203700  0.41673700  0.07705600  1
  N  N49  1  0.21203700  0.08326300  0.92294400  1
  N  N50  1  0.28796300  0.91673700  0.42294400  1
  N  N51  1  0.78796300  0.58326300  0.57705600  1
  N  N52  1  0.28796300  0.58326300  0.92294400  1
  N  N53  1  0.78796300  0.91673700  0.07705600  1
  N  N54  1  0.71203700  0.08326300  0.57705600  1
  N  N55  1  0.21203700  0.41673700  0.42294400  1
  N  N56  1  0.80435300  0.16629600  0.16591900  1
  N  N57  1  0.30435300  0.33370400  0.83408100  1
  N  N58  1  0.19564700  0.66629600  0.33408100  1
  N  N59  1  0.69564700  0.83370400  0.66591900  1
  N  N60  1  0.19564700  0.83370400  0.83408100  1
  N  N61  1  0.69564700  0.66629600  0.16591900  1
  N  N62  1  0.80435300  0.33370400  0.66591900  1
  N  N63  1  0.30435300  0.16629600  0.33408100  1
