# generated using pymatgen
data_Ba3(RuN2)2
_symmetry_space_group_name_H-M   'P 1'
_cell_length_a   6.49676215
_cell_length_b   10.59707442
_cell_length_c   9.79741251
_cell_angle_alpha   90.00000000
_cell_angle_beta   90.00000000
_cell_angle_gamma   90.00000000
_symmetry_Int_Tables_number   1
_chemical_formula_structural   Ba3(RuN2)2
_chemical_formula_sum   'Ba12 Ru8 N16'
_cell_volume   674.51924545
_cell_formula_units_Z   4
loop_
 _symmetry_equiv_pos_site_id
 _symmetry_equiv_pos_as_xyz
  1  'x, y, z'
loop_
 _atom_site_type_symbol
 _atom_site_label
 _atom_site_symmetry_multiplicity
 _atom_site_fract_x
 _atom_site_fract_y
 _atom_site_fract_z
 _atom_site_occupancy
  Ba  Ba0  1  0.62879627  0.15705696  0.42005178  1
  Ba  Ba1  1  0.87120373  0.84294304  0.42005178  1
  Ba  Ba2  1  0.62879627  0.34294304  0.07994822  1
  Ba  Ba3  1  0.87120373  0.65705696  0.07994822  1
  Ba  Ba4  1  0.37120373  0.84294304  0.57994822  1
  Ba  Ba5  1  0.12879627  0.15705696  0.57994822  1
  Ba  Ba6  1  0.37120373  0.65705696  0.92005178  1
  Ba  Ba7  1  0.12879627  0.34294304  0.92005178  1
  Ba  Ba8  1  0.75000000  0.50000000  0.41047812  1
  Ba  Ba9  1  0.75000000  -0.00000000  0.08952188  1
  Ba  Ba10  1  0.25000000  0.50000000  0.58952188  1
  Ba  Ba11  1  0.25000000  -0.00000000  0.91047812  1
  Ru  Ru12  1  0.75000000  0.50000000  0.73988444  1
  Ru  Ru13  1  0.75000000  -0.00000000  0.76011556  1
  Ru  Ru14  1  0.25000000  0.50000000  0.26011556  1
  Ru  Ru15  1  0.25000000  -0.00000000  0.23988444  1
  Ru  Ru16  1  0.67859122  0.25000000  0.75000000  1
  Ru  Ru17  1  0.82140878  0.75000000  0.75000000  1
  Ru  Ru18  1  0.32140878  0.75000000  0.25000000  1
  Ru  Ru19  1  0.17859122  0.25000000  0.25000000  1
  N  N20  1  0.89930681  0.35479296  0.65872352  1
  N  N21  1  0.60069319  0.64520704  0.65872352  1
  N  N22  1  0.89930681  0.14520704  0.84127648  1
  N  N23  1  0.60069319  0.85479296  0.84127648  1
  N  N24  1  0.10069319  0.64520704  0.34127648  1
  N  N25  1  0.39930681  0.35479296  0.34127648  1
  N  N26  1  0.10069319  0.85479296  0.15872352  1
  N  N27  1  0.39930681  0.14520704  0.15872352  1
  N  N28  1  0.50057572  0.40208077  0.80941669  1
  N  N29  1  0.99942428  0.59791923  0.80941669  1
  N  N30  1  0.50057572  0.09791923  0.69058331  1
  N  N31  1  0.99942428  0.90208077  0.69058331  1
  N  N32  1  0.49942428  0.59791923  0.19058331  1
  N  N33  1  0.00057572  0.40208077  0.19058331  1
  N  N34  1  0.49942428  0.90208077  0.30941669  1
  N  N35  1  0.00057572  0.09791923  0.30941669  1
