# generated using pymatgen
data_MgVCrS4
_symmetry_space_group_name_H-M   'P 1'
_cell_length_a   7.11486136
_cell_length_b   7.24890595
_cell_length_c   7.24858434
_cell_angle_alpha   60.28282620
_cell_angle_beta   60.58981983
_cell_angle_gamma   60.59389286
_symmetry_Int_Tables_number   1
_chemical_formula_structural   MgVCrS4
_chemical_formula_sum   'Mg2 V2 Cr2 S8'
_cell_volume   267.26426045
_cell_formula_units_Z   2
loop_
 _symmetry_equiv_pos_site_id
 _symmetry_equiv_pos_as_xyz
  1  'x, y, z'
loop_
 _atom_site_type_symbol
 _atom_site_label
 _atom_site_symmetry_multiplicity
 _atom_site_fract_x
 _atom_site_fract_y
 _atom_site_fract_z
 _atom_site_occupancy
  Mg  Mg0  1  0.87368700  0.87622700  0.87621400  1
  Mg  Mg1  1  0.12631800  0.12380200  0.12376800  1
  V  V2  1  0.49995600  0.50002300  0.49997600  1
  V  V3  1  0.00002800  0.49999600  0.50001000  1
  Cr  Cr4  1  0.50001600  0.49996200  0.00000400  1
  Cr  Cr5  1  0.50001000  0.99997400  0.50005800  1
  S  S6  1  0.73706300  0.73714700  0.73713900  1
  S  S7  1  0.26475800  0.25677700  0.71363200  1
  S  S8  1  0.26474500  0.71364300  0.25677600  1
  S  S9  1  0.71123800  0.26290700  0.26287800  1
  S  S10  1  0.73522500  0.28639100  0.74317900  1
  S  S11  1  0.28876700  0.73710000  0.73710900  1
  S  S12  1  0.26293600  0.26284300  0.26287400  1
  S  S13  1  0.73525700  0.74320300  0.28638400  1
