# generated using pymatgen
data_MgTiFeS4
_symmetry_space_group_name_H-M   'P 1'
_cell_length_a   7.26937824
_cell_length_b   7.20992413
_cell_length_c   7.20376127
_cell_angle_alpha   59.60570295
_cell_angle_beta   59.91606693
_cell_angle_gamma   59.92295088
_symmetry_Int_Tables_number   1
_chemical_formula_structural   MgTiFeS4
_chemical_formula_sum   'Mg2 Ti2 Fe2 S8'
_cell_volume   265.84902755
_cell_formula_units_Z   2
loop_
 _symmetry_equiv_pos_site_id
 _symmetry_equiv_pos_as_xyz
  1  'x, y, z'
loop_
 _atom_site_type_symbol
 _atom_site_label
 _atom_site_symmetry_multiplicity
 _atom_site_fract_x
 _atom_site_fract_y
 _atom_site_fract_z
 _atom_site_occupancy
  Mg  Mg0  1  0.87152132  0.87763117  0.87775050  1
  Mg  Mg1  1  0.12847813  0.12237596  0.12224828  1
  Ti  Ti2  1  0.50000211  0.49999919  0.99999796  1
  Ti  Ti3  1  0.50000084  0.99999627  0.49998854  1
  Fe  Fe4  1  0.50000184  0.50000113  0.49998408  1
  Fe  Fe5  1  -0.00000133  0.49997853  0.50004614  1
  S  S6  1  0.73911190  0.74052017  0.74056991  1
  S  S7  1  0.26715091  0.27217559  0.70970082  1
  S  S8  1  0.26737598  0.70927613  0.27225379  1
  S  S9  1  0.71687002  0.26848349  0.26832348  1
  S  S10  1  0.73260996  0.29074577  0.72772371  1
  S  S11  1  0.28313091  0.73151222  0.73166846  1
  S  S12  1  0.26088384  0.25948359  0.25943839  1
  S  S13  1  0.73286757  0.72781579  0.29030694  1
