# generated using pymatgen
data_Dy3Mg2MoS8
_symmetry_space_group_name_H-M   'P 1'
_cell_length_a   7.84335053
_cell_length_b   7.71034820
_cell_length_c   7.84338800
_cell_angle_alpha   59.42811800
_cell_angle_beta   59.99864406
_cell_angle_gamma   59.42815731
_symmetry_Int_Tables_number   1
_chemical_formula_structural   Dy3Mg2MoS8
_chemical_formula_sum   'Dy3 Mg2 Mo1 S8'
_cell_volume   332.46922462
_cell_formula_units_Z   1
loop_
 _symmetry_equiv_pos_site_id
 _symmetry_equiv_pos_as_xyz
  1  'x, y, z'
loop_
 _atom_site_type_symbol
 _atom_site_label
 _atom_site_symmetry_multiplicity
 _atom_site_fract_x
 _atom_site_fract_y
 _atom_site_fract_z
 _atom_site_occupancy
  Dy  Dy0  1  0.50000300  0.50001400  0.49998400  1
  Dy  Dy1  1  0.49999900  0.49999200  0.00000000  1
  Dy  Dy2  1  0.00000300  0.49999000  0.50000900  1
  Mg  Mg3  1  0.87452100  0.87643200  0.87452700  1
  Mg  Mg4  1  0.12548300  0.12356100  0.12547400  1
  Mo  Mo5  1  0.49999800  0.00000200  0.50000300  1
  S  S6  1  0.73387300  0.76434200  0.73387900  1
  S  S7  1  0.26612700  0.23566600  0.73208900  1
  S  S8  1  0.25495600  0.73514100  0.25494700  1
  S  S9  1  0.73209300  0.23566700  0.26611600  1
  S  S10  1  0.74503800  0.26485500  0.74504400  1
  S  S11  1  0.26790500  0.76433500  0.73388200  1
  S  S12  1  0.26611900  0.23565200  0.26613400  1
  S  S13  1  0.73388700  0.76434600  0.26791200  1
