# generated using pymatgen
data_MgOsN
_symmetry_space_group_name_H-M   'P 1'
_cell_length_a   7.97325390
_cell_length_b   2.85192641
_cell_length_c   9.21910214
_cell_angle_alpha   90.00000071
_cell_angle_beta   60.94614250
_cell_angle_gamma   79.69759610
_symmetry_Int_Tables_number   1
_chemical_formula_structural   MgOsN
_chemical_formula_sum   'Mg4 Os4 N4'
_cell_volume   179.37857883
_cell_formula_units_Z   4
loop_
 _symmetry_equiv_pos_site_id
 _symmetry_equiv_pos_as_xyz
  1  'x, y, z'
loop_
 _atom_site_type_symbol
 _atom_site_label
 _atom_site_symmetry_multiplicity
 _atom_site_fract_x
 _atom_site_fract_y
 _atom_site_fract_z
 _atom_site_occupancy
  Mg  Mg0  1  0.79260300  0.60369800  0.67357200  1
  Mg  Mg1  1  0.20739700  0.39630200  0.32642800  1
  Mg  Mg2  1  0.26492100  0.36754000  0.92556000  1
  Mg  Mg3  1  0.73507900  0.63246000  0.07444000  1
  Os  Os4  1  0.83187400  0.58406300  0.33410100  1
  Os  Os5  1  0.16812600  0.41593700  0.66589900  1
  Os  Os6  1  0.47757400  0.76121300  0.63132900  1
  Os  Os7  1  0.52242600  0.23878700  0.36867100  1
  N  N8  1  0.91438900  0.54280500  0.83051100  1
  N  N9  1  0.08561100  0.45719500  0.16948900  1
  N  N10  1  0.56363100  0.21818500  0.74687200  1
  N  N11  1  0.43636900  0.78181500  0.25312800  1
