# generated using pymatgen
data_Mg2MnCo3S8
_symmetry_space_group_name_H-M   'P 1'
_cell_length_a   6.99321304
_cell_length_b   6.97434914
_cell_length_c   6.99876870
_cell_angle_alpha   59.93135238
_cell_angle_beta   60.00847855
_cell_angle_gamma   59.89110937
_symmetry_Int_Tables_number   1
_chemical_formula_structural   Mg2MnCo3S8
_chemical_formula_sum   'Mg2 Mn1 Co3 S8'
_cell_volume   241.06308354
_cell_formula_units_Z   1
loop_
 _symmetry_equiv_pos_site_id
 _symmetry_equiv_pos_as_xyz
  1  'x, y, z'
loop_
 _atom_site_type_symbol
 _atom_site_label
 _atom_site_symmetry_multiplicity
 _atom_site_fract_x
 _atom_site_fract_y
 _atom_site_fract_z
 _atom_site_occupancy
  Mg  Mg0  1  0.87491100  0.87527600  0.87485900  1
  Mg  Mg1  1  0.12509300  0.12471300  0.12514900  1
  Mn  Mn2  1  0.50000200  0.00002900  0.49999600  1
  Co  Co3  1  0.49999900  0.50000500  0.49999400  1
  Co  Co4  1  0.49999800  0.49999300  0.00000000  1
  Co  Co5  1  0.99999900  0.49999500  0.50000300  1
  S  S6  1  0.73584900  0.72596000  0.73580800  1
  S  S7  1  0.26417200  0.27406900  0.69757300  1
  S  S8  1  0.26847400  0.69457400  0.26847900  1
  S  S9  1  0.69763500  0.27402600  0.26418400  1
  S  S10  1  0.73152000  0.30541700  0.73151300  1
  S  S11  1  0.30236900  0.72597500  0.73580900  1
  S  S12  1  0.26415300  0.27402500  0.26420300  1
  S  S13  1  0.73583200  0.72593800  0.30243000  1
