# generated using pymatgen
data_Mg2Al3VS8
_symmetry_space_group_name_H-M   'P 1'
_cell_length_a   7.23928706
_cell_length_b   7.25484213
_cell_length_c   7.24372775
_cell_angle_alpha   60.31273494
_cell_angle_beta   59.97316650
_cell_angle_gamma   60.00697056
_symmetry_Int_Tables_number   1
_chemical_formula_structural   Mg2Al3VS8
_chemical_formula_sum   'Mg2 Al3 V1 S8'
_cell_volume   269.60083943
_cell_formula_units_Z   1
loop_
 _symmetry_equiv_pos_site_id
 _symmetry_equiv_pos_as_xyz
  1  'x, y, z'
loop_
 _atom_site_type_symbol
 _atom_site_label
 _atom_site_symmetry_multiplicity
 _atom_site_fract_x
 _atom_site_fract_y
 _atom_site_fract_z
 _atom_site_occupancy
  Mg  Mg0  1  0.87490300  0.87540400  0.87488300  1
  Mg  Mg1  1  0.12510900  0.12459900  0.12511900  1
  Al  Al2  1  0.49998400  0.50001200  0.50000000  1
  Al  Al3  1  0.49999100  0.49999700  0.99999800  1
  Al  Al4  1  0.00000500  0.49998000  0.50002900  1
  V  V5  1  0.49998900  0.00001000  0.49996400  1
  S  S6  1  0.73867200  0.73670700  0.73883800  1
  S  S7  1  0.26120300  0.26292500  0.71445900  1
  S  S8  1  0.26240600  0.71354800  0.26220200  1
  S  S9  1  0.71320200  0.26457100  0.26081800  1
  S  S10  1  0.73758300  0.28645400  0.73780000  1
  S  S11  1  0.28680600  0.73544100  0.73917300  1
  S  S12  1  0.26132700  0.26328400  0.26118400  1
  S  S13  1  0.73882500  0.73706100  0.28553200  1
