# generated using pymatgen
data_Mg2Ga3WS8
_symmetry_space_group_name_H-M   'P 1'
_cell_length_a   7.33220206
_cell_length_b   7.42297661
_cell_length_c   7.33232800
_cell_angle_alpha   60.40365983
_cell_angle_beta   59.99887080
_cell_angle_gamma   60.40351292
_symmetry_Int_Tables_number   1
_chemical_formula_structural   Mg2Ga3WS8
_chemical_formula_sum   'Mg2 Ga3 W1 S8'
_cell_volume   283.89528290
_cell_formula_units_Z   1
loop_
 _symmetry_equiv_pos_site_id
 _symmetry_equiv_pos_as_xyz
  1  'x, y, z'
loop_
 _atom_site_type_symbol
 _atom_site_label
 _atom_site_symmetry_multiplicity
 _atom_site_fract_x
 _atom_site_fract_y
 _atom_site_fract_z
 _atom_site_occupancy
  Mg  Mg0  1  0.87395300  0.87813000  0.87396800  1
  Mg  Mg1  1  0.12603300  0.12192700  0.12601600  1
  Ga  Ga2  1  0.50000300  0.50001500  0.49997200  1
  Ga  Ga3  1  0.50000400  0.49998500  0.99999800  1
  Ga  Ga4  1  0.00000000  0.49998300  0.50002100  1
  W  W5  1  0.50000100  0.99999400  0.50001100  1
  S  S6  1  0.73628800  0.74171300  0.73627900  1
  S  S7  1  0.26371200  0.25828300  0.71428500  1
  S  S8  1  0.26027900  0.71916100  0.26028300  1
  S  S9  1  0.71428400  0.25828300  0.26371700  1
  S  S10  1  0.73971300  0.28083600  0.73970900  1
  S  S11  1  0.28571600  0.74170300  0.73628600  1
  S  S12  1  0.26371600  0.25827000  0.26373700  1
  S  S13  1  0.73630100  0.74171100  0.28572000  1
