# generated using pymatgen
data_MgCoMoS4
_symmetry_space_group_name_H-M   'P 1'
_cell_length_a   7.18726382
_cell_length_b   7.20429189
_cell_length_c   7.20436455
_cell_angle_alpha   60.62146549
_cell_angle_beta   60.05997326
_cell_angle_gamma   60.06027272
_symmetry_Int_Tables_number   1
_chemical_formula_structural   MgCoMoS4
_chemical_formula_sum   'Mg2 Co2 Mo2 S8'
_cell_volume   265.23553684
_cell_formula_units_Z   2
loop_
 _symmetry_equiv_pos_site_id
 _symmetry_equiv_pos_as_xyz
  1  'x, y, z'
loop_
 _atom_site_type_symbol
 _atom_site_label
 _atom_site_symmetry_multiplicity
 _atom_site_fract_x
 _atom_site_fract_y
 _atom_site_fract_z
 _atom_site_occupancy
  Mg  Mg0  1  0.87219974  0.87770328  0.87770385  1
  Mg  Mg1  1  0.12780148  0.12229976  0.12229616  1
  Co  Co2  1  0.50000114  0.50000175  0.49999471  1
  Co  Co3  1  -0.00000004  0.49999956  0.50000072  1
  Mo  Mo4  1  0.50000109  0.49999899  0.99999932  1
  Mo  Mo5  1  0.49999956  0.99999817  0.50000534  1
  S  S6  1  0.75536508  0.72806760  0.72806288  1
  S  S7  1  0.25590237  0.28631602  0.70191928  1
  S  S8  1  0.25590291  0.70192039  0.28631181  1
  S  S9  1  0.71142986  0.27199195  0.27198878  1
  S  S10  1  0.74408970  0.29808224  0.71368283  1
  S  S11  1  0.28857105  0.72800166  0.72801189  1
  S  S12  1  0.24463951  0.27192634  0.27194218  1
  S  S13  1  0.74410054  0.71368731  0.29808124  1
