# generated using pymatgen
data_Sr5Zr2N6
_symmetry_space_group_name_H-M   'P 1'
_cell_length_a   6.66299365
_cell_length_b   7.17298130
_cell_length_c   13.88035723
_cell_angle_alpha   89.99999848
_cell_angle_beta   102.11991635
_cell_angle_gamma   122.56595842
_symmetry_Int_Tables_number   1
_chemical_formula_structural   Sr5Zr2N6
_chemical_formula_sum   'Sr10 Zr4 N12'
_cell_volume   541.46004776
_cell_formula_units_Z   2
loop_
 _symmetry_equiv_pos_site_id
 _symmetry_equiv_pos_as_xyz
  1  'x, y, z'
loop_
 _atom_site_type_symbol
 _atom_site_label
 _atom_site_symmetry_multiplicity
 _atom_site_fract_x
 _atom_site_fract_y
 _atom_site_fract_z
 _atom_site_occupancy
  Sr  Sr0  1  0.04622100  0.76910600  0.01120400  1
  Sr  Sr1  1  0.95377900  0.72288400  0.48879600  1
  Sr  Sr2  1  0.95377900  0.23089400  0.98879600  1
  Sr  Sr3  1  0.04622100  0.27711600  0.51120400  1
  Sr  Sr4  1  0.31197100  0.00261300  0.72309000  1
  Sr  Sr5  1  0.68802900  0.69064200  0.77691000  1
  Sr  Sr6  1  0.68802900  0.99738700  0.27691000  1
  Sr  Sr7  1  0.31197100  0.30935800  0.22309000  1
  Sr  Sr8  1  0.00000000  0.34752300  0.75000000  1
  Sr  Sr9  1  0.00000000  0.65247700  0.25000000  1
  Zr  Zr10  1  0.54747200  0.85212600  0.56518500  1
  Zr  Zr11  1  0.45252800  0.30465400  0.93481500  1
  Zr  Zr12  1  0.45252800  0.14787400  0.43481500  1
  Zr  Zr13  1  0.54747200  0.69534600  0.06518500  1
  N  N14  1  0.90313600  0.93229000  0.61964600  1
  N  N15  1  0.09686400  0.02915300  0.88035400  1
  N  N16  1  0.09686400  0.06771000  0.38035400  1
  N  N17  1  0.90313600  0.97084700  0.11964600  1
  N  N18  1  0.28566600  0.64005400  0.64141200  1
  N  N19  1  0.71433400  0.35438800  0.85858800  1
  N  N20  1  0.71433400  0.35994600  0.35858800  1
  N  N21  1  0.28566600  0.64561200  0.14141200  1
  N  N22  1  0.58579200  0.15805200  0.58974200  1
  N  N23  1  0.41420800  0.57225900  0.91025800  1
  N  N24  1  0.41420800  0.84194800  0.41025800  1
  N  N25  1  0.58579200  0.42774100  0.08974200  1
