# generated using pymatgen
data_Ba3Sc2N4
_symmetry_space_group_name_H-M   'P 1'
_cell_length_a   6.48951600
_cell_length_b   11.20866600
_cell_length_c   10.45111900
_cell_angle_alpha   90.00000000
_cell_angle_beta   90.00000000
_cell_angle_gamma   90.00000000
_symmetry_Int_Tables_number   1
_chemical_formula_structural   Ba3Sc2N4
_chemical_formula_sum   'Ba12 Sc8 N16'
_cell_volume   760.20203600
_cell_formula_units_Z   4
loop_
 _symmetry_equiv_pos_site_id
 _symmetry_equiv_pos_as_xyz
  1  'x, y, z'
loop_
 _atom_site_type_symbol
 _atom_site_label
 _atom_site_symmetry_multiplicity
 _atom_site_fract_x
 _atom_site_fract_y
 _atom_site_fract_z
 _atom_site_occupancy
  Ba  Ba0  1  0.61761800  0.15566500  0.41465600  1
  Ba  Ba1  1  0.88238200  0.84433500  0.41465600  1
  Ba  Ba2  1  0.61761800  0.34433500  0.08534400  1
  Ba  Ba3  1  0.88238200  0.65566500  0.08534400  1
  Ba  Ba4  1  0.38238200  0.84433500  0.58534400  1
  Ba  Ba5  1  0.11761800  0.15566500  0.58534400  1
  Ba  Ba6  1  0.38238200  0.65566500  0.91465600  1
  Ba  Ba7  1  0.11761800  0.34433500  0.91465600  1
  Ba  Ba8  1  0.75000000  0.50000000  0.41080000  1
  Ba  Ba9  1  0.75000000  0.00000000  0.08920000  1
  Ba  Ba10  1  0.25000000  0.50000000  0.58920000  1
  Ba  Ba11  1  0.25000000  0.00000000  0.91080000  1
  Sc  Sc12  1  0.75000000  0.50000000  0.74067000  1
  Sc  Sc13  1  0.75000000  0.00000000  0.75933000  1
  Sc  Sc14  1  0.25000000  0.50000000  0.25933000  1
  Sc  Sc15  1  0.25000000  0.00000000  0.24067000  1
  Sc  Sc16  1  0.66176100  0.25000000  0.75000000  1
  Sc  Sc17  1  0.83823900  0.75000000  0.75000000  1
  Sc  Sc18  1  0.33823900  0.75000000  0.25000000  1
  Sc  Sc19  1  0.16176100  0.25000000  0.25000000  1
  N  N20  1  0.86225600  0.35682600  0.63132800  1
  N  N21  1  0.63774400  0.64317400  0.63132800  1
  N  N22  1  0.86225600  0.14317400  0.86867200  1
  N  N23  1  0.63774400  0.85682600  0.86867200  1
  N  N24  1  0.13774400  0.64317400  0.36867200  1
  N  N25  1  0.36225600  0.35682600  0.36867200  1
  N  N26  1  0.13774400  0.85682600  0.13132800  1
  N  N27  1  0.36225600  0.14317400  0.13132800  1
  N  N28  1  0.51826800  0.40007900  0.83832300  1
  N  N29  1  0.98173200  0.59992100  0.83832300  1
  N  N30  1  0.51826800  0.09992100  0.66167700  1
  N  N31  1  0.98173200  0.90007900  0.66167700  1
  N  N32  1  0.48173200  0.59992100  0.16167700  1
  N  N33  1  0.01826800  0.40007900  0.16167700  1
  N  N34  1  0.48173200  0.90007900  0.33832300  1
  N  N35  1  0.01826800  0.09992100  0.33832300  1
