# generated using pymatgen
data_Mg
_symmetry_space_group_name_H-M   'P 1'
_cell_length_a   3.42139443
_cell_length_b   5.10267478
_cell_length_c   14.59573267
_cell_angle_alpha   90.26852925
_cell_angle_beta   89.98107328
_cell_angle_gamma   90.37529913
_symmetry_Int_Tables_number   1
_chemical_formula_structural   Mg
_chemical_formula_sum   Mg10
_cell_volume   254.80786416
_cell_formula_units_Z   10
loop_
 _symmetry_equiv_pos_site_id
 _symmetry_equiv_pos_as_xyz
  1  'x, y, z'
loop_
 _atom_site_type_symbol
 _atom_site_label
 _atom_site_symmetry_multiplicity
 _atom_site_fract_x
 _atom_site_fract_y
 _atom_site_fract_z
 _atom_site_occupancy
  Mg  Mg0  1  0.51860900  0.01010200  0.16821800  1
  Mg  Mg1  1  0.01854300  0.98997700  0.33177200  1
  Mg  Mg2  1  0.01859200  0.99060700  0.66825000  1
  Mg  Mg3  1  0.51858300  0.00937300  0.83172900  1
  Mg  Mg4  1  0.01872200  0.50922600  0.85014600  1
  Mg  Mg5  1  0.51843000  0.49075800  0.64991900  1
  Mg  Mg6  1  0.51837700  0.49028700  0.35061400  1
  Mg  Mg7  1  0.51834700  0.97916000  0.50007300  1
  Mg  Mg8  1  0.01869800  0.02073300  0.99991500  1
  Mg  Mg9  1  0.01881100  0.50979200  0.14937200  1
