# generated using pymatgen
data_Y2Fe3N4
_symmetry_space_group_name_H-M   'P 1'
_cell_length_a   6.07773962
_cell_length_b   7.38484746
_cell_length_c   6.44474707
_cell_angle_alpha   90.00000474
_cell_angle_beta   76.74117418
_cell_angle_gamma   127.41129011
_symmetry_Int_Tables_number   1
_chemical_formula_structural   Y2Fe3N4
_chemical_formula_sum   'Y4 Fe6 N8'
_cell_volume   219.97188316
_cell_formula_units_Z   2
loop_
 _symmetry_equiv_pos_site_id
 _symmetry_equiv_pos_as_xyz
  1  'x, y, z'
loop_
 _atom_site_type_symbol
 _atom_site_label
 _atom_site_symmetry_multiplicity
 _atom_site_fract_x
 _atom_site_fract_y
 _atom_site_fract_z
 _atom_site_occupancy
  Y  Y0  1  0.60370100  0.19684800  0.72686900  1
  Y  Y1  1  0.39629900  0.59314800  0.77313100  1
  Y  Y2  1  0.39629900  0.80315200  0.27313100  1
  Y  Y3  1  0.60370100  0.40685200  0.22686900  1
  Fe  Fe4  1  0.06642400  0.90859300  0.07446300  1
  Fe  Fe5  1  0.93357600  0.84216800  0.42553700  1
  Fe  Fe6  1  0.93357600  0.09140700  0.92553700  1
  Fe  Fe7  1  0.06642400  0.15783200  0.57446300  1
  Fe  Fe8  1  0.00000000  0.74792600  0.75000000  1
  Fe  Fe9  1  0.00000000  0.25207400  0.25000000  1
  N  N10  1  0.26920700  0.04189800  0.51138500  1
  N  N11  1  0.73079300  0.77269100  0.98861500  1
  N  N12  1  0.73079300  0.95810200  0.48861500  1
  N  N13  1  0.26920700  0.22730900  0.01138500  1
  N  N14  1  0.78103800  0.22288600  0.05798800  1
  N  N15  1  0.21896200  0.44184800  0.44201200  1
  N  N16  1  0.21896200  0.77711400  0.94201200  1
  N  N17  1  0.78103800  0.55815200  0.55798800  1
