# generated using pymatgen
data_ZrCrAgS4
_symmetry_space_group_name_H-M   'P 1'
_cell_length_a   14.04870098
_cell_length_b   3.63380900
_cell_length_c   6.14213430
_cell_angle_alpha   90.00000000
_cell_angle_beta   113.96300000
_cell_angle_gamma   90.00000000
_symmetry_Int_Tables_number   1
_chemical_formula_structural   ZrCrAgS4
_chemical_formula_sum   'Zr2 Cr2 Ag2 S8'
_cell_volume   286.53157942
_cell_formula_units_Z   2
loop_
 _symmetry_equiv_pos_site_id
 _symmetry_equiv_pos_as_xyz
  1  'x, y, z'
loop_
 _atom_site_type_symbol
 _atom_site_label
 _atom_site_symmetry_multiplicity
 _atom_site_fract_x
 _atom_site_fract_y
 _atom_site_fract_z
 _atom_site_occupancy
  Zr  Zr0  1  0.24723000  0.00000000  0.22693900  1
  Zr  Zr1  1  0.75277000  0.00000000  0.77306100  1
  Cr  Cr2  1  0.74434300  0.50000000  0.22880700  1
  Cr  Cr3  1  0.25565700  0.50000000  0.77119300  1
  Ag  Ag4  1  0.00000000  0.50000000  0.50000000  1
  Ag  Ag5  1  0.50000000  0.00000000  0.50000000  1
  S  S6  1  0.13093100  0.50000000  0.96430800  1
  S  S7  1  0.86906900  0.50000000  0.03569200  1
  S  S8  1  0.63401300  0.00000000  0.98693400  1
  S  S9  1  0.36598700  0.00000000  0.01306600  1
  S  S10  1  0.15277300  0.00000000  0.51762700  1
  S  S11  1  0.84722700  0.00000000  0.48237300  1
  S  S12  1  0.64198500  0.50000000  0.46702300  1
  S  S13  1  0.35801500  0.50000000  0.53297700  1
