# generated using pymatgen
data_Mg2ScCr3S8
_symmetry_space_group_name_H-M   'P 1'
_cell_length_a   7.30104980
_cell_length_b   7.30104027
_cell_length_c   7.30112698
_cell_angle_alpha   60.17961197
_cell_angle_beta   60.17883033
_cell_angle_gamma   60.18056390
_symmetry_Int_Tables_number   1
_chemical_formula_structural   Mg2ScCr3S8
_chemical_formula_sum   'Mg2 Sc1 Cr3 S8'
_cell_volume   276.31755264
_cell_formula_units_Z   1
loop_
 _symmetry_equiv_pos_site_id
 _symmetry_equiv_pos_as_xyz
  1  'x, y, z'
loop_
 _atom_site_type_symbol
 _atom_site_label
 _atom_site_symmetry_multiplicity
 _atom_site_fract_x
 _atom_site_fract_y
 _atom_site_fract_z
 _atom_site_occupancy
  Mg  Mg0  1  0.87565879  0.87567521  0.87569791  1
  Mg  Mg1  1  0.12432451  0.12430607  0.12431333  1
  Sc  Sc2  1  0.50000259  0.50003334  0.49995590  1
  Cr  Cr3  1  0.50027998  0.49989691  0.99991672  1
  Cr  Cr4  1  0.00006022  0.49997288  0.49983054  1
  Cr  Cr5  1  0.49973934  0.00019335  0.50021087  1
  S  S6  1  0.73617710  0.73619737  0.73620467  1
  S  S7  1  0.25349257  0.25350173  0.71689185  1
  S  S8  1  0.25349940  0.71685985  0.25351382  1
  S  S9  1  0.71687661  0.25350001  0.25349890  1
  S  S10  1  0.74648492  0.28310897  0.74648958  1
  S  S11  1  0.28311931  0.74648066  0.74649684  1
  S  S12  1  0.26378290  0.26378810  0.26382409  1
  S  S13  1  0.74650577  0.74648055  0.28315599  1
