# generated using pymatgen
data_Mg2Ti3WS8
_symmetry_space_group_name_H-M   'P 1'
_cell_length_a   7.27502281
_cell_length_b   7.28352992
_cell_length_c   7.27488804
_cell_angle_alpha   60.52454824
_cell_angle_beta   60.60278179
_cell_angle_gamma   60.52282800
_symmetry_Int_Tables_number   1
_chemical_formula_structural   Mg2Ti3WS8
_chemical_formula_sum   'Mg2 Ti3 W1 S8'
_cell_volume   275.96295426
_cell_formula_units_Z   1
loop_
 _symmetry_equiv_pos_site_id
 _symmetry_equiv_pos_as_xyz
  1  'x, y, z'
loop_
 _atom_site_type_symbol
 _atom_site_label
 _atom_site_symmetry_multiplicity
 _atom_site_fract_x
 _atom_site_fract_y
 _atom_site_fract_z
 _atom_site_occupancy
  Mg  Mg0  1  0.87487900  0.87474600  0.87490300  1
  Mg  Mg1  1  0.12512200  0.12526700  0.12509000  1
  Ti  Ti2  1  0.50000900  0.49999700  0.00000700  1
  Ti  Ti3  1  0.99998900  0.49998800  0.50002500  1
  Ti  Ti4  1  0.49999200  0.99998800  0.50000300  1
  W  W5  1  0.49999200  0.50002800  0.49998600  1
  S  S6  1  0.74010300  0.74050400  0.74013100  1
  S  S7  1  0.25884300  0.25921600  0.72294900  1
  S  S8  1  0.25943900  0.72256200  0.25945900  1
  S  S9  1  0.72294000  0.25919900  0.25883600  1
  S  S10  1  0.74055300  0.27743600  0.74052700  1
  S  S11  1  0.27706400  0.74078800  0.74116800  1
  S  S12  1  0.25989700  0.25949100  0.25987700  1
  S  S13  1  0.74118200  0.74078500  0.27703900  1
