# generated using pymatgen
data_SrGe7N10
_symmetry_space_group_name_H-M   'P 1'
_cell_length_a   7.26460534
_cell_length_b   7.16673800
_cell_length_c   10.24159671
_cell_angle_alpha   90.00000000
_cell_angle_beta   105.47053344
_cell_angle_gamma   90.00000000
_symmetry_Int_Tables_number   1
_chemical_formula_structural   SrGe7N10
_chemical_formula_sum   'Sr2 Ge14 N20'
_cell_volume   513.89408595
_cell_formula_units_Z   2
loop_
 _symmetry_equiv_pos_site_id
 _symmetry_equiv_pos_as_xyz
  1  'x, y, z'
loop_
 _atom_site_type_symbol
 _atom_site_label
 _atom_site_symmetry_multiplicity
 _atom_site_fract_x
 _atom_site_fract_y
 _atom_site_fract_z
 _atom_site_occupancy
  Sr  Sr0  1  0.91455400  0.02402300  0.63493900  1
  Sr  Sr1  1  0.91455400  0.97597700  0.13493900  1
  Ge  Ge2  1  0.54511600  0.97076300  0.82679900  1
  Ge  Ge3  1  0.54511600  0.02923700  0.32679900  1
  Ge  Ge4  1  0.34949700  0.02806400  0.01756900  1
  Ge  Ge5  1  0.34949700  0.97193600  0.51756900  1
  Ge  Ge6  1  0.11197800  0.39316200  0.07520600  1
  Ge  Ge7  1  0.11197800  0.60683800  0.57520600  1
  Ge  Ge8  1  0.66554300  0.36541200  0.99326900  1
  Ge  Ge9  1  0.66554300  0.63458800  0.49326900  1
  Ge  Ge10  1  0.85146600  0.62748700  0.81280300  1
  Ge  Ge11  1  0.85146600  0.37251300  0.31280300  1
  Ge  Ge12  1  0.29722200  0.62186600  0.88440100  1
  Ge  Ge13  1  0.29722200  0.37813400  0.38440100  1
  Ge  Ge14  1  0.48624200  0.36998500  0.68910400  1
  Ge  Ge15  1  0.48624200  0.63001500  0.18910400  1
  N  N16  1  0.77265300  0.86010700  0.84228500  1
  N  N17  1  0.77265300  0.13989300  0.34228500  1
  N  N18  1  0.57297200  0.12669800  0.97981800  1
  N  N19  1  0.57297200  0.87330200  0.47981800  1
  N  N20  1  0.31753200  0.87480000  0.86240300  1
  N  N21  1  0.31753200  0.12520000  0.36240300  1
  N  N22  1  0.14186200  0.15446300  0.02677100  1
  N  N23  1  0.14186200  0.84553700  0.52677100  1
  N  N24  1  0.28409300  0.49840300  0.72535800  1
  N  N25  1  0.28409300  0.50159700  0.22535800  1
  N  N26  1  0.45896500  0.11594900  0.67221500  1
  N  N27  1  0.45896500  0.88405100  0.17221500  1
  N  N28  1  0.88679200  0.37239400  0.13376500  1
  N  N29  1  0.88679200  0.62760600  0.63376500  1
  N  N30  1  0.08034800  0.58350100  0.94364900  1
  N  N31  1  0.08034800  0.41649900  0.44364900  1
  N  N32  1  0.70779200  0.41473200  0.82493400  1
  N  N33  1  0.70779200  0.58526800  0.32493400  1
  N  N34  1  0.49767600  0.53859100  0.02401200  1
  N  N35  1  0.49767600  0.46140900  0.52401200  1
