# generated using pymatgen
data_CsS2N3
_symmetry_space_group_name_H-M   'P 1'
_cell_length_a   8.17865782
_cell_length_b   12.97012838
_cell_length_c   11.06340175
_cell_angle_alpha   89.99999751
_cell_angle_beta   97.96340990
_cell_angle_gamma   37.54028144
_symmetry_Int_Tables_number   1
_chemical_formula_structural   CsS2N3
_chemical_formula_sum   'Cs4 S8 N12'
_cell_volume   696.35918799
_cell_formula_units_Z   4
loop_
 _symmetry_equiv_pos_site_id
 _symmetry_equiv_pos_as_xyz
  1  'x, y, z'
loop_
 _atom_site_type_symbol
 _atom_site_label
 _atom_site_symmetry_multiplicity
 _atom_site_fract_x
 _atom_site_fract_y
 _atom_site_fract_z
 _atom_site_occupancy
  Cs  Cs0  1  0.00000000  0.90183900  0.75000000  1
  Cs  Cs1  1  0.00000000  0.09816100  0.25000000  1
  Cs  Cs2  1  0.00000000  0.56719700  0.75000000  1
  Cs  Cs3  1  0.00000000  0.43280300  0.25000000  1
  S  S4  1  0.17612500  0.57540300  0.05344300  1
  S  S5  1  0.82387500  0.75152800  0.44655700  1
  S  S6  1  0.82387500  0.42459700  0.94655700  1
  S  S7  1  0.17612500  0.24847200  0.55344300  1
  S  S8  1  0.35445200  0.58023500  0.29784600  1
  S  S9  1  0.64554800  0.93468700  0.20215400  1
  S  S10  1  0.64554800  0.41976500  0.70215400  1
  S  S11  1  0.35445200  0.06531300  0.79784600  1
  N  N12  1  0.87324600  0.30253800  0.01953400  1
  N  N13  1  0.12675400  0.17578300  0.48046600  1
  N  N14  1  0.12675400  0.69746200  0.98046600  1
  N  N15  1  0.87324600  0.82421700  0.51953400  1
  N  N16  1  0.87050900  0.20486800  0.73056900  1
  N  N17  1  0.12949100  0.07537700  0.76943100  1
  N  N18  1  0.12949100  0.79513200  0.26943100  1
  N  N19  1  0.87050900  0.92462300  0.23056900  1
  N  N20  1  0.26576900  0.21188600  0.70496200  1
  N  N21  1  0.73423100  0.47765500  0.79503800  1
  N  N22  1  0.73423100  0.78811400  0.29503800  1
  N  N23  1  0.26576900  0.52234500  0.20496200  1
