# generated using pymatgen
data_YMg2W3S8
_symmetry_space_group_name_H-M   'P 1'
_cell_length_a   7.45724831
_cell_length_b   7.45708319
_cell_length_c   7.45334215
_cell_angle_alpha   60.30676407
_cell_angle_beta   60.27582632
_cell_angle_gamma   60.38883028
_symmetry_Int_Tables_number   1
_chemical_formula_structural   YMg2W3S8
_chemical_formula_sum   'Y1 Mg2 W3 S8'
_cell_volume   295.22488578
_cell_formula_units_Z   1
loop_
 _symmetry_equiv_pos_site_id
 _symmetry_equiv_pos_as_xyz
  1  'x, y, z'
loop_
 _atom_site_type_symbol
 _atom_site_label
 _atom_site_symmetry_multiplicity
 _atom_site_fract_x
 _atom_site_fract_y
 _atom_site_fract_z
 _atom_site_occupancy
  Y  Y0  1  0.50000100  0.50001500  0.49998100  1
  Mg  Mg1  1  0.87491500  0.87498700  0.87480800  1
  Mg  Mg2  1  0.12508800  0.12501000  0.12519900  1
  W  W3  1  0.50000900  0.49999900  0.99999200  1
  W  W4  1  0.99999700  0.49998500  0.50001400  1
  W  W5  1  0.49999000  0.00000400  0.50001000  1
  S  S6  1  0.73817400  0.73832900  0.73800700  1
  S  S7  1  0.24469100  0.24472100  0.72476000  1
  S  S8  1  0.24475000  0.72497000  0.24471400  1
  S  S9  1  0.72488400  0.24473600  0.24468300  1
  S  S10  1  0.75524000  0.27502400  0.75526900  1
  S  S11  1  0.27511900  0.75525400  0.75531600  1
  S  S12  1  0.26182900  0.26167400  0.26199400  1
  S  S13  1  0.75531700  0.75528700  0.27525400  1
