# generated using pymatgen
data_Mg2TiW3S8
_symmetry_space_group_name_H-M   'P 1'
_cell_length_a   7.17657862
_cell_length_b   7.30108722
_cell_length_c   7.64076671
_cell_angle_alpha   58.45646459
_cell_angle_beta   57.84627056
_cell_angle_gamma   59.59550162
_symmetry_Int_Tables_number   1
_chemical_formula_structural   Mg2TiW3S8
_chemical_formula_sum   'Mg2 Ti1 W3 S8'
_cell_volume   274.10581847
_cell_formula_units_Z   1
loop_
 _symmetry_equiv_pos_site_id
 _symmetry_equiv_pos_as_xyz
  1  'x, y, z'
loop_
 _atom_site_type_symbol
 _atom_site_label
 _atom_site_symmetry_multiplicity
 _atom_site_fract_x
 _atom_site_fract_y
 _atom_site_fract_z
 _atom_site_occupancy
  Mg  Mg0  1  0.86331993  0.86520265  0.88587182  1
  Mg  Mg1  1  0.13656446  0.13489367  0.11436961  1
  Ti  Ti2  1  0.49997922  0.99994765  0.50008628  1
  W  W3  1  0.49925019  0.49997155  0.49998522  1
  W  W4  1  0.50026534  0.50006944  0.99962759  1
  W  W5  1  0.00055169  0.49997366  0.50019834  1
  S  S6  1  0.74902783  0.74696290  0.72663602  1
  S  S7  1  0.25105002  0.25283192  0.72277295  1
  S  S8  1  0.27638622  0.72513129  0.24902822  1
  S  S9  1  0.72186950  0.27665299  0.25068655  1
  S  S10  1  0.72369795  0.27518914  0.75034045  1
  S  S11  1  0.27799670  0.72333297  0.74925693  1
  S  S12  1  0.25117619  0.25327557  0.27328626  1
  S  S13  1  0.74886876  0.74655959  0.27785475  1
