# generated using pymatgen
data_In(C4N3)2
_symmetry_space_group_name_H-M   'P 1'
_cell_length_a   13.20481248
_cell_length_b   13.16310804
_cell_length_c   5.70158948
_cell_angle_alpha   89.94321435
_cell_angle_beta   90.02830065
_cell_angle_gamma   119.89558195
_symmetry_Int_Tables_number   1
_chemical_formula_structural   In(C4N3)2
_chemical_formula_sum   'In3 C24 N18'
_cell_volume   859.15801291
_cell_formula_units_Z   3
loop_
 _symmetry_equiv_pos_site_id
 _symmetry_equiv_pos_as_xyz
  1  'x, y, z'
loop_
 _atom_site_type_symbol
 _atom_site_label
 _atom_site_symmetry_multiplicity
 _atom_site_fract_x
 _atom_site_fract_y
 _atom_site_fract_z
 _atom_site_occupancy
  In  In0  1  0.00000000  0.99767700  0.35083000  1
  In  In1  1  0.33474500  0.66779600  0.81475600  1
  In  In2  1  0.66525500  0.33305100  0.81475600  1
  C  C3  1  0.00000000  0.63175600  0.21788400  1
  C  C4  1  0.63396500  0.00100700  0.21149500  1
  C  C5  1  0.36603500  0.36704200  0.21149500  1
  C  C6  1  0.00000000  0.71185600  0.38228100  1
  C  C7  1  0.71594100  0.00015400  0.36935000  1
  C  C8  1  0.28405900  0.28421400  0.36935000  1
  C  C9  1  0.10384400  0.64316500  0.13124500  1
  C  C10  1  0.53810500  0.89773800  0.13182800  1
  C  C11  1  0.35749200  0.46295700  0.13446900  1
  C  C12  1  0.89615600  0.53932100  0.13124500  1
  C  C13  1  0.64250800  0.10546700  0.13446900  1
  C  C14  1  0.46189500  0.35963200  0.13182800  1
  C  C15  1  0.66859100  0.66764100  0.73910700  1
  C  C16  1  0.00000000  0.32912900  0.73961800  1
  C  C17  1  0.33140900  0.99904900  0.73910700  1
  C  C18  1  0.75223300  0.75126900  0.89518000  1
  C  C19  1  0.00000000  0.24479800  0.89471600  1
  C  C20  1  0.24776700  0.99903600  0.89518000  1
  C  C21  1  0.57426800  0.67991800  0.66756700  1
  C  C22  1  0.10568200  0.42498200  0.66947900  1
  C  C23  1  0.31955000  0.89256700  0.66670600  1
  C  C24  1  0.42573200  0.10565100  0.66756700  1
  C  C25  1  0.68045000  0.57301600  0.66670600  1
  C  C26  1  0.89431800  0.31930100  0.66947900  1
  N  N27  1  0.00000000  0.77853700  0.51852600  1
  N  N28  1  0.78356700  0.99977400  0.50211100  1
  N  N29  1  0.21643300  0.21620600  0.50211100  1
  N  N30  1  0.18923600  0.64828600  0.05844700  1
  N  N31  1  0.45324300  0.81415500  0.06660200  1
  N  N32  1  0.35665700  0.54752500  0.07211300  1
  N  N33  1  0.81076400  0.45905000  0.05844700  1
  N  N34  1  0.64334300  0.19086800  0.07211300  1
  N  N35  1  0.54675700  0.36091300  0.06660200  1
  N  N36  1  0.81964600  0.81891500  0.02801100  1
  N  N37  1  0.00000000  0.17640600  0.02609000  1
  N  N38  1  0.18035400  0.99926900  0.02801100  1
  N  N39  1  0.49572200  0.69297200  0.60835400  1
  N  N40  1  0.19601900  0.50576500  0.61240900  1
  N  N41  1  0.30682300  0.80099600  0.60707900  1
  N  N42  1  0.50427800  0.19725000  0.60835400  1
  N  N43  1  0.69317700  0.49417300  0.60707900  1
  N  N44  1  0.80398100  0.30974600  0.61240900  1
