# generated using pymatgen
data_Mg2VW3S8
_symmetry_space_group_name_H-M   'P 1'
_cell_length_a   7.02505806
_cell_length_b   7.37995189
_cell_length_c   7.01364798
_cell_angle_alpha   61.74154716
_cell_angle_beta   60.00882215
_cell_angle_gamma   61.25020888
_symmetry_Int_Tables_number   1
_chemical_formula_structural   Mg2VW3S8
_chemical_formula_sum   'Mg2 V1 W3 S8'
_cell_volume   262.78748001
_cell_formula_units_Z   1
loop_
 _symmetry_equiv_pos_site_id
 _symmetry_equiv_pos_as_xyz
  1  'x, y, z'
loop_
 _atom_site_type_symbol
 _atom_site_label
 _atom_site_symmetry_multiplicity
 _atom_site_fract_x
 _atom_site_fract_y
 _atom_site_fract_z
 _atom_site_occupancy
  Mg  Mg0  1  0.85815000  0.92570700  0.85673800  1
  Mg  Mg1  1  0.10256300  0.19385100  0.10206700  1
  V  V2  1  0.52735100  0.92673000  0.52301500  1
  W  W3  1  0.46575200  0.50925800  0.46673300  1
  W  W4  1  0.46638600  0.50961100  0.05831900  1
  W  W5  1  0.05415300  0.51147600  0.46789900  1
  S  S6  1  0.76075500  0.70700000  0.76612500  1
  S  S7  1  0.28114300  0.23243300  0.70575700  1
  S  S8  1  0.23583800  0.78523700  0.24063900  1
  S  S9  1  0.70841600  0.22897800  0.28055400  1
  S  S10  1  0.72717300  0.32175000  0.72524100  1
  S  S11  1  0.26739300  0.70953000  0.76284400  1
  S  S12  1  0.28177700  0.23158600  0.27975700  1
  S  S13  1  0.76315300  0.70684800  0.26431200  1
