# generated using pymatgen
data_CaRhN2
_symmetry_space_group_name_H-M   'P 1'
_cell_length_a   5.40341349
_cell_length_b   5.40341471
_cell_length_c   5.40341390
_cell_angle_alpha   35.15199755
_cell_angle_beta   35.15199703
_cell_angle_gamma   35.15201033
_symmetry_Int_Tables_number   1
_chemical_formula_structural   CaRhN2
_chemical_formula_sum   'Ca1 Rh1 N2'
_cell_volume   46.70629308
_cell_formula_units_Z   1
loop_
 _symmetry_equiv_pos_site_id
 _symmetry_equiv_pos_as_xyz
  1  'x, y, z'
loop_
 _atom_site_type_symbol
 _atom_site_label
 _atom_site_symmetry_multiplicity
 _atom_site_fract_x
 _atom_site_fract_y
 _atom_site_fract_z
 _atom_site_occupancy
  Ca  Ca0  1  0.00000000  0.00000000  0.00000000  1
  Rh  Rh1  1  0.50000000  0.50000000  0.50000000  1
  N  N2  1  0.76678200  0.76678200  0.76678200  1
  N  N3  1  0.23321800  0.23321800  0.23321800  1
