# generated using pymatgen
data_Ba2IrN3
_symmetry_space_group_name_H-M   'P 1'
_cell_length_a   6.73518195
_cell_length_b   12.03508345
_cell_length_c   12.99578405
_cell_angle_alpha   90.01347294
_cell_angle_beta   89.98823817
_cell_angle_gamma   153.30739262
_symmetry_Int_Tables_number   1
_chemical_formula_structural   Ba2IrN3
_chemical_formula_sum   'Ba8 Ir4 N12'
_cell_volume   473.19948499
_cell_formula_units_Z   4
loop_
 _symmetry_equiv_pos_site_id
 _symmetry_equiv_pos_as_xyz
  1  'x, y, z'
loop_
 _atom_site_type_symbol
 _atom_site_label
 _atom_site_symmetry_multiplicity
 _atom_site_fract_x
 _atom_site_fract_y
 _atom_site_fract_z
 _atom_site_occupancy
  Ba  Ba0  1  0.50000100  0.05897400  0.85686000  1
  Ba  Ba1  1  0.49999600  0.55897600  0.64309000  1
  Ba  Ba2  1  0.50001800  0.94101400  0.14312100  1
  Ba  Ba3  1  0.49999900  0.44099900  0.35692200  1
  Ba  Ba4  1  0.49999700  0.86282000  0.57891400  1
  Ba  Ba5  1  0.49996900  0.36279800  0.92101900  1
  Ba  Ba6  1  0.50001000  0.13716700  0.42112700  1
  Ba  Ba7  1  0.50002300  0.63718300  0.07893700  1
  Ir  Ir8  1  0.50006300  0.24152800  0.66276900  1
  Ir  Ir9  1  0.49991900  0.74141500  0.83727300  1
  Ir  Ir10  1  0.50002100  0.75841900  0.33713900  1
  Ir  Ir11  1  0.49999000  0.25845600  0.16280600  1
  N  N12  1  0.00002600  0.51206700  0.75001700  1
  N  N13  1  0.99996600  0.48794900  0.24999800  1
  N  N14  1  0.49999900  0.07724000  0.63796600  1
  N  N15  1  0.50001000  0.57734500  0.86203700  1
  N  N16  1  0.50001800  0.92279500  0.36203900  1
  N  N17  1  0.49999600  0.42268200  0.13796100  1
  N  N18  1  0.49998500  0.16146300  0.04879200  1
  N  N19  1  0.49998200  0.66139800  0.45131200  1
  N  N20  1  0.50004000  0.83861400  0.95121700  1
  N  N21  1  0.49997900  0.33865100  0.54866900  1
  N  N22  1  0.99997400  0.01205100  0.75001700  1
  N  N23  1  0.00001900  0.98799500  0.25000000  1
