# generated using pymatgen
data_Sm3Mg2CrS8
_symmetry_space_group_name_H-M   'P 1'
_cell_length_a   7.90161709
_cell_length_b   7.78996261
_cell_length_c   7.90173700
_cell_angle_alpha   59.52409565
_cell_angle_beta   59.99803303
_cell_angle_gamma   59.52432560
_symmetry_Int_Tables_number   1
_chemical_formula_structural   Sm3Mg2CrS8
_chemical_formula_sum   'Sm3 Mg2 Cr1 S8'
_cell_volume   341.42206647
_cell_formula_units_Z   1
loop_
 _symmetry_equiv_pos_site_id
 _symmetry_equiv_pos_as_xyz
  1  'x, y, z'
loop_
 _atom_site_type_symbol
 _atom_site_label
 _atom_site_symmetry_multiplicity
 _atom_site_fract_x
 _atom_site_fract_y
 _atom_site_fract_z
 _atom_site_occupancy
  Sm  Sm0  1  0.49999400  0.50003700  0.49995100  1
  Sm  Sm1  1  0.49997600  0.49998400  0.00000600  1
  Sm  Sm2  1  0.00000600  0.49999300  0.49997500  1
  Mg  Mg3  1  0.87463200  0.87606300  0.87465500  1
  Mg  Mg4  1  0.12533500  0.12400700  0.12533000  1
  Cr  Cr5  1  0.50013500  0.99984000  0.50012400  1
  S  S6  1  0.72840500  0.77527700  0.72842300  1
  S  S7  1  0.27158700  0.22473400  0.73208400  1
  S  S8  1  0.25304800  0.74084400  0.25303300  1
  S  S9  1  0.73207700  0.22472800  0.27158100  1
  S  S10  1  0.74690200  0.25921600  0.74690600  1
  S  S11  1  0.26789300  0.77528000  0.72841300  1
  S  S12  1  0.27160600  0.22469700  0.27161400  1
  S  S13  1  0.72840800  0.77529300  0.26790600  1
