# generated using pymatgen
data_Pt(C4N3)2
_symmetry_space_group_name_H-M   'P 1'
_cell_length_a   5.20911100
_cell_length_b   7.08546000
_cell_length_c   14.60248000
_cell_angle_alpha   90.00000000
_cell_angle_beta   90.00000000
_cell_angle_gamma   90.00000000
_symmetry_Int_Tables_number   1
_chemical_formula_structural   Pt(C4N3)2
_chemical_formula_sum   'Pt2 C16 N12'
_cell_volume   538.96216953
_cell_formula_units_Z   2
loop_
 _symmetry_equiv_pos_site_id
 _symmetry_equiv_pos_as_xyz
  1  'x, y, z'
loop_
 _atom_site_type_symbol
 _atom_site_label
 _atom_site_symmetry_multiplicity
 _atom_site_fract_x
 _atom_site_fract_y
 _atom_site_fract_z
 _atom_site_occupancy
  Pt  Pt0  1  0.00000000  0.50000000  0.50000000  1
  Pt  Pt1  1  0.00000000  0.00000000  0.00000000  1
  C  C2  1  0.44001300  0.00000000  0.70625200  1
  C  C3  1  0.44001300  0.50000000  0.79374800  1
  C  C4  1  0.55998700  0.00000000  0.29374800  1
  C  C5  1  0.55998700  0.50000000  0.20625200  1
  C  C6  1  0.62759800  0.00000000  0.63618500  1
  C  C7  1  0.62759800  0.50000000  0.86381500  1
  C  C8  1  0.37240200  0.00000000  0.36381500  1
  C  C9  1  0.37240200  0.50000000  0.13618500  1
  C  C10  1  0.72805900  0.16664400  0.60026000  1
  C  C11  1  0.72805900  0.33335600  0.89974000  1
  C  C12  1  0.27194100  0.16664400  0.39974000  1
  C  C13  1  0.72805900  0.66664400  0.89974000  1
  C  C14  1  0.27194100  0.83335600  0.39974000  1
  C  C15  1  0.27194100  0.66664400  0.10026000  1
  C  C16  1  0.72805900  0.83335600  0.60026000  1
  C  C17  1  0.27194100  0.33335600  0.10026000  1
  N  N18  1  0.81960500  0.29971200  0.56603700  1
  N  N19  1  0.81960500  0.20028800  0.93396300  1
  N  N20  1  0.18039500  0.29971200  0.43396300  1
  N  N21  1  0.81960500  0.79971200  0.93396300  1
  N  N22  1  0.18039500  0.70028800  0.43396300  1
  N  N23  1  0.18039500  0.79971200  0.06603700  1
  N  N24  1  0.81960500  0.70028800  0.56603700  1
  N  N25  1  0.18039500  0.20028800  0.06603700  1
  N  N26  1  0.28453400  0.00000000  0.76413600  1
  N  N27  1  0.28453400  0.50000000  0.73586400  1
  N  N28  1  0.71546600  0.00000000  0.23586400  1
  N  N29  1  0.71546600  0.50000000  0.26413600  1
