# generated using pymatgen
data_Ca2BiN3
_symmetry_space_group_name_H-M   'P 1'
_cell_length_a   6.57158614
_cell_length_b   11.71719774
_cell_length_c   11.67343900
_cell_angle_alpha   90.00000000
_cell_angle_beta   90.00000000
_cell_angle_gamma   26.93707549
_symmetry_Int_Tables_number   1
_chemical_formula_structural   Ca2BiN3
_chemical_formula_sum   'Ca8 Bi4 N12'
_cell_volume   407.19476775
_cell_formula_units_Z   4
loop_
 _symmetry_equiv_pos_site_id
 _symmetry_equiv_pos_as_xyz
  1  'x, y, z'
loop_
 _atom_site_type_symbol
 _atom_site_label
 _atom_site_symmetry_multiplicity
 _atom_site_fract_x
 _atom_site_fract_y
 _atom_site_fract_z
 _atom_site_occupancy
  Ca  Ca0  1  0.00000000  0.47497500  0.64677300  1
  Ca  Ca1  1  0.00000000  0.52502500  0.35322700  1
  Ca  Ca2  1  0.00000000  0.02502500  0.14677300  1
  Ca  Ca3  1  0.00000000  0.97497500  0.85322700  1
  Ca  Ca4  1  0.00000000  0.12540100  0.58190600  1
  Ca  Ca5  1  0.00000000  0.87459900  0.41809400  1
  Ca  Ca6  1  0.00000000  0.37459900  0.08190600  1
  Ca  Ca7  1  0.00000000  0.62540100  0.91809400  1
  Bi  Bi8  1  0.00000000  0.25467300  0.84650900  1
  Bi  Bi9  1  0.00000000  0.74532700  0.15349100  1
  Bi  Bi10  1  0.00000000  0.24532700  0.34650900  1
  Bi  Bi11  1  0.00000000  0.75467300  0.65349100  1
  N  N12  1  0.00000000  0.15169000  0.99460900  1
  N  N13  1  0.00000000  0.84831000  0.00539100  1
  N  N14  1  0.00000000  0.34831000  0.49460900  1
  N  N15  1  0.00000000  0.65169000  0.50539100  1
  N  N16  1  0.00000000  0.43467500  0.85604600  1
  N  N17  1  0.00000000  0.56532500  0.14395400  1
  N  N18  1  0.00000000  0.06532500  0.35604600  1
  N  N19  1  0.00000000  0.93467500  0.64395400  1
  N  N20  1  0.50000000  0.41101300  0.75000000  1
  N  N21  1  0.50000000  0.08898700  0.25000000  1
  N  N22  1  0.50000000  0.58898700  0.25000000  1
  N  N23  1  0.50000000  0.91101300  0.75000000  1
