# generated using pymatgen
data_CsSbN2
_symmetry_space_group_name_H-M   'P 1'
_cell_length_a   6.13320800
_cell_length_b   12.29143600
_cell_length_c   17.98426500
_cell_angle_alpha   90.00000000
_cell_angle_beta   90.00000000
_cell_angle_gamma   90.00000000
_symmetry_Int_Tables_number   1
_chemical_formula_structural   CsSbN2
_chemical_formula_sum   'Cs16 Sb16 N32'
_cell_volume   1355.76060726
_cell_formula_units_Z   16
loop_
 _symmetry_equiv_pos_site_id
 _symmetry_equiv_pos_as_xyz
  1  'x, y, z'
loop_
 _atom_site_type_symbol
 _atom_site_label
 _atom_site_symmetry_multiplicity
 _atom_site_fract_x
 _atom_site_fract_y
 _atom_site_fract_z
 _atom_site_occupancy
  Cs  Cs0  1  0.25489300  0.01184600  0.43619700  1
  Cs  Cs1  1  0.75489300  0.48815400  0.56380300  1
  Cs  Cs2  1  0.74510700  0.51184600  0.06380300  1
  Cs  Cs3  1  0.24510700  0.98815400  0.93619700  1
  Cs  Cs4  1  0.74510700  0.98815400  0.56380300  1
  Cs  Cs5  1  0.24510700  0.51184600  0.43619700  1
  Cs  Cs6  1  0.25489300  0.48815400  0.93619700  1
  Cs  Cs7  1  0.75489300  0.01184600  0.06380300  1
  Cs  Cs8  1  0.30211700  0.25756000  0.31358100  1
  Cs  Cs9  1  0.80211700  0.24244000  0.68641900  1
  Cs  Cs10  1  0.69788300  0.75756000  0.18641900  1
  Cs  Cs11  1  0.19788300  0.74244000  0.81358100  1
  Cs  Cs12  1  0.69788300  0.74244000  0.68641900  1
  Cs  Cs13  1  0.19788300  0.75756000  0.31358100  1
  Cs  Cs14  1  0.30211700  0.24244000  0.81358100  1
  Cs  Cs15  1  0.80211700  0.25756000  0.18641900  1
  Sb  Sb16  1  0.75397300  0.00478600  0.31216600  1
  Sb  Sb17  1  0.25397300  0.49521400  0.68783400  1
  Sb  Sb18  1  0.24602700  0.50478600  0.18783400  1
  Sb  Sb19  1  0.74602700  0.99521400  0.81216600  1
  Sb  Sb20  1  0.24602700  0.99521400  0.68783400  1
  Sb  Sb21  1  0.74602700  0.50478600  0.31216600  1
  Sb  Sb22  1  0.75397300  0.49521400  0.81216600  1
  Sb  Sb23  1  0.25397300  0.00478600  0.18783400  1
  Sb  Sb24  1  0.78515200  0.25770900  0.43721700  1
  Sb  Sb25  1  0.28515200  0.24229100  0.56278300  1
  Sb  Sb26  1  0.21484800  0.75770900  0.06278300  1
  Sb  Sb27  1  0.71484800  0.74229100  0.93721700  1
  Sb  Sb28  1  0.21484800  0.74229100  0.56278300  1
  Sb  Sb29  1  0.71484800  0.75770900  0.43721700  1
  Sb  Sb30  1  0.78515200  0.24229100  0.93721700  1
  Sb  Sb31  1  0.28515200  0.25770900  0.06278300  1
  N  N32  1  0.08949300  0.28387200  0.47726300  1
  N  N33  1  0.58949300  0.21612800  0.52273700  1
  N  N34  1  0.91050700  0.78387200  0.02273700  1
  N  N35  1  0.41050700  0.71612800  0.97726300  1
  N  N36  1  0.91050700  0.71612800  0.52273700  1
  N  N37  1  0.41050700  0.78387200  0.47726300  1
  N  N38  1  0.08949300  0.21612800  0.97726300  1
  N  N39  1  0.58949300  0.28387200  0.02273700  1
  N  N40  1  0.68662400  0.40501200  0.39940300  1
  N  N41  1  0.18662400  0.09498800  0.60059700  1
  N  N42  1  0.31337600  0.90501200  0.10059700  1
  N  N43  1  0.81337600  0.59498800  0.89940300  1
  N  N44  1  0.31337600  0.59498800  0.60059700  1
  N  N45  1  0.81337600  0.90501200  0.39940300  1
  N  N46  1  0.68662400  0.09498800  0.89940300  1
  N  N47  1  0.18662400  0.40501200  0.10059700  1
  N  N48  1  0.81377700  0.15864200  0.34732800  1
  N  N49  1  0.31377700  0.34135800  0.65267200  1
  N  N50  1  0.18622300  0.65864200  0.15267200  1
  N  N51  1  0.68622300  0.84135800  0.84732800  1
  N  N52  1  0.18622300  0.84135800  0.65267200  1
  N  N53  1  0.68622300  0.65864200  0.34732800  1
  N  N54  1  0.81377700  0.34135800  0.84732800  1
  N  N55  1  0.31377700  0.15864200  0.15267200  1
  N  N56  1  0.55657800  0.47749300  0.22165900  1
  N  N57  1  0.05657800  0.02250700  0.77834100  1
  N  N58  1  0.44342200  0.97749300  0.27834100  1
  N  N59  1  0.94342200  0.52250700  0.72165900  1
  N  N60  1  0.44342200  0.52250700  0.77834100  1
  N  N61  1  0.94342200  0.97749300  0.22165900  1
  N  N62  1  0.55657800  0.02250700  0.72165900  1
  N  N63  1  0.05657800  0.47749300  0.27834100  1
