# generated using pymatgen
data_Re(C2N3)3
_symmetry_space_group_name_H-M   'P 1'
_cell_length_a   7.50575853
_cell_length_b   13.26028845
_cell_length_c   11.40763900
_cell_angle_alpha   90.00000000
_cell_angle_beta   90.00000000
_cell_angle_gamma   27.95194038
_symmetry_Int_Tables_number   1
_chemical_formula_structural   Re(C2N3)3
_chemical_formula_sum   'Re2 C12 N18'
_cell_volume   532.19011598
_cell_formula_units_Z   2
loop_
 _symmetry_equiv_pos_site_id
 _symmetry_equiv_pos_as_xyz
  1  'x, y, z'
loop_
 _atom_site_type_symbol
 _atom_site_label
 _atom_site_symmetry_multiplicity
 _atom_site_fract_x
 _atom_site_fract_y
 _atom_site_fract_z
 _atom_site_occupancy
  Re  Re0  1  0.00000000  0.28026800  0.25000000  1
  Re  Re1  1  0.00000000  0.71973200  0.75000000  1
  C  C2  1  0.68111800  0.78507000  0.25000000  1
  C  C3  1  0.68111800  0.53381200  0.75000000  1
  C  C4  1  0.31888200  0.21493000  0.75000000  1
  C  C5  1  0.31888200  0.46618800  0.25000000  1
  C  C6  1  0.68176900  0.30361400  0.90864600  1
  C  C7  1  0.68176900  0.01461700  0.09135400  1
  C  C8  1  0.68176900  0.30361400  0.59135400  1
  C  C9  1  0.68176900  0.01461700  0.40864600  1
  C  C10  1  0.31823100  0.69638600  0.09135400  1
  C  C11  1  0.31823100  0.98538300  0.90864600  1
  C  C12  1  0.31823100  0.69638600  0.40864600  1
  C  C13  1  0.31823100  0.98538300  0.59135400  1
  N  N14  1  0.00000000  0.57754200  0.25000000  1
  N  N15  1  0.00000000  0.42245800  0.75000000  1
  N  N16  1  0.38082100  0.97532400  0.25000000  1
  N  N17  1  0.38082100  0.64385300  0.75000000  1
  N  N18  1  0.61917900  0.02467600  0.75000000  1
  N  N19  1  0.61917900  0.35614700  0.25000000  1
  N  N20  1  0.00000000  0.11968300  0.95695200  1
  N  N21  1  0.00000000  0.88031700  0.04304800  1
  N  N22  1  0.00000000  0.11968300  0.54304800  1
  N  N23  1  0.00000000  0.88031700  0.45695200  1
  N  N24  1  0.38334000  0.47334600  0.86704500  1
  N  N25  1  0.38334000  0.14331400  0.13295500  1
  N  N26  1  0.38334000  0.47334600  0.63295500  1
  N  N27  1  0.38334000  0.14331400  0.36704500  1
  N  N28  1  0.61666000  0.52665400  0.13295500  1
  N  N29  1  0.61666000  0.85668600  0.86704500  1
  N  N30  1  0.61666000  0.52665400  0.36704500  1
  N  N31  1  0.61666000  0.85668600  0.63295500  1
