# generated using pymatgen
data_Li3RuN2
_symmetry_space_group_name_H-M   'P 1'
_cell_length_a   8.44894400
_cell_length_b   9.75600016
_cell_length_c   9.75599920
_cell_angle_alpha   89.99999915
_cell_angle_beta   125.26439137
_cell_angle_gamma   54.73561261
_symmetry_Int_Tables_number   1
_chemical_formula_structural   Li3RuN2
_chemical_formula_sum   'Li24 Ru8 N16'
_cell_volume   464.28575525
_cell_formula_units_Z   8
loop_
 _symmetry_equiv_pos_site_id
 _symmetry_equiv_pos_as_xyz
  1  'x, y, z'
loop_
 _atom_site_type_symbol
 _atom_site_label
 _atom_site_symmetry_multiplicity
 _atom_site_fract_x
 _atom_site_fract_y
 _atom_site_fract_z
 _atom_site_occupancy
  Li  Li0  1  0.22697300  0.03536600  0.98862000  1
  Li  Li1  1  0.77302700  0.76233900  0.51138000  1
  Li  Li2  1  0.77302700  0.46463400  0.76164700  1
  Li  Li3  1  0.22697300  0.73766100  0.73835300  1
  Li  Li4  1  0.24973400  0.76164700  0.27371900  1
  Li  Li5  1  0.75026600  0.73835300  0.02398600  1
  Li  Li6  1  0.24973400  0.98862000  0.47601400  1
  Li  Li7  1  0.75026600  0.51138000  0.22628100  1
  Li  Li8  1  0.70229500  0.02398600  0.73766100  1
  Li  Li9  1  0.70229500  0.27371900  0.46463400  1
  Li  Li10  1  0.29770500  0.22628100  0.76233900  1
  Li  Li11  1  0.29770500  0.47601400  0.03536600  1
  Li  Li12  1  0.77302700  0.96463400  0.01138000  1
  Li  Li13  1  0.22697300  0.23766100  0.48862000  1
  Li  Li14  1  0.22697300  0.53536600  0.23835300  1
  Li  Li15  1  0.77302700  0.26233900  0.26164700  1
  Li  Li16  1  0.75026600  0.23835300  0.72628100  1
  Li  Li17  1  0.24973400  0.26164700  0.97601400  1
  Li  Li18  1  0.75026600  0.01138000  0.52398600  1
  Li  Li19  1  0.24973400  0.48862000  0.77371900  1
  Li  Li20  1  0.29770500  0.97601400  0.26233900  1
  Li  Li21  1  0.29770500  0.72628100  0.53536600  1
  Li  Li22  1  0.70229500  0.77371900  0.23766100  1
  Li  Li23  1  0.70229500  0.52398600  0.96463400  1
  Ru  Ru24  1  0.23094800  0.00000000  0.73094800  1
  Ru  Ru25  1  0.76905200  0.73094800  0.76905200  1
  Ru  Ru26  1  0.76905200  0.50000000  0.50000000  1
  Ru  Ru27  1  0.23094800  0.76905200  0.00000000  1
  Ru  Ru28  1  0.76905200  0.00000000  0.26905200  1
  Ru  Ru29  1  0.23094800  0.26905200  0.23094800  1
  Ru  Ru30  1  0.23094800  0.50000000  0.50000000  1
  Ru  Ru31  1  0.76905200  0.23094800  0.00000000  1
  N  N32  1  0.00000000  0.00000000  0.50000000  1
  N  N33  1  0.00000000  0.50000000  0.00000000  1
  N  N34  1  0.00000000  0.50000000  0.50000000  1
  N  N35  1  0.00000000  0.00000000  0.00000000  1
  N  N36  1  0.50000000  0.98022500  0.75000000  1
  N  N37  1  0.50000000  0.51977500  0.25000000  1
  N  N38  1  0.00000000  0.25000000  0.73022500  1
  N  N39  1  0.00000000  0.75000000  0.76977500  1
  N  N40  1  0.53955000  0.73022500  0.51977500  1
  N  N41  1  0.46045000  0.76977500  0.98022500  1
  N  N42  1  0.50000000  0.01977500  0.25000000  1
  N  N43  1  0.50000000  0.48022500  0.75000000  1
  N  N44  1  0.00000000  0.75000000  0.26977500  1
  N  N45  1  0.00000000  0.25000000  0.23022500  1
  N  N46  1  0.46045000  0.26977500  0.48022500  1
  N  N47  1  0.53955000  0.23022500  0.01977500  1
