# generated using pymatgen
data_Ca3InN3
_symmetry_space_group_name_H-M   'P 1'
_cell_length_a   7.47654605
_cell_length_b   7.48022173
_cell_length_c   5.08845000
_cell_angle_alpha   90.00000000
_cell_angle_beta   90.00000000
_cell_angle_gamma   119.99699227
_symmetry_Int_Tables_number   1
_chemical_formula_structural   Ca3InN3
_chemical_formula_sum   'Ca6 In2 N6'
_cell_volume   246.45906063
_cell_formula_units_Z   2
loop_
 _symmetry_equiv_pos_site_id
 _symmetry_equiv_pos_as_xyz
  1  'x, y, z'
loop_
 _atom_site_type_symbol
 _atom_site_label
 _atom_site_symmetry_multiplicity
 _atom_site_fract_x
 _atom_site_fract_y
 _atom_site_fract_z
 _atom_site_occupancy
  Ca  Ca0  1  0.93375700  0.66062600  0.25000000  1
  Ca  Ca1  1  0.72694500  0.06624400  0.25000000  1
  Ca  Ca2  1  0.33932000  0.27313800  0.25000000  1
  Ca  Ca3  1  0.06624300  0.33937400  0.75000000  1
  Ca  Ca4  1  0.27305500  0.93375600  0.75000000  1
  Ca  Ca5  1  0.66068000  0.72686200  0.75000000  1
  In  In6  1  0.66663900  0.33339700  0.75000000  1
  In  In7  1  0.33336100  0.66660300  0.25000000  1
  N  N8  1  0.93326100  0.63308600  0.75000000  1
  N  N9  1  0.69977400  0.06666100  0.75000000  1
  N  N10  1  0.36683500  0.30013300  0.75000000  1
  N  N11  1  0.06673900  0.36691400  0.25000000  1
  N  N12  1  0.30022600  0.93333900  0.25000000  1
  N  N13  1  0.63316500  0.69986700  0.25000000  1
