# generated using pymatgen
data_YMg2Ti3S8
_symmetry_space_group_name_H-M   'P 1'
_cell_length_a   7.58669410
_cell_length_b   7.58759196
_cell_length_c   7.58679512
_cell_angle_alpha   58.20694206
_cell_angle_beta   58.20635407
_cell_angle_gamma   58.19687473
_symmetry_Int_Tables_number   1
_chemical_formula_structural   YMg2Ti3S8
_chemical_formula_sum   'Y1 Mg2 Ti3 S8'
_cell_volume   296.10314608
_cell_formula_units_Z   1
loop_
 _symmetry_equiv_pos_site_id
 _symmetry_equiv_pos_as_xyz
  1  'x, y, z'
loop_
 _atom_site_type_symbol
 _atom_site_label
 _atom_site_symmetry_multiplicity
 _atom_site_fract_x
 _atom_site_fract_y
 _atom_site_fract_z
 _atom_site_occupancy
  Y  Y0  1  0.50000300  0.50001400  0.49998100  1
  Mg  Mg1  1  0.87284800  0.87310100  0.87295700  1
  Mg  Mg2  1  0.12715100  0.12689400  0.12704600  1
  Ti  Ti3  1  0.50001000  0.49999300  0.99999000  1
  Ti  Ti4  1  0.99999400  0.50000000  0.50001400  1
  Ti  Ti5  1  0.49999800  0.99999600  0.50001200  1
  S  S6  1  0.74088300  0.74078700  0.74083300  1
  S  S7  1  0.24588500  0.24590500  0.72679600  1
  S  S8  1  0.24589500  0.72678000  0.24589300  1
  S  S9  1  0.72676100  0.24591500  0.24589800  1
  S  S10  1  0.75409400  0.27321700  0.75409800  1
  S  S11  1  0.27323900  0.75408400  0.75409800  1
  S  S12  1  0.25911700  0.25920500  0.25918000  1
  S  S13  1  0.75412700  0.75410400  0.27320600  1
