# generated using pymatgen
data_Na2IrN2
_symmetry_space_group_name_H-M   'P 1'
_cell_length_a   3.15525800
_cell_length_b   4.02872200
_cell_length_c   6.75879711
_cell_angle_alpha   107.33965348
_cell_angle_beta   103.49842332
_cell_angle_gamma   90.00000000
_symmetry_Int_Tables_number   1
_chemical_formula_structural   Na2IrN2
_chemical_formula_sum   'Na2 Ir1 N2'
_cell_volume   79.52131892
_cell_formula_units_Z   1
loop_
 _symmetry_equiv_pos_site_id
 _symmetry_equiv_pos_as_xyz
  1  'x, y, z'
loop_
 _atom_site_type_symbol
 _atom_site_label
 _atom_site_symmetry_multiplicity
 _atom_site_fract_x
 _atom_site_fract_y
 _atom_site_fract_z
 _atom_site_occupancy
  Na  Na0  1  0.84179000  0.84179000  0.18358100  1
  Na  Na1  1  0.15821000  0.15821000  0.81641900  1
  Ir  Ir2  1  0.50000000  0.50000000  0.50000000  1
  N  N3  1  0.35697200  0.35697200  0.21394300  1
  N  N4  1  0.64302800  0.64302800  0.78605700  1
