# generated using pymatgen
data_AlCrN2
_symmetry_space_group_name_H-M   'P 1'
_cell_length_a   5.14022800
_cell_length_b   10.67971800
_cell_length_c   13.23254500
_cell_angle_alpha   90.00000000
_cell_angle_beta   90.00000000
_cell_angle_gamma   90.00000000
_symmetry_Int_Tables_number   1
_chemical_formula_structural   AlCrN2
_chemical_formula_sum   'Al16 Cr16 N32'
_cell_volume   726.41624490
_cell_formula_units_Z   16
loop_
 _symmetry_equiv_pos_site_id
 _symmetry_equiv_pos_as_xyz
  1  'x, y, z'
loop_
 _atom_site_type_symbol
 _atom_site_label
 _atom_site_symmetry_multiplicity
 _atom_site_fract_x
 _atom_site_fract_y
 _atom_site_fract_z
 _atom_site_occupancy
  Al  Al0  1  0.63748400  0.03572400  0.18511400  1
  Al  Al1  1  0.13748400  0.46427600  0.81488600  1
  Al  Al2  1  0.36251600  0.53572400  0.31488600  1
  Al  Al3  1  0.86251600  0.96427600  0.68511400  1
  Al  Al4  1  0.36251600  0.96427600  0.81488600  1
  Al  Al5  1  0.86251600  0.53572400  0.18511400  1
  Al  Al6  1  0.63748400  0.46427600  0.68511400  1
  Al  Al7  1  0.13748400  0.03572400  0.31488600  1
  Al  Al8  1  0.81509700  0.28896400  0.06286500  1
  Al  Al9  1  0.31509700  0.21103600  0.93713500  1
  Al  Al10  1  0.18490300  0.78896400  0.43713500  1
  Al  Al11  1  0.68490300  0.71103600  0.56286500  1
  Al  Al12  1  0.18490300  0.71103600  0.93713500  1
  Al  Al13  1  0.68490300  0.78896400  0.06286500  1
  Al  Al14  1  0.81509700  0.21103600  0.56286500  1
  Al  Al15  1  0.31509700  0.28896400  0.43713500  1
  Cr  Cr16  1  0.67197100  0.95837400  0.44142200  1
  Cr  Cr17  1  0.17197100  0.54162600  0.55857800  1
  Cr  Cr18  1  0.32802900  0.45837400  0.05857800  1
  Cr  Cr19  1  0.82802900  0.04162600  0.94142200  1
  Cr  Cr20  1  0.32802900  0.04162600  0.55857800  1
  Cr  Cr21  1  0.82802900  0.45837400  0.44142200  1
  Cr  Cr22  1  0.67197100  0.54162600  0.94142200  1
  Cr  Cr23  1  0.17197100  0.95837400  0.05857800  1
  Cr  Cr24  1  0.80875700  0.28742800  0.30108900  1
  Cr  Cr25  1  0.30875700  0.21257200  0.69891100  1
  Cr  Cr26  1  0.19124300  0.78742800  0.19891100  1
  Cr  Cr27  1  0.69124300  0.71257200  0.80108900  1
  Cr  Cr28  1  0.19124300  0.71257200  0.69891100  1
  Cr  Cr29  1  0.69124300  0.78742800  0.30108900  1
  Cr  Cr30  1  0.80875700  0.21257200  0.80108900  1
  Cr  Cr31  1  0.30875700  0.28742800  0.19891100  1
  N  N32  1  0.71063800  0.47590200  0.30678200  1
  N  N33  1  0.21063800  0.02409800  0.69321800  1
  N  N34  1  0.28936200  0.97590200  0.19321800  1
  N  N35  1  0.78936200  0.52409800  0.80678200  1
  N  N36  1  0.28936200  0.52409800  0.69321800  1
  N  N37  1  0.78936200  0.97590200  0.30678200  1
  N  N38  1  0.71063800  0.02409800  0.80678200  1
  N  N39  1  0.21063800  0.47590200  0.19321800  1
  N  N40  1  0.68698900  0.29237600  0.44567500  1
  N  N41  1  0.18698900  0.20762400  0.55432500  1
  N  N42  1  0.31301100  0.79237600  0.05432500  1
  N  N43  1  0.81301100  0.70762400  0.94567500  1
  N  N44  1  0.31301100  0.70762400  0.55432500  1
  N  N45  1  0.81301100  0.79237600  0.44567500  1
  N  N46  1  0.68698900  0.20762400  0.94567500  1
  N  N47  1  0.18698900  0.29237600  0.05432500  1
  N  N48  1  0.70100000  0.45798900  0.07062200  1
  N  N49  1  0.20100000  0.04201100  0.92937800  1
  N  N50  1  0.29900000  0.95798900  0.42937800  1
  N  N51  1  0.79900000  0.54201100  0.57062200  1
  N  N52  1  0.29900000  0.54201100  0.92937800  1
  N  N53  1  0.79900000  0.95798900  0.07062200  1
  N  N54  1  0.70100000  0.04201100  0.57062200  1
  N  N55  1  0.20100000  0.45798900  0.42937800  1
  N  N56  1  0.66468800  0.21148300  0.17825700  1
  N  N57  1  0.16468800  0.28851700  0.82174300  1
  N  N58  1  0.33531200  0.71148300  0.32174300  1
  N  N59  1  0.83531200  0.78851700  0.67825700  1
  N  N60  1  0.33531200  0.78851700  0.82174300  1
  N  N61  1  0.83531200  0.71148300  0.17825700  1
  N  N62  1  0.66468800  0.28851700  0.67825700  1
  N  N63  1  0.16468800  0.21148300  0.32174300  1
