# generated using pymatgen
data_Ba3Sc3N5
_symmetry_space_group_name_H-M   'P 1'
_cell_length_a   6.29860847
_cell_length_b   8.36846349
_cell_length_c   9.51173190
_cell_angle_alpha   110.40832572
_cell_angle_beta   103.46928361
_cell_angle_gamma   100.49331003
_symmetry_Int_Tables_number   1
_chemical_formula_structural   Ba3Sc3N5
_chemical_formula_sum   'Ba6 Sc6 N10'
_cell_volume   437.47712034
_cell_formula_units_Z   2
loop_
 _symmetry_equiv_pos_site_id
 _symmetry_equiv_pos_as_xyz
  1  'x, y, z'
loop_
 _atom_site_type_symbol
 _atom_site_label
 _atom_site_symmetry_multiplicity
 _atom_site_fract_x
 _atom_site_fract_y
 _atom_site_fract_z
 _atom_site_occupancy
  Ba  Ba0  1  0.77047000  0.43408100  0.59966300  1
  Ba  Ba1  1  0.22953000  0.56591900  0.40033700  1
  Ba  Ba2  1  0.66935200  0.85089500  0.88819700  1
  Ba  Ba3  1  0.33064800  0.14910500  0.11180300  1
  Ba  Ba4  1  0.68793900  0.65216700  0.21837200  1
  Ba  Ba5  1  0.31206100  0.34783300  0.78162800  1
  Sc  Sc6  1  0.90494600  0.31251500  0.97548000  1
  Sc  Sc7  1  0.09505400  0.68748500  0.02452000  1
  Sc  Sc8  1  0.70018100  0.97198200  0.58925800  1
  Sc  Sc9  1  0.29981900  0.02801800  0.41074200  1
  Sc  Sc10  1  0.10719500  0.87758700  0.70272900  1
  Sc  Sc11  1  0.89280500  0.12241300  0.29727100  1
  N  N12  1  0.97940700  0.09676900  0.80635800  1
  N  N13  1  0.02059300  0.90323100  0.19364200  1
  N  N14  1  0.77428300  0.72546200  0.53686500  1
  N  N15  1  0.22571700  0.27453800  0.46313500  1
  N  N16  1  0.77358700  0.49572500  0.89804200  1
  N  N17  1  0.22641300  0.50427500  0.10195800  1
  N  N18  1  0.36488800  0.94693000  0.60367700  1
  N  N19  1  0.63511200  0.05307000  0.39632300  1
  N  N20  1  0.21648300  0.76836100  0.86389700  1
  N  N21  1  0.78351700  0.23163900  0.13610300  1
