# generated using pymatgen
data_Mn3Bi3N5
_symmetry_space_group_name_H-M   'P 1'
_cell_length_a   5.62216429
_cell_length_b   7.56112213
_cell_length_c   8.57546742
_cell_angle_alpha   105.35899997
_cell_angle_beta   96.70004548
_cell_angle_gamma   95.82444468
_symmetry_Int_Tables_number   1
_chemical_formula_structural   Mn3Bi3N5
_chemical_formula_sum   'Mn6 Bi6 N10'
_cell_volume   345.77023113
_cell_formula_units_Z   2
loop_
 _symmetry_equiv_pos_site_id
 _symmetry_equiv_pos_as_xyz
  1  'x, y, z'
loop_
 _atom_site_type_symbol
 _atom_site_label
 _atom_site_symmetry_multiplicity
 _atom_site_fract_x
 _atom_site_fract_y
 _atom_site_fract_z
 _atom_site_occupancy
  Mn  Mn0  1  0.93875300  0.31684600  0.97419600  1
  Mn  Mn1  1  0.06124700  0.68315400  0.02580400  1
  Mn  Mn2  1  0.67633600  0.99008600  0.59726800  1
  Mn  Mn3  1  0.32366400  0.00991400  0.40273200  1
  Mn  Mn4  1  0.07071500  0.92657300  0.72166200  1
  Mn  Mn5  1  0.92928500  0.07342700  0.27833800  1
  Bi  Bi6  1  0.75313300  0.47266200  0.56057200  1
  Bi  Bi7  1  0.24686700  0.52733800  0.43942800  1
  Bi  Bi8  1  0.50074500  0.81424000  0.86706200  1
  Bi  Bi9  1  0.49925400  0.18576000  0.13293800  1
  Bi  Bi10  1  0.54287000  0.68025200  0.19567700  1
  Bi  Bi11  1  0.45713000  0.31974800  0.80432300  1
  N  N12  1  0.91673600  0.13541800  0.77534900  1
  N  N13  1  0.08326400  0.86458200  0.22465100  1
  N  N14  1  0.81881600  0.78716000  0.58157300  1
  N  N15  1  0.18118400  0.21284000  0.41842700  1
  N  N16  1  0.77640600  0.52682600  0.00545100  1
  N  N17  1  0.22359400  0.47317400  0.99454900  1
  N  N18  1  0.33810900  0.95374000  0.59815400  1
  N  N19  1  0.66189100  0.04626000  0.40184600  1
  N  N20  1  0.07499400  0.79713400  0.87446000  1
  N  N21  1  0.92500600  0.20286600  0.12554000  1
