# generated using pymatgen
data_Ca3Cr3N5
_symmetry_space_group_name_H-M   'P 1'
_cell_length_a   5.61427015
_cell_length_b   6.86172685
_cell_length_c   8.33826062
_cell_angle_alpha   108.19885868
_cell_angle_beta   104.47480971
_cell_angle_gamma   94.96858865
_symmetry_Int_Tables_number   1
_chemical_formula_structural   Ca3Cr3N5
_chemical_formula_sum   'Ca6 Cr6 N10'
_cell_volume   290.69195911
_cell_formula_units_Z   2
loop_
 _symmetry_equiv_pos_site_id
 _symmetry_equiv_pos_as_xyz
  1  'x, y, z'
loop_
 _atom_site_type_symbol
 _atom_site_label
 _atom_site_symmetry_multiplicity
 _atom_site_fract_x
 _atom_site_fract_y
 _atom_site_fract_z
 _atom_site_occupancy
  Ca  Ca0  1  0.82071800  0.42440600  0.61556500  1
  Ca  Ca1  1  0.17928200  0.57559400  0.38443500  1
  Ca  Ca2  1  0.66312500  0.87077800  0.88323300  1
  Ca  Ca3  1  0.33687500  0.12922200  0.11676700  1
  Ca  Ca4  1  0.65227800  0.66794800  0.20254700  1
  Ca  Ca5  1  0.34772200  0.33205200  0.79745300  1
  Cr  Cr6  1  0.90712600  0.32489500  0.96784000  1
  Cr  Cr7  1  0.09287400  0.67510500  0.03216000  1
  Cr  Cr8  1  0.69745100  0.95379600  0.56871200  1
  Cr  Cr9  1  0.30254900  0.04620400  0.43128800  1
  Cr  Cr10  1  0.11276000  0.88053200  0.70077500  1
  Cr  Cr11  1  0.88724000  0.11946800  0.29922500  1
  N  N12  1  0.95241800  0.11107000  0.78350000  1
  N  N13  1  0.04758200  0.88893000  0.21650000  1
  N  N14  1  0.83546100  0.71239200  0.50829900  1
  N  N15  1  0.16453900  0.28760800  0.49170100  1
  N  N16  1  0.75349300  0.53784400  0.90893200  1
  N  N17  1  0.24650700  0.46215600  0.09106800  1
  N  N18  1  0.38610900  0.93387000  0.62004700  1
  N  N19  1  0.61389100  0.06613000  0.37995300  1
  N  N20  1  0.20092200  0.77493100  0.87743700  1
  N  N21  1  0.79907800  0.22506900  0.12256300  1
