# generated using pymatgen
data_VWN3
_symmetry_space_group_name_H-M   'P 1'
_cell_length_a   5.39286940
_cell_length_b   8.75792808
_cell_length_c   9.45694336
_cell_angle_alpha   103.12747659
_cell_angle_beta   136.36781991
_cell_angle_gamma   87.75688258
_symmetry_Int_Tables_number   1
_chemical_formula_structural   VWN3
_chemical_formula_sum   'V4 W4 N12'
_cell_volume   294.89011881
_cell_formula_units_Z   4
loop_
 _symmetry_equiv_pos_site_id
 _symmetry_equiv_pos_as_xyz
  1  'x, y, z'
loop_
 _atom_site_type_symbol
 _atom_site_label
 _atom_site_symmetry_multiplicity
 _atom_site_fract_x
 _atom_site_fract_y
 _atom_site_fract_z
 _atom_site_occupancy
  V  V0  1  0.21450300  0.28718000  0.51351400  1
  V  V1  1  0.78549700  0.71282000  0.48648600  1
  V  V2  1  0.11205100  0.93015200  0.41635800  1
  V  V3  1  0.88794900  0.06984800  0.58364200  1
  W  W4  1  0.86128800  0.08970600  0.11197100  1
  W  W5  1  0.13871200  0.91029400  0.88802900  1
  W  W6  1  0.51514900  0.32413100  0.26122200  1
  W  W7  1  0.48485100  0.67586900  0.73877800  1
  N  N8  1  0.35721800  0.11289400  0.45520600  1
  N  N9  1  0.64278200  0.88710600  0.54479400  1
  N  N10  1  0.88748700  0.85148800  0.95032100  1
  N  N11  1  0.11251300  0.14851200  0.04967900  1
  N  N12  1  0.66314700  0.92607600  0.16049200  1
  N  N13  1  0.33685300  0.07392400  0.83950800  1
  N  N14  1  0.13104500  0.73341000  0.47945900  1
  N  N15  1  0.86895500  0.26659000  0.52054100  1
  N  N16  1  0.81430200  0.29511200  0.22038000  1
  N  N17  1  0.18569800  0.70488800  0.77962000  1
  N  N18  1  0.44945900  0.53278300  0.29778300  1
  N  N19  1  0.55054100  0.46721700  0.70221700  1
