# generated using pymatgen
data_K3Si3N5
_symmetry_space_group_name_H-M   'P 1'
_cell_length_a   5.58249441
_cell_length_b   7.21969027
_cell_length_c   8.23381505
_cell_angle_alpha   105.76625683
_cell_angle_beta   94.69039518
_cell_angle_gamma   100.90571184
_symmetry_Int_Tables_number   1
_chemical_formula_structural   K3Si3N5
_chemical_formula_sum   'K6 Si6 N10'
_cell_volume   310.47200598
_cell_formula_units_Z   2
loop_
 _symmetry_equiv_pos_site_id
 _symmetry_equiv_pos_as_xyz
  1  'x, y, z'
loop_
 _atom_site_type_symbol
 _atom_site_label
 _atom_site_symmetry_multiplicity
 _atom_site_fract_x
 _atom_site_fract_y
 _atom_site_fract_z
 _atom_site_occupancy
  K  K0  1  0.83344700  0.42839200  0.61457100  1
  K  K1  1  0.16655300  0.57160800  0.38542900  1
  K  K2  1  0.62893900  0.82496200  0.91040700  1
  K  K3  1  0.37106100  0.17503800  0.08959300  1
  K  K4  1  0.64758900  0.62022500  0.24381700  1
  K  K5  1  0.35241100  0.37977500  0.75618300  1
  Si  Si6  1  0.93253300  0.32315200  0.98254400  1
  Si  Si7  1  0.06746700  0.67684800  0.01745600  1
  Si  Si8  1  0.68670800  0.97479000  0.59430300  1
  Si  Si9  1  0.31329200  0.02521000  0.40569700  1
  Si  Si10  1  0.07610700  0.90557800  0.71702300  1
  Si  Si11  1  0.92389300  0.09442200  0.28297700  1
  N  N12  1  0.91788900  0.12265000  0.77754100  1
  N  N13  1  0.08211100  0.87735000  0.22245900  1
  N  N14  1  0.81719700  0.77393700  0.56951600  1
  N  N15  1  0.18280300  0.22606300  0.43048400  1
  N  N16  1  0.78136100  0.50222000  0.94524800  1
  N  N17  1  0.21863900  0.49778000  0.05475200  1
  N  N18  1  0.35356900  0.95880600  0.60364800  1
  N  N19  1  0.64643100  0.04119400  0.39635200  1
  N  N20  1  0.15113100  0.79981600  0.86831900  1
  N  N21  1  0.84886900  0.20018400  0.13168100  1
