# generated using pymatgen
data_Sr2CdN2
_symmetry_space_group_name_H-M   'P 1'
_cell_length_a   3.88878341
_cell_length_b   5.49915258
_cell_length_c   7.42237507
_cell_angle_alpha   90.00000028
_cell_angle_beta   105.17639650
_cell_angle_gamma   134.99564857
_symmetry_Int_Tables_number   1
_chemical_formula_structural   Sr2CdN2
_chemical_formula_sum   'Sr2 Cd1 N2'
_cell_volume   104.27099123
_cell_formula_units_Z   1
loop_
 _symmetry_equiv_pos_site_id
 _symmetry_equiv_pos_as_xyz
  1  'x, y, z'
loop_
 _atom_site_type_symbol
 _atom_site_label
 _atom_site_symmetry_multiplicity
 _atom_site_fract_x
 _atom_site_fract_y
 _atom_site_fract_z
 _atom_site_occupancy
  Sr  Sr0  1  0.67014100  0.33507100  0.17028700  1
  Sr  Sr1  1  0.32985900  0.66492900  0.82971300  1
  Cd  Cd2  1  0.00000000  0.00000000  0.50000000  1
  N  N3  1  0.30206400  0.15103200  0.80162000  1
  N  N4  1  0.69793600  0.84896800  0.19838000  1
