# generated using pymatgen
data_Mg2Sc3CrS8
_symmetry_space_group_name_H-M   'P 1'
_cell_length_a   7.49133842
_cell_length_b   7.45720084
_cell_length_c   7.49158976
_cell_angle_alpha   59.84914418
_cell_angle_beta   59.99951867
_cell_angle_gamma   59.84919053
_symmetry_Int_Tables_number   1
_chemical_formula_structural   Mg2Sc3CrS8
_chemical_formula_sum   'Mg2 Sc3 Cr1 S8'
_cell_volume   295.25603428
_cell_formula_units_Z   1
loop_
 _symmetry_equiv_pos_site_id
 _symmetry_equiv_pos_as_xyz
  1  'x, y, z'
loop_
 _atom_site_type_symbol
 _atom_site_label
 _atom_site_symmetry_multiplicity
 _atom_site_fract_x
 _atom_site_fract_y
 _atom_site_fract_z
 _atom_site_occupancy
  Mg  Mg0  1  0.87461133  0.87613942  0.87463646  1
  Mg  Mg1  1  0.12539450  0.12384134  0.12537972  1
  Sc  Sc2  1  0.50001590  0.50001189  0.49997817  1
  Sc  Sc3  1  0.50001307  0.49999177  -0.00000407  1
  Sc  Sc4  1  0.00000077  0.49999215  0.50002049  1
  Cr  Cr5  1  0.49993870  0.00006126  0.49996727  1
  S  S6  1  0.73370279  0.75473772  0.73371664  1
  S  S7  1  0.26629059  0.24527225  0.72217303  1
  S  S8  1  0.25786985  0.72640455  0.25786247  1
  S  S9  1  0.72217131  0.24526096  0.26627900  1
  S  S10  1  0.74213463  0.27358082  0.74212446  1
  S  S11  1  0.27783464  0.75471124  0.73373385  1
  S  S12  1  0.26629136  0.24525417  0.26629071  1
  S  S13  1  0.73373456  0.75473546  0.27784282  1
