# generated using pymatgen
data_TaMoN3
_symmetry_space_group_name_H-M   'P 1'
_cell_length_a   8.60456501
_cell_length_b   5.46280266
_cell_length_c   8.12136352
_cell_angle_alpha   119.27877664
_cell_angle_beta   94.08256052
_cell_angle_gamma   119.64765641
_symmetry_Int_Tables_number   1
_chemical_formula_structural   TaMoN3
_chemical_formula_sum   'Ta4 Mo4 N12'
_cell_volume   263.54579190
_cell_formula_units_Z   4
loop_
 _symmetry_equiv_pos_site_id
 _symmetry_equiv_pos_as_xyz
  1  'x, y, z'
loop_
 _atom_site_type_symbol
 _atom_site_label
 _atom_site_symmetry_multiplicity
 _atom_site_fract_x
 _atom_site_fract_y
 _atom_site_fract_z
 _atom_site_occupancy
  Ta  Ta0  1  0.19166500  0.08365800  0.99867900  1
  Ta  Ta1  1  0.80833500  0.91634200  0.00132100  1
  Ta  Ta2  1  0.91606500  0.73061400  0.55144700  1
  Ta  Ta3  1  0.08393500  0.26938600  0.44855300  1
  Mo  Mo4  1  0.33440500  0.68082100  0.89243900  1
  Mo  Mo5  1  0.66559500  0.31917900  0.10756100  1
  Mo  Mo6  1  0.53491100  0.79562700  0.36365700  1
  Mo  Mo7  1  0.46508900  0.20437300  0.63634300  1
  N  N8  1  0.80125200  0.85931700  0.41489300  1
  N  N9  1  0.19874800  0.14068300  0.58510700  1
  N  N10  1  0.87559300  0.33159800  0.27380100  1
  N  N11  1  0.12440700  0.66840200  0.72619900  1
  N  N12  1  0.65604600  0.30738700  0.51622200  1
  N  N13  1  0.34395400  0.69261300  0.48377800  1
  N  N14  1  0.55900800  0.79638800  0.83359200  1
  N  N15  1  0.44099200  0.20361200  0.16640800  1
  N  N16  1  0.04142100  0.95949400  0.14958900  1
  N  N17  1  0.95857900  0.04050600  0.85041100  1
  N  N18  1  0.63327700  0.39848600  0.90077900  1
  N  N19  1  0.36672300  0.60151400  0.09922100  1
