# generated using pymatgen
data_Ca5MnN4
_symmetry_space_group_name_H-M   'P 1'
_cell_length_a   7.99645700
_cell_length_b   7.33757500
_cell_length_c   5.83294500
_cell_angle_alpha   90.00000000
_cell_angle_beta   90.00000000
_cell_angle_gamma   90.00000000
_symmetry_Int_Tables_number   1
_chemical_formula_structural   Ca5MnN4
_chemical_formula_sum   'Ca10 Mn2 N8'
_cell_volume   342.24573203
_cell_formula_units_Z   2
loop_
 _symmetry_equiv_pos_site_id
 _symmetry_equiv_pos_as_xyz
  1  'x, y, z'
loop_
 _atom_site_type_symbol
 _atom_site_label
 _atom_site_symmetry_multiplicity
 _atom_site_fract_x
 _atom_site_fract_y
 _atom_site_fract_z
 _atom_site_occupancy
  Ca  Ca0  1  0.55568100  0.50999700  0.24142200  1
  Ca  Ca1  1  0.94431900  0.50999700  0.24142200  1
  Ca  Ca2  1  0.55568100  0.99000300  0.24142200  1
  Ca  Ca3  1  0.94431900  0.99000300  0.24142200  1
  Ca  Ca4  1  0.44431900  0.49000300  0.75857800  1
  Ca  Ca5  1  0.05568100  0.49000300  0.75857800  1
  Ca  Ca6  1  0.44431900  0.00999700  0.75857800  1
  Ca  Ca7  1  0.05568100  0.00999700  0.75857800  1
  Ca  Ca8  1  0.75000000  0.75000000  0.67965200  1
  Ca  Ca9  1  0.25000000  0.25000000  0.32034800  1
  Mn  Mn10  1  0.75000000  0.25000000  0.68145400  1
  Mn  Mn11  1  0.25000000  0.75000000  0.31854600  1
  N  N12  1  0.75000000  0.03574700  0.86974400  1
  N  N13  1  0.75000000  0.46425300  0.86974400  1
  N  N14  1  0.25000000  0.96425300  0.13025600  1
  N  N15  1  0.25000000  0.53574700  0.13025600  1
  N  N16  1  0.46454500  0.75000000  0.49280800  1
  N  N17  1  0.03545500  0.75000000  0.49280800  1
  N  N18  1  0.53545500  0.25000000  0.50719200  1
  N  N19  1  0.96454500  0.25000000  0.50719200  1
