# generated using pymatgen
data_AgSbN2
_symmetry_space_group_name_H-M   'P 1'
_cell_length_a   3.23133011
_cell_length_b   3.23133011
_cell_length_c   6.68874277
_cell_angle_alpha   76.02196823
_cell_angle_beta   76.02196823
_cell_angle_gamma   59.99999766
_symmetry_Int_Tables_number   1
_chemical_formula_structural   AgSbN2
_chemical_formula_sum   'Ag1 Sb1 N2'
_cell_volume   58.08332687
_cell_formula_units_Z   1
loop_
 _symmetry_equiv_pos_site_id
 _symmetry_equiv_pos_as_xyz
  1  'x, y, z'
loop_
 _atom_site_type_symbol
 _atom_site_label
 _atom_site_symmetry_multiplicity
 _atom_site_fract_x
 _atom_site_fract_y
 _atom_site_fract_z
 _atom_site_occupancy
  Ag  Ag0  1  0.83334200  0.50000900  0.49997500  1
  Sb  Sb1  1  0.33334200  0.00000900  0.99997300  1
  N  N2  1  0.94361000  0.61027700  0.16917000  1
  N  N3  1  0.72307200  0.38973900  0.83078300  1
