# generated using pymatgen
data_InSi7N10
_symmetry_space_group_name_H-M   'P 1'
_cell_length_a   6.83128484
_cell_length_b   6.84182400
_cell_length_c   9.73310579
_cell_angle_alpha   90.00000000
_cell_angle_beta   105.29503502
_cell_angle_gamma   90.00000000
_symmetry_Int_Tables_number   1
_chemical_formula_structural   InSi7N10
_chemical_formula_sum   'In2 Si14 N20'
_cell_volume   438.79747065
_cell_formula_units_Z   2
loop_
 _symmetry_equiv_pos_site_id
 _symmetry_equiv_pos_as_xyz
  1  'x, y, z'
loop_
 _atom_site_type_symbol
 _atom_site_label
 _atom_site_symmetry_multiplicity
 _atom_site_fract_x
 _atom_site_fract_y
 _atom_site_fract_z
 _atom_site_occupancy
  In  In0  1  0.96287800  0.99799300  0.67289300  1
  In  In1  1  0.96287800  0.00200700  0.17289300  1
  Si  Si2  1  0.54070100  0.97814600  0.82629700  1
  Si  Si3  1  0.54070100  0.02185400  0.32629700  1
  Si  Si4  1  0.35545300  0.02222100  0.01989300  1
  Si  Si5  1  0.35545300  0.97777900  0.51989300  1
  Si  Si6  1  0.10913100  0.40041600  0.07476200  1
  Si  Si7  1  0.10913100  0.59958400  0.57476200  1
  Si  Si8  1  0.66290600  0.36626000  0.99246000  1
  Si  Si9  1  0.66290600  0.63374000  0.49246000  1
  Si  Si10  1  0.84870700  0.61792300  0.80745600  1
  Si  Si11  1  0.84870700  0.38207700  0.30745600  1
  Si  Si12  1  0.29807500  0.61751400  0.88348000  1
  Si  Si13  1  0.29807500  0.38248600  0.38348000  1
  Si  Si14  1  0.48410900  0.36944600  0.68757300  1
  Si  Si15  1  0.48410900  0.63055400  0.18757300  1
  N  N16  1  0.74539500  0.84348200  0.81678800  1
  N  N17  1  0.74539500  0.15651800  0.31678800  1
  N  N18  1  0.56201600  0.13529300  0.97317500  1
  N  N19  1  0.56201600  0.86470700  0.47317500  1
  N  N20  1  0.32356400  0.86785500  0.86847000  1
  N  N21  1  0.32356400  0.13214500  0.36847000  1
  N  N22  1  0.15620500  0.16226100  0.03433500  1
  N  N23  1  0.15620500  0.83773900  0.53433500  1
  N  N24  1  0.28795900  0.50411500  0.72368500  1
  N  N25  1  0.28795900  0.49588500  0.22368500  1
  N  N26  1  0.44753800  0.11919000  0.67292100  1
  N  N27  1  0.44753800  0.88081000  0.17292100  1
  N  N28  1  0.88474300  0.38454600  0.13114600  1
  N  N29  1  0.88474300  0.61545400  0.63114600  1
  N  N30  1  0.07773700  0.57084100  0.93470300  1
  N  N31  1  0.07773700  0.42915900  0.43470300  1
  N  N32  1  0.69909200  0.41908300  0.82525700  1
  N  N33  1  0.69909200  0.58091700  0.32525700  1
  N  N34  1  0.49609000  0.53789500  0.02400700  1
  N  N35  1  0.49609000  0.46210500  0.52400700  1
