# generated using pymatgen
data_Li4MnCo2O7
_symmetry_space_group_name_H-M   'P 1'
_cell_length_a   5.15001998
_cell_length_b   7.71852731
_cell_length_c   7.65829315
_cell_angle_alpha   64.20479296
_cell_angle_beta   83.14441006
_cell_angle_gamma   108.31304288
_symmetry_Int_Tables_number   1
_chemical_formula_structural   Li4MnCo2O7
_chemical_formula_sum   'Li8 Mn2 Co4 O14'
_cell_volume   248.25229381
_cell_formula_units_Z   2
loop_
 _symmetry_equiv_pos_site_id
 _symmetry_equiv_pos_as_xyz
  1  'x, y, z'
loop_
 _atom_site_type_symbol
 _atom_site_label
 _atom_site_symmetry_multiplicity
 _atom_site_fract_x
 _atom_site_fract_y
 _atom_site_fract_z
 _atom_site_occupancy
  Li  Li0  1  0.56766100  0.07075900  0.78773800  1
  Li  Li1  1  0.00546400  0.50422400  0.49943500  1
  Li  Li2  1  0.42961700  0.93622500  0.21631800  1
  Li  Li3  1  0.86540600  0.36329300  0.93100200  1
  Li  Li4  1  0.27945600  0.78114300  0.64197100  1
  Li  Li5  1  0.71692700  0.21619300  0.34840900  1
  Li  Li6  1  0.14023300  0.63103600  0.07465300  1
  Li  Li7  1  0.28354000  0.28646400  0.14232800  1
  Mn  Mn8  1  0.99977600  0.00172700  0.00059900  1
  Mn  Mn9  1  0.14209000  0.14406700  0.56831800  1
  Co  Co10  1  0.42348000  0.42780700  0.71693500  1
  Co  Co11  1  0.87069700  0.86026700  0.42724100  1
  Co  Co12  1  0.70289400  0.70290900  0.86224000  1
  Co  Co13  1  0.56324200  0.56805400  0.28319200  1
  O  O14  1  0.13092000  0.90835900  0.81997000  1
  O  O15  1  0.52695900  0.31503200  0.54405400  1
  O  O16  1  0.00114500  0.76517900  0.23623700  1
  O  O17  1  0.38877000  0.18008100  0.95338500  1
  O  O18  1  0.85605000  0.61536800  0.66911200  1
  O  O19  1  0.27232400  0.03929300  0.40807600  1
  O  O20  1  0.71811500  0.48355000  0.10277700  1
  O  O21  1  0.99338200  0.22833300  0.75623600  1
  O  O22  1  0.45043800  0.66467200  0.46917600  1
  O  O23  1  0.85613100  0.08500500  0.18123200  1
  O  O24  1  0.31342100  0.54254100  0.87609400  1
  O  O25  1  0.75049500  0.96802200  0.60950600  1
  O  O26  1  0.14921100  0.38384000  0.33768600  1
  O  O27  1  0.60215500  0.82656000  0.03608000  1
