# generated using pymatgen
data_Ca3(ReN2)2
_symmetry_space_group_name_H-M   'P 1'
_cell_length_a   5.80672000
_cell_length_b   9.97353000
_cell_length_c   9.28516300
_cell_angle_alpha   90.00000000
_cell_angle_beta   90.00000000
_cell_angle_gamma   90.00000000
_symmetry_Int_Tables_number   1
_chemical_formula_structural   Ca3(ReN2)2
_chemical_formula_sum   'Ca12 Re8 N16'
_cell_volume   537.73625139
_cell_formula_units_Z   4
loop_
 _symmetry_equiv_pos_site_id
 _symmetry_equiv_pos_as_xyz
  1  'x, y, z'
loop_
 _atom_site_type_symbol
 _atom_site_label
 _atom_site_symmetry_multiplicity
 _atom_site_fract_x
 _atom_site_fract_y
 _atom_site_fract_z
 _atom_site_occupancy
  Ca  Ca0  1  0.62204100  0.15962000  0.41736700  1
  Ca  Ca1  1  0.87795900  0.84038000  0.41736700  1
  Ca  Ca2  1  0.62204100  0.34038000  0.08263300  1
  Ca  Ca3  1  0.87795900  0.65962000  0.08263300  1
  Ca  Ca4  1  0.37795900  0.84038000  0.58263300  1
  Ca  Ca5  1  0.12204100  0.15962000  0.58263300  1
  Ca  Ca6  1  0.37795900  0.65962000  0.91736700  1
  Ca  Ca7  1  0.12204100  0.34038000  0.91736700  1
  Ca  Ca8  1  0.75000000  0.50000000  0.40260800  1
  Ca  Ca9  1  0.75000000  0.00000000  0.09739200  1
  Ca  Ca10  1  0.25000000  0.50000000  0.59739200  1
  Ca  Ca11  1  0.25000000  0.00000000  0.90260800  1
  Re  Re12  1  0.75000000  0.50000000  0.73571700  1
  Re  Re13  1  0.75000000  0.00000000  0.76428300  1
  Re  Re14  1  0.25000000  0.50000000  0.26428300  1
  Re  Re15  1  0.25000000  0.00000000  0.23571700  1
  Re  Re16  1  0.62121200  0.25000000  0.75000000  1
  Re  Re17  1  0.87878800  0.75000000  0.75000000  1
  Re  Re18  1  0.37878800  0.75000000  0.25000000  1
  Re  Re19  1  0.12121200  0.25000000  0.25000000  1
  N  N20  1  0.89002600  0.35067400  0.63057400  1
  N  N21  1  0.60997400  0.64932600  0.63057400  1
  N  N22  1  0.89002600  0.14932600  0.86942600  1
  N  N23  1  0.60997400  0.85067400  0.86942600  1
  N  N24  1  0.10997400  0.64932600  0.36942600  1
  N  N25  1  0.39002600  0.35067400  0.36942600  1
  N  N26  1  0.10997400  0.85067400  0.13057400  1
  N  N27  1  0.39002600  0.14932600  0.13057400  1
  N  N28  1  0.49449000  0.41914800  0.84601600  1
  N  N29  1  0.00551000  0.58085200  0.84601600  1
  N  N30  1  0.49449000  0.08085200  0.65398400  1
  N  N31  1  0.00551000  0.91914800  0.65398400  1
  N  N32  1  0.50551000  0.58085200  0.15398400  1
  N  N33  1  0.99449000  0.41914800  0.15398400  1
  N  N34  1  0.50551000  0.91914800  0.34601600  1
  N  N35  1  0.99449000  0.08085200  0.34601600  1
