# generated using pymatgen
data_Zn3Ga3N5
_symmetry_space_group_name_H-M   'P 1'
_cell_length_a   5.86787476
_cell_length_b   6.59647726
_cell_length_c   8.43892162
_cell_angle_alpha   107.66743829
_cell_angle_beta   107.43733247
_cell_angle_gamma   98.91808093
_symmetry_Int_Tables_number   1
_chemical_formula_structural   Zn3Ga3N5
_chemical_formula_sum   'Zn6 Ga6 N10'
_cell_volume   285.86195576
_cell_formula_units_Z   2
loop_
 _symmetry_equiv_pos_site_id
 _symmetry_equiv_pos_as_xyz
  1  'x, y, z'
loop_
 _atom_site_type_symbol
 _atom_site_label
 _atom_site_symmetry_multiplicity
 _atom_site_fract_x
 _atom_site_fract_y
 _atom_site_fract_z
 _atom_site_occupancy
  Zn  Zn0  1  0.70511700  0.44223800  0.59668600  1
  Zn  Zn1  1  0.29488300  0.55776200  0.40331400  1
  Zn  Zn2  1  0.62377300  0.71487200  0.96127400  1
  Zn  Zn3  1  0.37622700  0.28512800  0.03872600  1
  Zn  Zn4  1  0.82336800  0.61529100  0.28199500  1
  Zn  Zn5  1  0.17663200  0.38470900  0.71800500  1
  Ga  Ga6  1  0.89028900  0.29577500  0.96627800  1
  Ga  Ga7  1  0.10971100  0.70422500  0.03372200  1
  Ga  Ga8  1  0.71560000  0.95604900  0.58675200  1
  Ga  Ga9  1  0.28440000  0.04395100  0.41324800  1
  Ga  Ga10  1  0.16269700  0.85376500  0.70656800  1
  Ga  Ga11  1  0.83730300  0.14623500  0.29343200  1
  N  N12  1  0.04760800  0.13287900  0.79888900  1
  N  N13  1  0.95239200  0.86712100  0.20111100  1
  N  N14  1  0.82047800  0.68791400  0.52432900  1
  N  N15  1  0.17952200  0.31208600  0.47567100  1
  N  N16  1  0.77644100  0.49732200  0.85059200  1
  N  N17  1  0.22355900  0.50267800  0.14940800  1
  N  N18  1  0.36958400  0.88103000  0.57213900  1
  N  N19  1  0.63041600  0.11897000  0.42786100  1
  N  N20  1  0.28557000  0.72314700  0.87896100  1
  N  N21  1  0.71443000  0.27685300  0.12103900  1
