# generated using pymatgen
data_Mg5NiN4
_symmetry_space_group_name_H-M   'P 1'
_cell_length_a   7.90033620
_cell_length_b   6.42939843
_cell_length_c   5.46090559
_cell_angle_alpha   90.00000000
_cell_angle_beta   90.00000000
_cell_angle_gamma   90.00000000
_symmetry_Int_Tables_number   1
_chemical_formula_structural   Mg5NiN4
_chemical_formula_sum   'Mg10 Ni2 N8'
_cell_volume   277.38347293
_cell_formula_units_Z   2
loop_
 _symmetry_equiv_pos_site_id
 _symmetry_equiv_pos_as_xyz
  1  'x, y, z'
loop_
 _atom_site_type_symbol
 _atom_site_label
 _atom_site_symmetry_multiplicity
 _atom_site_fract_x
 _atom_site_fract_y
 _atom_site_fract_z
 _atom_site_occupancy
  Mg  Mg0  1  0.55841022  0.51190887  0.27675084  1
  Mg  Mg1  1  0.94158978  0.51190887  0.27675084  1
  Mg  Mg2  1  0.55841022  0.98809113  0.27675084  1
  Mg  Mg3  1  0.94158978  0.98809113  0.27675084  1
  Mg  Mg4  1  0.44158978  0.48809113  0.72324916  1
  Mg  Mg5  1  0.05841022  0.48809113  0.72324916  1
  Mg  Mg6  1  0.44158978  0.01190887  0.72324916  1
  Mg  Mg7  1  0.05841022  0.01190887  0.72324916  1
  Mg  Mg8  1  0.75000000  0.75000000  0.74443800  1
  Mg  Mg9  1  0.25000000  0.25000000  0.25556200  1
  Ni  Ni10  1  0.75000000  0.25000000  0.93800484  1
  Ni  Ni11  1  0.25000000  0.75000000  0.06199516  1
  N  N12  1  0.75000000  0.98532730  0.01004359  1
  N  N13  1  0.75000000  0.51467270  0.01004359  1
  N  N14  1  0.25000000  0.01467270  0.98995641  1
  N  N15  1  0.25000000  0.48532730  0.98995641  1
  N  N16  1  0.53160859  0.75000000  0.53576579  1
  N  N17  1  0.96839141  0.75000000  0.53576579  1
  N  N18  1  0.46839141  0.25000000  0.46423421  1
  N  N19  1  0.03160859  0.25000000  0.46423421  1
