# generated using pymatgen
data_Ca3Os3N5
_symmetry_space_group_name_H-M   'P 1'
_cell_length_a   6.03859390
_cell_length_b   6.76041113
_cell_length_c   8.21372577
_cell_angle_alpha   99.16799299
_cell_angle_beta   107.72377985
_cell_angle_gamma   91.72170357
_symmetry_Int_Tables_number   1
_chemical_formula_structural   Ca3Os3N5
_chemical_formula_sum   'Ca6 Os6 N10'
_cell_volume   314.21439620
_cell_formula_units_Z   2
loop_
 _symmetry_equiv_pos_site_id
 _symmetry_equiv_pos_as_xyz
  1  'x, y, z'
loop_
 _atom_site_type_symbol
 _atom_site_label
 _atom_site_symmetry_multiplicity
 _atom_site_fract_x
 _atom_site_fract_y
 _atom_site_fract_z
 _atom_site_occupancy
  Ca  Ca0  1  0.79069400  0.49189100  0.60557600  1
  Ca  Ca1  1  0.20930600  0.50810900  0.39442400  1
  Ca  Ca2  1  0.63918200  0.89508100  0.84407300  1
  Ca  Ca3  1  0.36081800  0.10491900  0.15592700  1
  Ca  Ca4  1  0.63605600  0.66264400  0.17814000  1
  Ca  Ca5  1  0.36394400  0.33735600  0.82186000  1
  Os  Os6  1  0.92225200  0.32589900  0.00231600  1
  Os  Os7  1  0.07774800  0.67410100  0.99768400  1
  Os  Os8  1  0.70974000  0.00492500  0.49544100  1
  Os  Os9  1  0.29026000  0.99507500  0.50455900  1
  Os  Os10  1  0.10434500  0.89611000  0.75336900  1
  Os  Os11  1  0.89565500  0.10389000  0.24663100  1
  N  N12  1  0.04257500  0.11543900  0.88886100  1
  N  N13  1  0.95742500  0.88456100  0.11113900  1
  N  N14  1  0.99493200  0.78857100  0.49978200  1
  N  N15  1  0.00506800  0.21142900  0.50021800  1
  N  N16  1  0.73293500  0.53368400  0.88811500  1
  N  N17  1  0.26706500  0.46631600  0.11188500  1
  N  N18  1  0.50905100  0.77833600  0.51343000  1
  N  N19  1  0.49094900  0.22166400  0.48657000  1
  N  N20  1  0.34244300  0.78268800  0.94020800  1
  N  N21  1  0.65755700  0.21731200  0.05979200  1
