# generated using pymatgen
data_Si7CN10
_symmetry_space_group_name_H-M   'P 1'
_cell_length_a   7.10746135
_cell_length_b   6.95885800
_cell_length_c   9.88643765
_cell_angle_alpha   90.00000000
_cell_angle_beta   106.86334215
_cell_angle_gamma   90.00000000
_symmetry_Int_Tables_number   1
_chemical_formula_structural   Si7CN10
_chemical_formula_sum   'Si14 C2 N20'
_cell_volume   467.95486791
_cell_formula_units_Z   2
loop_
 _symmetry_equiv_pos_site_id
 _symmetry_equiv_pos_as_xyz
  1  'x, y, z'
loop_
 _atom_site_type_symbol
 _atom_site_label
 _atom_site_symmetry_multiplicity
 _atom_site_fract_x
 _atom_site_fract_y
 _atom_site_fract_z
 _atom_site_occupancy
  Si  Si0  1  0.55188000  0.97508400  0.82568600  1
  Si  Si1  1  0.55188000  0.02491600  0.32568600  1
  Si  Si2  1  0.40771700  0.97501700  0.02172800  1
  Si  Si3  1  0.40771700  0.02498300  0.52172800  1
  Si  Si4  1  0.05896500  0.48356800  0.09781400  1
  Si  Si5  1  0.05896500  0.51643200  0.59781400  1
  Si  Si6  1  0.63881400  0.36801500  0.00462500  1
  Si  Si7  1  0.63881400  0.63198500  0.50462500  1
  Si  Si8  1  0.82431300  0.63165200  0.81314600  1
  Si  Si9  1  0.82431300  0.36834800  0.31314600  1
  Si  Si10  1  0.28092100  0.60560700  0.89533700  1
  Si  Si11  1  0.28092100  0.39439300  0.39533700  1
  Si  Si12  1  0.46763900  0.38240400  0.70319100  1
  Si  Si13  1  0.46763900  0.61759600  0.20319100  1
  C  C14  1  0.12509000  0.76038000  0.54669000  1
  C  C15  1  0.12509000  0.23962000  0.04669000  1
  N  N16  1  0.73434100  0.84906000  0.80531200  1
  N  N17  1  0.73434100  0.15094000  0.30531200  1
  N  N18  1  0.56409700  0.13020600  0.97312000  1
  N  N19  1  0.56409700  0.86979400  0.47312000  1
  N  N20  1  0.36220800  0.83542800  0.87389300  1
  N  N21  1  0.36220800  0.16457200  0.37389300  1
  N  N22  1  0.18513600  0.09671800  0.01419500  1
  N  N23  1  0.18513600  0.90328100  0.51419500  1
  N  N24  1  0.25305000  0.46475000  0.74386900  1
  N  N25  1  0.25305000  0.53525000  0.24386900  1
  N  N26  1  0.46025300  0.13383700  0.68129400  1
  N  N27  1  0.46025300  0.86616300  0.18129400  1
  N  N28  1  0.84967500  0.42866700  0.14109800  1
  N  N29  1  0.84967500  0.57133300  0.64109800  1
  N  N30  1  0.05669300  0.60124700  0.94215700  1
  N  N31  1  0.05669300  0.39875300  0.44215700  1
  N  N32  1  0.66861200  0.44555500  0.84352800  1
  N  N33  1  0.66861200  0.55444500  0.34352800  1
  N  N34  1  0.45289600  0.50424300  0.04261800  1
  N  N35  1  0.45289600  0.49575700  0.54261800  1
