# generated using pymatgen
data_SrCa7Mn7CrO23
_symmetry_space_group_name_H-M   'P 1'
_cell_length_a   7.64831548
_cell_length_b   7.64831548
_cell_length_c   7.70722789
_cell_angle_alpha   89.96115596
_cell_angle_beta   89.96115596
_cell_angle_gamma   89.98790252
_symmetry_Int_Tables_number   1
_chemical_formula_structural   SrCa7Mn7CrO23
_chemical_formula_sum   'Sr1 Ca7 Mn7 Cr1 O23'
_cell_volume   450.84740922
_cell_formula_units_Z   1
loop_
 _symmetry_equiv_pos_site_id
 _symmetry_equiv_pos_as_xyz
  1  'x, y, z'
loop_
 _atom_site_type_symbol
 _atom_site_label
 _atom_site_symmetry_multiplicity
 _atom_site_fract_x
 _atom_site_fract_y
 _atom_site_fract_z
 _atom_site_occupancy
  Sr  Sr0  1  0.25626900  0.25626900  0.25065200  1
  Ca  Ca1  1  0.26612500  0.26612500  0.74188000  1
  Ca  Ca2  1  0.26045400  0.74220100  0.25271900  1
  Ca  Ca3  1  0.26581300  0.73646800  0.74097900  1
  Ca  Ca4  1  0.74220100  0.26045400  0.25271900  1
  Ca  Ca5  1  0.73646800  0.26581300  0.74097900  1
  Ca  Ca6  1  0.74201400  0.74201400  0.25275800  1
  Ca  Ca7  1  0.73429300  0.73429300  0.74092400  1
  Mn  Mn8  1  0.99932600  0.99932600  0.50548700  1
  Mn  Mn9  1  0.99925700  0.50203600  0.00167200  1
  Mn  Mn10  1  0.99927500  0.50143100  0.49630000  1
  Mn  Mn11  1  0.50203600  0.99925700  0.00167200  1
  Mn  Mn12  1  0.50143100  0.99927500  0.49630000  1
  Mn  Mn13  1  0.50105000  0.50105000  0.99938900  1
  Mn  Mn14  1  0.50073900  0.50073900  0.49809200  1
  Cr  Cr15  1  0.99867400  0.99867400  0.98708800  1
  O  O16  1  0.99573100  0.99573100  0.75837500  1
  O  O17  1  0.99588700  0.49787700  0.24997200  1
  O  O18  1  0.99811900  0.50352100  0.75033900  1
  O  O19  1  0.49787700  0.99588700  0.24997200  1
  O  O20  1  0.50352100  0.99811900  0.75033900  1
  O  O21  1  0.50306900  0.50306900  0.24962800  1
  O  O22  1  0.50117300  0.50117300  0.74889700  1
  O  O23  1  0.23870400  0.99679200  0.02661300  1
  O  O24  1  0.24772000  0.99572400  0.48227100  1
  O  O25  1  0.24949100  0.50328800  0.99132200  1
  O  O26  1  0.25016500  0.50279800  0.50896300  1
  O  O27  1  0.76052800  0.99887000  0.03531500  1
  O  O28  1  0.75281100  0.99913300  0.47169000  1
  O  O29  1  0.75059600  0.50136900  0.99336000  1
  O  O30  1  0.74966800  0.50154000  0.50690000  1
  O  O31  1  0.99679200  0.23870400  0.02661300  1
  O  O32  1  0.99572400  0.24772000  0.48227100  1
  O  O33  1  0.99887000  0.76052800  0.03531500  1
  O  O34  1  0.99913300  0.75281100  0.47169000  1
  O  O35  1  0.50328800  0.24949100  0.99132200  1
  O  O36  1  0.50279800  0.25016500  0.50896300  1
  O  O37  1  0.50136900  0.75059600  0.99336000  1
  O  O38  1  0.50154000  0.74966800  0.50690000  1
