# generated using pymatgen
data_SrCa3Mn4O10
_symmetry_space_group_name_H-M   'P 1'
_cell_length_a   8.01603586
_cell_length_b   7.73004168
_cell_length_c   7.74511966
_cell_angle_alpha   88.86785322
_cell_angle_beta   87.83429729
_cell_angle_gamma   90.75320070
_symmetry_Int_Tables_number   1
_chemical_formula_structural   SrCa3Mn4O10
_chemical_formula_sum   'Sr2 Ca6 Mn8 O20'
_cell_volume   479.43807541
_cell_formula_units_Z   2
loop_
 _symmetry_equiv_pos_site_id
 _symmetry_equiv_pos_as_xyz
  1  'x, y, z'
loop_
 _atom_site_type_symbol
 _atom_site_label
 _atom_site_symmetry_multiplicity
 _atom_site_fract_x
 _atom_site_fract_y
 _atom_site_fract_z
 _atom_site_occupancy
  Sr  Sr0  1  0.24830600  0.23511800  0.24565000  1
  Sr  Sr1  1  0.75894500  0.26126600  0.27461300  1
  Ca  Ca2  1  0.26925700  0.29429300  0.71609100  1
  Ca  Ca3  1  0.26151800  0.71533200  0.25006200  1
  Ca  Ca4  1  0.26087600  0.75385100  0.69162800  1
  Ca  Ca5  1  0.73267800  0.24181600  0.74670900  1
  Ca  Ca6  1  0.74335600  0.74247000  0.28313200  1
  Ca  Ca7  1  0.71732300  0.72863500  0.74825300  1
  Mn  Mn8  1  0.02675500  0.99901300  0.96713200  1
  Mn  Mn9  1  0.99821400  0.00256800  0.52533100  1
  Mn  Mn10  1  0.00431600  0.48761100  0.99521400  1
  Mn  Mn11  1  0.00342600  0.51274600  0.49717000  1
  Mn  Mn12  1  0.48664000  0.98947400  0.00403800  1
  Mn  Mn13  1  0.50719200  0.00413600  0.49773400  1
  Mn  Mn14  1  0.50216200  0.49857800  0.98669100  1
  Mn  Mn15  1  0.50366400  0.50702900  0.50483700  1
  O  O16  1  0.89484400  0.96073200  0.78422800  1
  O  O17  1  0.96506600  0.53382000  0.23610400  1
  O  O18  1  0.05464400  0.52659900  0.74964900  1
  O  O19  1  0.50833300  0.05272400  0.24741500  1
  O  O20  1  0.52585300  0.95487200  0.75279200  1
  O  O21  1  0.46104100  0.54761900  0.74543300  1
  O  O22  1  0.22606000  0.94611500  0.06143000  1
  O  O23  1  0.23528500  0.03688500  0.56344300  1
  O  O24  1  0.25675500  0.50035100  0.04285600  1
  O  O25  1  0.27281500  0.47275100  0.45406700  1
  O  O26  1  0.77841200  0.97974300  0.43888800  1
  O  O27  1  0.75385400  0.48618200  0.95543900  1
  O  O28  1  0.73915600  0.53899000  0.50955900  1
  O  O29  1  0.99096800  0.22104500  0.03794500  1
  O  O30  1  0.97000800  0.25834900  0.51628000  1
  O  O31  1  0.05223900  0.76276600  0.47183600  1
  O  O32  1  0.48936600  0.24506100  0.95752300  1
  O  O33  1  0.53284000  0.25960400  0.53209500  1
  O  O34  1  0.54140700  0.74059100  0.05834000  1
  O  O35  1  0.47642600  0.75126600  0.45039400  1
