# generated using pymatgen
data_Ca16Mn14Al2O41
_symmetry_space_group_name_H-M   'P 1'
_cell_length_a   10.92954177
_cell_length_b   15.41426188
_cell_length_c   10.95144977
_cell_angle_alpha   90.10429838
_cell_angle_beta   92.04605290
_cell_angle_gamma   89.99644409
_symmetry_Int_Tables_number   1
_chemical_formula_structural   Ca16Mn14Al2O41
_chemical_formula_sum   'Ca32 Mn28 Al4 O82'
_cell_volume   1843.82038441
_cell_formula_units_Z   2
loop_
 _symmetry_equiv_pos_site_id
 _symmetry_equiv_pos_as_xyz
  1  'x, y, z'
loop_
 _atom_site_type_symbol
 _atom_site_label
 _atom_site_symmetry_multiplicity
 _atom_site_fract_x
 _atom_site_fract_y
 _atom_site_fract_z
 _atom_site_occupancy
  Ca  Ca0  1  0.99112881  0.11890064  0.52856121  1
  Ca  Ca1  1  0.01318531  0.11623893  0.98438567  1
  Ca  Ca2  1  0.00856551  0.61148100  0.50916869  1
  Ca  Ca3  1  0.99679526  0.60989401  0.01539320  1
  Ca  Ca4  1  0.53453986  0.13066605  0.50105413  1
  Ca  Ca5  1  0.53128858  0.12219219  0.99273990  1
  Ca  Ca6  1  0.53620921  0.63092069  0.47401289  1
  Ca  Ca7  1  0.54722615  0.63125904  0.97792809  1
  Ca  Ca8  1  0.50522637  0.35640046  0.99730761  1
  Ca  Ca9  1  0.50875926  0.35834835  0.48463769  1
  Ca  Ca10  1  0.50396836  0.89032371  0.98361670  1
  Ca  Ca11  1  0.48713302  0.88693078  0.50510343  1
  Ca  Ca12  1  0.96449610  0.38003958  0.00285090  1
  Ca  Ca13  1  0.95746677  0.38972876  0.52090009  1
  Ca  Ca14  1  0.97670319  0.88080493  0.98783402  1
  Ca  Ca15  1  0.95844556  0.86869695  0.52895384  1
  Ca  Ca16  1  0.23911481  0.37695881  0.25788101  1
  Ca  Ca17  1  0.22751958  0.38920769  0.76903163  1
  Ca  Ca18  1  0.25657071  0.89222422  0.25946275  1
  Ca  Ca19  1  0.24331950  0.89169292  0.76364990  1
  Ca  Ca20  1  0.73556206  0.36614348  0.24536899  1
  Ca  Ca21  1  0.74719041  0.36051354  0.75455869  1
  Ca  Ca22  1  0.75207604  0.88387643  0.24979102  1
  Ca  Ca23  1  0.72819222  0.88414505  0.75652742  1
  Ca  Ca24  1  0.27581411  0.13326389  0.22810130  1
  Ca  Ca25  1  0.26327123  0.12023858  0.75756355  1
  Ca  Ca26  1  0.22787211  0.61816132  0.24649171  1
  Ca  Ca27  1  0.22723673  0.61537795  0.73900262  1
  Ca  Ca28  1  0.73669443  0.12727592  0.24617161  1
  Ca  Ca29  1  0.76772754  0.11727954  0.75896411  1
  Ca  Ca30  1  0.78560498  0.62209706  0.25568811  1
  Ca  Ca31  1  0.77759826  0.62298817  0.75371952  1
  Mn  Mn32  1  0.02465904  0.98831380  0.25555627  1
  Mn  Mn33  1  0.99784290  0.99713337  0.75132134  1
  Mn  Mn34  1  0.99494970  0.49253037  0.26353130  1
  Mn  Mn35  1  0.99151538  0.49774807  0.75760802  1
  Mn  Mn36  1  0.48845455  0.00495878  0.74610174  1
  Mn  Mn37  1  0.50822989  0.49059311  0.22884140  1
  Mn  Mn38  1  0.50861736  0.48764559  0.72647524  1
  Mn  Mn39  1  0.25247394  0.00299114  0.00415924  1
  Mn  Mn40  1  0.23946579  0.49713292  0.01866316  1
  Mn  Mn41  1  0.24435577  0.49681247  0.51570363  1
  Mn  Mn42  1  0.75462978  0.00027154  0.00484345  1
  Mn  Mn43  1  0.73288470  0.99723824  0.50740378  1
  Mn  Mn44  1  0.74397008  0.49946211  0.99792352  1
  Mn  Mn45  1  0.73901872  0.50152670  0.49432816  1
  Mn  Mn46  1  0.24149181  0.24200713  0.46764292  1
  Mn  Mn47  1  0.26753904  0.73539908  0.95548181  1
  Mn  Mn48  1  0.26486953  0.74851944  0.45482583  1
  Mn  Mn49  1  0.76235348  0.24546026  0.00563262  1
  Mn  Mn50  1  0.75646030  0.24687464  0.50020866  1
  Mn  Mn51  1  0.76004802  0.75068805  0.00657520  1
  Mn  Mn52  1  0.74914492  0.74845218  0.50447113  1
  Mn  Mn53  1  0.00506500  0.25012998  0.76437779  1
  Mn  Mn54  1  0.99525011  0.75496487  0.26848822  1
  Mn  Mn55  1  0.99183836  0.75059312  0.76257864  1
  Mn  Mn56  1  0.50038454  0.24454104  0.24662833  1
  Mn  Mn57  1  0.51165159  0.24470680  0.75629658  1
  Mn  Mn58  1  0.51958285  0.76206702  0.25188473  1
  Mn  Mn59  1  0.51122068  0.75011021  0.74615762  1
  Al  Al60  1  0.51147940  0.99951803  0.23063452  1
  Al  Al61  1  0.22115846  0.00115340  0.51818377  1
  Al  Al62  1  0.27596978  0.25088697  0.97984577  1
  Al  Al63  1  0.98267425  0.26489061  0.28011063  1
  O  O64  1  0.62190210  0.26208986  0.11710839  1
  O  O65  1  0.61158043  0.26416998  0.61243904  1
  O  O66  1  0.58508842  0.76509181  0.09379890  1
  O  O67  1  0.57887621  0.75986493  0.58081030  1
  O  O68  1  0.39906998  0.22047857  0.38655875  1
  O  O69  1  0.41009611  0.22756525  0.89514129  1
  O  O70  1  0.40309800  0.69975990  0.33993255  1
  O  O71  1  0.39759204  0.68414853  0.84924242  1
  O  O72  1  0.89462659  0.21453741  0.39263766  1
  O  O73  1  0.90427815  0.23566575  0.90984280  1
  O  O74  1  0.90792730  0.73170441  0.42798719  1
  O  O75  1  0.91654882  0.73609989  0.92594984  1
  O  O76  1  0.13592304  0.23218335  0.29836644  1
  O  O77  1  0.17302273  0.24792977  0.82824186  1
  O  O78  1  0.16685574  0.75628632  0.28916917  1
  O  O79  1  0.16547437  0.74892966  0.80412013  1
  O  O80  1  0.64233142  0.22962206  0.36341457  1
  O  O81  1  0.66185869  0.22781827  0.86185814  1
  O  O82  1  0.66075747  0.72430075  0.34529610  1
  O  O83  1  0.66033685  0.73127006  0.85639200  1
  O  O84  1  0.36086615  0.26626572  0.13874027  1
  O  O85  1  0.88527019  0.26425998  0.14745072  1
  O  O86  1  0.87627523  0.26940111  0.63153950  1
  O  O87  1  0.85611651  0.77498621  0.15762320  1
  O  O88  1  0.84123781  0.77246107  0.65740217  1
  O  O89  1  0.34528593  0.49987984  0.16940980  1
  O  O90  1  0.34533001  0.49897790  0.66851764  1
  O  O91  1  0.35811965  0.99662631  0.15078658  1
  O  O92  1  0.34327974  0.99489313  0.63538835  1
  O  O93  1  0.85205621  0.47882968  0.15398507  1
  O  O94  1  0.83747810  0.48006672  0.64748098  1
  O  O95  1  0.86892993  0.00648242  0.18830167  1
  O  O96  1  0.85201764  0.98026261  0.64404227  1
  O  O97  1  0.16840210  0.01948243  0.35636591  1
  O  O98  1  0.14595261  0.01146169  0.85379802  1
  O  O99  1  0.15372203  0.50933424  0.36482766  1
  O  O100  1  0.14833603  0.51180330  0.86811564  1
  O  O101  1  0.61961811  0.01944856  0.36707871  1
  O  O102  1  0.63075642  0.01522727  0.85328357  1
  O  O103  1  0.63436466  0.52999509  0.33881478  1
  O  O104  1  0.63010073  0.52910922  0.83562493  1
  O  O105  1  0.38944988  0.02084097  0.89652884  1
  O  O106  1  0.89404039  0.01084946  0.89342245  1
  O  O107  1  0.88898976  0.51894363  0.40132120  1
  O  O108  1  0.89035928  0.51324271  0.89721792  1
  O  O109  1  0.09598399  0.46851802  0.12636539  1
  O  O110  1  0.09534306  0.48285921  0.62085504  1
  O  O111  1  0.10919840  0.97782080  0.10201026  1
  O  O112  1  0.08609186  0.97896132  0.59976692  1
  O  O113  1  0.58276938  0.49397497  0.07527893  1
  O  O114  1  0.57744447  0.49332907  0.56813515  1
  O  O115  1  0.61781857  0.97888720  0.11483543  1
  O  O116  1  0.59326007  0.98672623  0.61529869  1
  O  O117  1  0.99890217  0.37597027  0.31643620  1
  O  O118  1  0.00416902  0.37273934  0.78776707  1
  O  O119  1  0.98903990  0.87867067  0.32081013  1
  O  O120  1  0.00970373  0.87450034  0.77942298  1
  O  O121  1  0.50832492  0.37024026  0.27964438  1
  O  O122  1  0.49563739  0.36981719  0.78233101  1
  O  O123  1  0.47716934  0.88501973  0.28688679  1
  O  O124  1  0.47996473  0.87728197  0.76980390  1
  O  O125  1  0.50182573  0.12179253  0.21032201  1
  O  O126  1  0.47592398  0.13066438  0.70288880  1
  O  O127  1  0.99296578  0.12451376  0.73408829  1
  O  O128  1  0.00291951  0.62619784  0.22755558  1
  O  O129  1  0.99569741  0.62854263  0.72128915  1
  O  O130  1  0.21135136  0.14884583  0.02928927  1
  O  O131  1  0.20499745  0.13039137  0.54689536  1
  O  O132  1  0.22346782  0.62851646  0.03385448  1
  O  O133  1  0.23201278  0.63142683  0.52916788  1
  O  O134  1  0.75170090  0.12248006  0.03615167  1
  O  O135  1  0.75537034  0.11917111  0.53748970  1
  O  O136  1  0.75429184  0.62619177  0.04121729  1
  O  O137  1  0.74042745  0.62614332  0.54189180  1
  O  O138  1  0.28336695  0.37320218  0.48362596  1
  O  O139  1  0.27558033  0.37554057  0.97741314  1
  O  O140  1  0.27165264  0.87855170  0.47810519  1
  O  O141  1  0.29015072  0.85376934  0.97973384  1
  O  O142  1  0.74539630  0.37547439  0.46077068  1
  O  O143  1  0.74853056  0.37284645  0.97011981  1
  O  O144  1  0.75092757  0.87665964  0.46209446  1
  O  O145  1  0.76097726  0.87602778  0.97171997  1
