# generated using pymatgen
data_SrCa7Mn7CrO23
_symmetry_space_group_name_H-M   'P 1'
_cell_length_a   10.88615615
_cell_length_b   15.41378681
_cell_length_c   10.79068862
_cell_angle_alpha   90.08686459
_cell_angle_beta   90.23768130
_cell_angle_gamma   90.09195199
_symmetry_Int_Tables_number   1
_chemical_formula_structural   SrCa7Mn7CrO23
_chemical_formula_sum   'Sr4 Ca28 Mn28 Cr4 O92'
_cell_volume   1810.62398118
_cell_formula_units_Z   4
loop_
 _symmetry_equiv_pos_site_id
 _symmetry_equiv_pos_as_xyz
  1  'x, y, z'
loop_
 _atom_site_type_symbol
 _atom_site_label
 _atom_site_symmetry_multiplicity
 _atom_site_fract_x
 _atom_site_fract_y
 _atom_site_fract_z
 _atom_site_occupancy
  Sr  Sr0  1  0.01276698  0.11929055  0.50491835  1
  Sr  Sr1  1  0.49843073  0.38158889  0.99748453  1
  Sr  Sr2  1  0.23819922  0.38434492  0.25497386  1
  Sr  Sr3  1  0.24603195  0.11715555  0.26380606  1
  Ca  Ca4  1  0.00963224  0.11611199  0.99066170  1
  Ca  Ca5  1  0.02004452  0.62652145  0.49616823  1
  Ca  Ca6  1  0.02006492  0.62654194  0.99459691  1
  Ca  Ca7  1  0.52517136  0.12952152  0.50682964  1
  Ca  Ca8  1  0.53868717  0.12066355  0.97386286  1
  Ca  Ca9  1  0.52488407  0.62506711  0.49808756  1
  Ca  Ca10  1  0.52102904  0.62541353  0.99448381  1
  Ca  Ca11  1  0.48030621  0.38507175  0.50996432  1
  Ca  Ca12  1  0.48657254  0.86792773  0.99664150  1
  Ca  Ca13  1  0.48199613  0.86454476  0.51563784  1
  Ca  Ca14  1  0.96550142  0.38564221  0.00033816  1
  Ca  Ca15  1  0.97621750  0.37891610  0.50403645  1
  Ca  Ca16  1  0.97450716  0.87243777  0.00425089  1
  Ca  Ca17  1  0.97276251  0.87314530  0.50594137  1
  Ca  Ca18  1  0.22495711  0.38064132  0.72314939  1
  Ca  Ca19  1  0.22484217  0.87123215  0.24649274  1
  Ca  Ca20  1  0.22690283  0.86962474  0.74443474  1
  Ca  Ca21  1  0.73833846  0.38726482  0.24722017  1
  Ca  Ca22  1  0.72761549  0.38016232  0.74751755  1
  Ca  Ca23  1  0.73532521  0.86530073  0.24850760  1
  Ca  Ca24  1  0.72882728  0.87235798  0.74507674  1
  Ca  Ca25  1  0.27025012  0.11377238  0.73054259  1
  Ca  Ca26  1  0.27276607  0.62753807  0.25598142  1
  Ca  Ca27  1  0.27151542  0.62594731  0.75511585  1
  Ca  Ca28  1  0.77489051  0.11813520  0.25325137  1
  Ca  Ca29  1  0.77348612  0.12350162  0.75574877  1
  Ca  Ca30  1  0.77206536  0.62522011  0.25457316  1
  Ca  Ca31  1  0.77120771  0.62610222  0.75462793  1
  Mn  Mn32  1  0.99683572  0.99596309  0.75386265  1
  Mn  Mn33  1  0.00044224  0.50247230  0.24984442  1
  Mn  Mn34  1  0.00036035  0.50141957  0.74929510  1
  Mn  Mn35  1  0.50898551  0.98396471  0.23993142  1
  Mn  Mn36  1  0.50043596  0.99789115  0.74803670  1
  Mn  Mn37  1  0.50125482  0.50599764  0.25096389  1
  Mn  Mn38  1  0.49956302  0.50319794  0.74856760  1
  Mn  Mn39  1  0.24117743  0.99053547  0.50603611  1
  Mn  Mn40  1  0.24914744  0.50684483  0.00087223  1
  Mn  Mn41  1  0.24988133  0.50471296  0.50084020  1
  Mn  Mn42  1  0.75120088  0.99719710  0.99605171  1
  Mn  Mn43  1  0.74446826  0.99927893  0.50106743  1
  Mn  Mn44  1  0.74996566  0.50494477  0.00050722  1
  Mn  Mn45  1  0.75114522  0.50151185  0.50088693  1
  Mn  Mn46  1  0.25002258  0.25043942  0.49658310  1
  Mn  Mn47  1  0.24985866  0.74984008  0.00317379  1
  Mn  Mn48  1  0.25034121  0.74912453  0.49996636  1
  Mn  Mn49  1  0.75252366  0.24921035  0.00026137  1
  Mn  Mn50  1  0.74883563  0.25078799  0.50364888  1
  Mn  Mn51  1  0.74986397  0.74963892  0.99981497  1
  Mn  Mn52  1  0.75049588  0.74880084  0.50045170  1
  Mn  Mn53  1  0.99294771  0.25273173  0.74664930  1
  Mn  Mn54  1  0.00054966  0.74863117  0.24928110  1
  Mn  Mn55  1  0.00044734  0.74949638  0.75018958  1
  Mn  Mn56  1  0.52162476  0.25806299  0.26481498  1
  Mn  Mn57  1  0.50327513  0.25062160  0.74106084  1
  Mn  Mn58  1  0.49954867  0.74868411  0.25239155  1
  Mn  Mn59  1  0.50021986  0.74822308  0.75193811  1
  Cr  Cr60  1  0.99454976  0.99519292  0.24831292  1
  Cr  Cr61  1  0.25130966  0.99190931  0.99546443  1
  Cr  Cr62  1  0.25805400  0.24238595  0.95911214  1
  Cr  Cr63  1  0.98510095  0.25132693  0.26496745  1
  O  O64  1  0.10093926  0.26828555  0.60307967  1
  O  O65  1  0.10647167  0.77445433  0.10463047  1
  O  O66  1  0.10555443  0.77278066  0.60292417  1
  O  O67  1  0.59222381  0.25075137  0.10660570  1
  O  O68  1  0.59697945  0.26754805  0.59378694  1
  O  O69  1  0.60779906  0.77323546  0.10888988  1
  O  O70  1  0.60795650  0.76623838  0.60733483  1
  O  O71  1  0.39737363  0.22108530  0.37000014  1
  O  O72  1  0.40428059  0.23246264  0.89953703  1
  O  O73  1  0.39634134  0.72613736  0.39753400  1
  O  O74  1  0.39676986  0.73150908  0.89854106  1
  O  O75  1  0.89064514  0.22977015  0.40252916  1
  O  O76  1  0.90228675  0.23580686  0.90423323  1
  O  O77  1  0.89621707  0.73079742  0.39501536  1
  O  O78  1  0.89534697  0.72945952  0.89555863  1
  O  O79  1  0.14456742  0.24225002  0.34613176  1
  O  O80  1  0.15370541  0.22755603  0.84209065  1
  O  O81  1  0.14694221  0.73173769  0.35156563  1
  O  O82  1  0.14695523  0.73151925  0.85341879  1
  O  O83  1  0.65278008  0.21907572  0.35582012  1
  O  O84  1  0.64720101  0.22975281  0.85250389  1
  O  O85  1  0.64689853  0.72810377  0.35455869  1
  O  O86  1  0.64451693  0.72903561  0.85635660  1
  O  O87  1  0.35136456  0.26249490  0.64736002  1
  O  O88  1  0.35767680  0.77502552  0.14635067  1
  O  O89  1  0.35511053  0.76929927  0.64629378  1
  O  O90  1  0.85961046  0.27579807  0.14193062  1
  O  O91  1  0.84857157  0.27269839  0.64975998  1
  O  O92  1  0.85756468  0.76978173  0.14380030  1
  O  O93  1  0.85657138  0.77147674  0.64487937  1
  O  O94  1  0.36117907  0.48777907  0.13986177  1
  O  O95  1  0.35552954  0.48523718  0.64442313  1
  O  O96  1  0.35569325  0.99075228  0.15780935  1
  O  O97  1  0.35426395  0.97854231  0.64523944  1
  O  O98  1  0.85805949  0.48344670  0.14367096  1
  O  O99  1  0.85611319  0.47861132  0.64531691  1
  O  O100  1  0.85247545  0.97875629  0.14717938  1
  O  O101  1  0.85226128  0.97829477  0.64546808  1
  O  O102  1  0.13655390  0.00452470  0.35928801  1
  O  O103  1  0.14579424  0.02503757  0.86116040  1
  O  O104  1  0.14639000  0.52248377  0.35339429  1
  O  O105  1  0.14801482  0.51592283  0.85174672  1
  O  O106  1  0.62055517  0.03067631  0.35535207  1
  O  O107  1  0.64795808  0.01954080  0.84988006  1
  O  O108  1  0.64634152  0.52111427  0.35553430  1
  O  O109  1  0.64371651  0.52049098  0.85636310  1
  O  O110  1  0.39174448  0.02260018  0.90110957  1
  O  O111  1  0.39499352  0.52205373  0.39529138  1
  O  O112  1  0.39421273  0.51647548  0.89400820  1
  O  O113  1  0.88183502  0.01837227  0.38739574  1
  O  O114  1  0.89498286  0.01400288  0.89887156  1
  O  O115  1  0.89626587  0.52036946  0.39518728  1
  O  O116  1  0.89581375  0.51877321  0.89656614  1
  O  O117  1  0.10429042  0.48136417  0.10262406  1
  O  O118  1  0.10419730  0.48069831  0.60310069  1
  O  O119  1  0.10945946  0.98428433  0.10214912  1
  O  O120  1  0.09991327  0.97839429  0.61598859  1
  O  O121  1  0.61351656  0.48665734  0.11280531  1
  O  O122  1  0.60731858  0.48397359  0.60465557  1
  O  O123  1  0.60345099  0.98644074  0.09301255  1
  O  O124  1  0.59723579  0.98108600  0.59872263  1
  O  O125  1  0.00759164  0.37836783  0.28390565  1
  O  O126  1  0.01348693  0.37554866  0.78916981  1
  O  O127  1  0.00327935  0.87365196  0.28600277  1
  O  O128  1  0.01087375  0.87341484  0.79299496  1
  O  O129  1  0.50134300  0.37946264  0.28022397  1
  O  O130  1  0.50719545  0.37535089  0.77234106  1
  O  O131  1  0.51049268  0.87119809  0.30134208  1
  O  O132  1  0.50990773  0.87435402  0.78504256  1
  O  O133  1  0.48969301  0.12392984  0.71857757  1
  O  O134  1  0.49042559  0.62892477  0.20929903  1
  O  O135  1  0.48967253  0.62583594  0.71351732  1
  O  O136  1  0.99846571  0.12412720  0.21479454  1
  O  O137  1  0.98817711  0.12523963  0.72729818  1
  O  O138  1  0.99069732  0.62632001  0.20924634  1
  O  O139  1  0.99008133  0.62520466  0.71178110  1
  O  O140  1  0.23449943  0.15274977  0.04937264  1
  O  O141  1  0.25728918  0.11632956  0.51360676  1
  O  O142  1  0.23823811  0.63154871  0.03933065  1
  O  O143  1  0.23653233  0.62736988  0.54046683  1
  O  O144  1  0.75025292  0.12341035  0.03621966  1
  O  O145  1  0.74227776  0.12427369  0.54324187  1
  O  O146  1  0.74081401  0.62733461  0.03870043  1
  O  O147  1  0.74461028  0.62522209  0.53951868  1
  O  O148  1  0.26514738  0.37754027  0.47736776  1
  O  O149  1  0.24845294  0.34611872  0.01256012  1
  O  O150  1  0.27020660  0.87351031  0.45811274  1
  O  O151  1  0.26510552  0.87829384  0.96125526  1
  O  O152  1  0.75570971  0.37538204  0.46097631  1
  O  O153  1  0.74643174  0.37602667  0.96694112  1
  O  O154  1  0.75402845  0.87457462  0.46190062  1
  O  O155  1  0.75665569  0.87379284  0.96081084  1
