# generated using pymatgen
data_SrCa7TiMn7O24
_symmetry_space_group_name_H-M   'P 1'
_cell_length_a   10.86911127
_cell_length_b   15.23740215
_cell_length_c   10.73663429
_cell_angle_alpha   90.00695867
_cell_angle_beta   90.02352602
_cell_angle_gamma   89.99006106
_symmetry_Int_Tables_number   1
_chemical_formula_structural   SrCa7TiMn7O24
_chemical_formula_sum   'Sr4 Ca28 Ti4 Mn28 O96'
_cell_volume   1778.16917891
_cell_formula_units_Z   4
loop_
 _symmetry_equiv_pos_site_id
 _symmetry_equiv_pos_as_xyz
  1  'x, y, z'
loop_
 _atom_site_type_symbol
 _atom_site_label
 _atom_site_symmetry_multiplicity
 _atom_site_fract_x
 _atom_site_fract_y
 _atom_site_fract_z
 _atom_site_occupancy
  Sr  Sr0  1  0.01540963  0.12466243  0.49819878  1
  Sr  Sr1  1  0.48527995  0.37661118  0.00179703  1
  Sr  Sr2  1  0.23445203  0.37722691  0.24730142  1
  Sr  Sr3  1  0.26815733  0.12448503  0.25489185  1
  Ca  Ca4  1  0.01794708  0.12467150  0.99438644  1
  Ca  Ca5  1  0.02295245  0.62516742  0.49561366  1
  Ca  Ca6  1  0.02275799  0.62519819  0.99620989  1
  Ca  Ca7  1  0.52317478  0.12480125  0.49583687  1
  Ca  Ca8  1  0.52389869  0.12493129  0.99488970  1
  Ca  Ca9  1  0.52292346  0.62524258  0.49526746  1
  Ca  Ca10  1  0.52278209  0.62513685  0.99576785  1
  Ca  Ca11  1  0.47843811  0.37491768  0.50628751  1
  Ca  Ca12  1  0.47886182  0.87324194  0.00411921  1
  Ca  Ca13  1  0.47774636  0.87501167  0.50550218  1
  Ca  Ca14  1  0.97741529  0.37596215  0.00359632  1
  Ca  Ca15  1  0.97656555  0.37588443  0.50480154  1
  Ca  Ca16  1  0.97680879  0.87394641  0.00381523  1
  Ca  Ca17  1  0.97710895  0.87407676  0.50435997  1
  Ca  Ca18  1  0.22704665  0.37583917  0.74367653  1
  Ca  Ca19  1  0.22861184  0.87254427  0.24609911  1
  Ca  Ca20  1  0.22726086  0.87410027  0.74473855  1
  Ca  Ca21  1  0.72884546  0.37507765  0.24703639  1
  Ca  Ca22  1  0.72765638  0.37468678  0.74470791  1
  Ca  Ca23  1  0.72751073  0.87491955  0.24601309  1
  Ca  Ca24  1  0.72731354  0.87526917  0.74486441  1
  Ca  Ca25  1  0.27361795  0.12451932  0.75386225  1
  Ca  Ca26  1  0.27277001  0.62535203  0.25353997  1
  Ca  Ca27  1  0.27335936  0.62543572  0.75442627  1
  Ca  Ca28  1  0.76634427  0.12479940  0.25294805  1
  Ca  Ca29  1  0.77226993  0.12505202  0.75606218  1
  Ca  Ca30  1  0.77264786  0.62511661  0.25440981  1
  Ca  Ca31  1  0.77253865  0.62494775  0.75481096  1
  Ti  Ti32  1  0.99697384  0.99703405  0.24954320  1
  Ti  Ti33  1  0.25047193  0.99777838  0.99769025  1
  Ti  Ti34  1  0.24916843  0.25029636  0.99660251  1
  Ti  Ti35  1  0.99589767  0.25226696  0.24989626  1
  Mn  Mn36  1  0.00005469  0.99940289  0.75060410  1
  Mn  Mn37  1  0.99944315  0.50200770  0.25085513  1
  Mn  Mn38  1  0.99964314  0.50037634  0.74973306  1
  Mn  Mn39  1  0.50118405  0.99841198  0.25156931  1
  Mn  Mn40  1  0.50173932  0.00014128  0.74982699  1
  Mn  Mn41  1  0.50202518  0.50218298  0.25089684  1
  Mn  Mn42  1  0.50048521  0.50099286  0.74793974  1
  Mn  Mn43  1  0.25222822  0.99867873  0.50172499  1
  Mn  Mn44  1  0.24940764  0.50247439  0.99702103  1
  Mn  Mn45  1  0.25012485  0.50113297  0.50232723  1
  Mn  Mn46  1  0.74841254  0.99862631  0.99948298  1
  Mn  Mn47  1  0.74810454  0.99930204  0.50125745  1
  Mn  Mn48  1  0.75193927  0.50133805  0.00086482  1
  Mn  Mn49  1  0.74991570  0.50056295  0.50044777  1
  Mn  Mn50  1  0.25164730  0.25037031  0.50339456  1
  Mn  Mn51  1  0.25024264  0.74882500  0.99838989  1
  Mn  Mn52  1  0.25057697  0.74983508  0.50037673  1
  Mn  Mn53  1  0.74994572  0.25012799  0.00001146  1
  Mn  Mn54  1  0.74804330  0.25025950  0.50151763  1
  Mn  Mn55  1  0.75028889  0.75002949  0.00012941  1
  Mn  Mn56  1  0.74982734  0.74977972  0.50011036  1
  Mn  Mn57  1  0.99984526  0.25033792  0.75049269  1
  Mn  Mn58  1  0.00043193  0.74859184  0.25067559  1
  Mn  Mn59  1  0.99974028  0.74984198  0.74988538  1
  Mn  Mn60  1  0.50249953  0.24932906  0.25193990  1
  Mn  Mn61  1  0.50140621  0.24867384  0.74795768  1
  Mn  Mn62  1  0.50028665  0.75018139  0.25044302  1
  Mn  Mn63  1  0.50065637  0.75003258  0.74992908  1
  O  O64  1  0.10524171  0.26662098  0.10509505  1
  O  O65  1  0.10451397  0.27128647  0.60599239  1
  O  O66  1  0.10465375  0.77063080  0.10328110  1
  O  O67  1  0.10402714  0.77034724  0.60300930  1
  O  O68  1  0.60898663  0.26638041  0.10735316  1
  O  O69  1  0.60408829  0.26970114  0.60197347  1
  O  O70  1  0.60424878  0.77026035  0.10328225  1
  O  O71  1  0.60400707  0.77033670  0.60301673  1
  O  O72  1  0.39836096  0.23237475  0.39872301  1
  O  O73  1  0.39549787  0.23048050  0.88920941  1
  O  O74  1  0.39596448  0.72946827  0.39701273  1
  O  O75  1  0.39656243  0.72903559  0.89664795  1
  O  O76  1  0.88584323  0.23522280  0.39176322  1
  O  O77  1  0.89571746  0.23097536  0.89774798  1
  O  O78  1  0.89605152  0.72897686  0.39732208  1
  O  O79  1  0.89614775  0.72968920  0.89709272  1
  O  O80  1  0.14083877  0.23706476  0.36212200  1
  O  O81  1  0.14277528  0.23160544  0.85177951  1
  O  O82  1  0.14654885  0.72915635  0.35312401  1
  O  O83  1  0.14603580  0.72911071  0.85255355  1
  O  O84  1  0.64601263  0.22958253  0.35473732  1
  O  O85  1  0.64583503  0.23009864  0.85318686  1
  O  O86  1  0.64622114  0.72942474  0.35310479  1
  O  O87  1  0.64598400  0.72940120  0.85302055  1
  O  O88  1  0.36175028  0.26334880  0.14126025  1
  O  O89  1  0.35384978  0.26945082  0.64853558  1
  O  O90  1  0.35488727  0.77031224  0.14638941  1
  O  O91  1  0.35415885  0.77030155  0.64709689  1
  O  O92  1  0.85369495  0.26909685  0.14166564  1
  O  O93  1  0.85454622  0.27001648  0.64631427  1
  O  O94  1  0.85374770  0.77061702  0.14668790  1
  O  O95  1  0.85402184  0.77055535  0.64709009  1
  O  O96  1  0.35808775  0.48703968  0.14269284  1
  O  O97  1  0.35388013  0.48113863  0.64752191  1
  O  O98  1  0.35814584  0.98001252  0.14556753  1
  O  O99  1  0.35408993  0.97908021  0.64819974  1
  O  O100  1  0.85433433  0.47985145  0.14643355  1
  O  O101  1  0.85401264  0.47951144  0.64705265  1
  O  O102  1  0.85298355  0.98035609  0.14204600  1
  O  O103  1  0.85449852  0.97991807  0.64631264  1
  O  O104  1  0.14218370  0.01179665  0.36049575  1
  O  O105  1  0.14294150  0.01752864  0.85249981  1
  O  O106  1  0.14461809  0.52228417  0.35511441  1
  O  O107  1  0.14558749  0.52165408  0.85173679  1
  O  O108  1  0.64587044  0.01989487  0.35360869  1
  O  O109  1  0.64663076  0.02058045  0.85236384  1
  O  O110  1  0.64632034  0.52107857  0.35433035  1
  O  O111  1  0.64510854  0.51990318  0.85392840  1
  O  O112  1  0.39899200  0.01809744  0.39921275  1
  O  O113  1  0.39675710  0.01833119  0.89208043  1
  O  O114  1  0.39530679  0.52001021  0.39671651  1
  O  O115  1  0.39476411  0.52260749  0.89359436  1
  O  O116  1  0.88627374  0.01401787  0.39165179  1
  O  O117  1  0.89566012  0.01883944  0.89782894  1
  O  O118  1  0.89537193  0.52164890  0.39756915  1
  O  O119  1  0.89612079  0.52049374  0.89697431  1
  O  O120  1  0.10216362  0.48220373  0.10176843  1
  O  O121  1  0.10337751  0.48007032  0.60368222  1
  O  O122  1  0.10674216  0.98112348  0.10592817  1
  O  O123  1  0.10517735  0.97823066  0.60531197  1
  O  O124  1  0.61007390  0.48460755  0.10877494  1
  O  O125  1  0.60438030  0.48071877  0.60198977  1
  O  O126  1  0.60325781  0.97886960  0.10200802  1
  O  O127  1  0.60367123  0.97918514  0.60300452  1
  O  O128  1  0.00110887  0.37871705  0.28512666  1
  O  O129  1  0.00988359  0.37545720  0.78925985  1
  O  O130  1  0.00734264  0.87120453  0.28516069  1
  O  O131  1  0.01015565  0.87450856  0.78955550  1
  O  O132  1  0.50962019  0.37562343  0.28770687  1
  O  O133  1  0.51067006  0.37514608  0.77900857  1
  O  O134  1  0.51124042  0.87442196  0.29037254  1
  O  O135  1  0.51052248  0.87487951  0.78963500  1
  O  O136  1  0.49813706  0.12364812  0.21205501  1
  O  O137  1  0.49086495  0.12450809  0.70936121  1
  O  O138  1  0.49044606  0.62649906  0.21165219  1
  O  O139  1  0.49030221  0.62542861  0.70953847  1
  O  O140  1  0.99301970  0.12459763  0.21782916  1
  O  O141  1  0.98802648  0.12491574  0.72018522  1
  O  O142  1  0.98899146  0.62537289  0.20998046  1
  O  O143  1  0.98936174  0.62506831  0.71034049  1
  O  O144  1  0.24040608  0.12419638  0.02524589  1
  O  O145  1  0.24718876  0.12468255  0.53837272  1
  O  O146  1  0.23892786  0.62599079  0.03922341  1
  O  O147  1  0.24004162  0.62535158  0.54024304  1
  O  O148  1  0.74124687  0.12420435  0.03839809  1
  O  O149  1  0.74078012  0.12478823  0.54033563  1
  O  O150  1  0.74054103  0.62584208  0.03902994  1
  O  O151  1  0.73970797  0.62518737  0.53991809  1
  O  O152  1  0.26125886  0.37587922  0.47109520  1
  O  O153  1  0.25271543  0.37788060  0.96468576  1
  O  O154  1  0.26124110  0.87406932  0.46107155  1
  O  O155  1  0.25867383  0.87227527  0.96294755  1
  O  O156  1  0.75932067  0.37591331  0.46194766  1
  O  O157  1  0.75780611  0.37546940  0.96101698  1
  O  O158  1  0.75955932  0.87402776  0.46136909  1
  O  O159  1  0.75952580  0.87453961  0.95978672  1
