# generated using pymatgen
data_Ca8Ti3Mn5O20
_symmetry_space_group_name_H-M   'P 1'
_cell_length_a   7.85872767
_cell_length_b   7.94147426
_cell_length_c   8.04806866
_cell_angle_alpha   89.96595721
_cell_angle_beta   89.37414973
_cell_angle_gamma   89.98981716
_symmetry_Int_Tables_number   1
_chemical_formula_structural   Ca8Ti3Mn5O20
_chemical_formula_sum   'Ca8 Ti3 Mn5 O20'
_cell_volume   502.24896709
_cell_formula_units_Z   1
loop_
 _symmetry_equiv_pos_site_id
 _symmetry_equiv_pos_as_xyz
  1  'x, y, z'
loop_
 _atom_site_type_symbol
 _atom_site_label
 _atom_site_symmetry_multiplicity
 _atom_site_fract_x
 _atom_site_fract_y
 _atom_site_fract_z
 _atom_site_occupancy
  Ca  Ca0  1  0.24758200  0.27761000  0.25718500  1
  Ca  Ca1  1  0.21893600  0.30470600  0.70648000  1
  Ca  Ca2  1  0.23474800  0.73350900  0.28468200  1
  Ca  Ca3  1  0.25270200  0.71429300  0.83005600  1
  Ca  Ca4  1  0.73392300  0.25465600  0.26012900  1
  Ca  Ca5  1  0.70224100  0.29862100  0.70421200  1
  Ca  Ca6  1  0.75547400  0.74975600  0.30965100  1
  Ca  Ca7  1  0.76629500  0.69881900  0.78484700  1
  Ti  Ti8  1  0.00139600  0.01230300  0.96900200  1
  Ti  Ti9  1  0.99265600  0.00659700  0.52281300  1
  Ti  Ti10  1  0.55137400  0.99465800  0.98333100  1
  Mn  Mn11  1  0.99063600  0.47766600  0.01958500  1
  Mn  Mn12  1  0.98515800  0.51207400  0.50647400  1
  Mn  Mn13  1  0.49300500  0.01683900  0.49552100  1
  Mn  Mn14  1  0.48996900  0.48470200  0.00579300  1
  Mn  Mn15  1  0.48347500  0.52571800  0.50588100  1
  O  O16  1  0.99410700  0.93233600  0.75364200  1
  O  O17  1  0.92766400  0.47594900  0.25175000  1
  O  O18  1  0.02727300  0.54877900  0.78568500  1
  O  O19  1  0.78073200  0.97475300  0.05501600  1
  O  O20  1  0.54010400  0.04150000  0.76270000  1
  O  O21  1  0.43861900  0.48721400  0.75916300  1
  O  O22  1  0.16415200  0.88847500  0.05590800  1
  O  O23  1  0.21601700  0.05468300  0.44934000  1
  O  O24  1  0.23995000  0.52251700  0.07444700  1
  O  O25  1  0.24514300  0.48572100  0.46119700  1
  O  O26  1  0.77467700  0.01688000  0.41820900  1
  O  O27  1  0.74434400  0.45854600  0.96484700  1
  O  O28  1  0.72562800  0.55538600  0.54993900  1
  O  O29  1  0.06834500  0.22566300  0.99094100  1
  O  O30  1  0.96157800  0.24614400  0.58219700  1
  O  O31  1  0.00363900  0.77752700  0.45218300  1
  O  O32  1  0.48266000  0.18205800  0.10171800  1
  O  O33  1  0.52527900  0.28021200  0.46059500  1
  O  O34  1  0.50847900  0.76883300  0.99956900  1
  O  O35  1  0.48204100  0.76429800  0.42531200  1
