# generated using pymatgen
data_SrCa7Mn6Cr2O20
_symmetry_space_group_name_H-M   'P 1'
_cell_length_a   7.86685896
_cell_length_b   7.85918304
_cell_length_c   7.64952685
_cell_angle_alpha   88.46811758
_cell_angle_beta   88.55332731
_cell_angle_gamma   90.68462307
_symmetry_Int_Tables_number   1
_chemical_formula_structural   SrCa7Mn6Cr2O20
_chemical_formula_sum   'Sr1 Ca7 Mn6 Cr2 O20'
_cell_volume   472.59050763
_cell_formula_units_Z   1
loop_
 _symmetry_equiv_pos_site_id
 _symmetry_equiv_pos_as_xyz
  1  'x, y, z'
loop_
 _atom_site_type_symbol
 _atom_site_label
 _atom_site_symmetry_multiplicity
 _atom_site_fract_x
 _atom_site_fract_y
 _atom_site_fract_z
 _atom_site_occupancy
  Sr  Sr0  1  0.24702700  0.25723900  0.25701500  1
  Ca  Ca1  1  0.27165900  0.28102600  0.70038600  1
  Ca  Ca2  1  0.25176400  0.73195100  0.26860700  1
  Ca  Ca3  1  0.25710500  0.71970200  0.70995300  1
  Ca  Ca4  1  0.73423300  0.25474400  0.26230800  1
  Ca  Ca5  1  0.72016800  0.26205400  0.71472700  1
  Ca  Ca6  1  0.74115700  0.74567500  0.27029500  1
  Ca  Ca7  1  0.72786200  0.73392000  0.72463600  1
  Mn  Mn8  1  0.00106800  0.00085800  0.52215000  1
  Mn  Mn9  1  0.99673400  0.48920100  0.00114100  1
  Mn  Mn10  1  0.99758600  0.50732700  0.49292300  1
  Mn  Mn11  1  0.50751000  0.00039900  0.49270700  1
  Mn  Mn12  1  0.50288600  0.50568600  0.99677800  1
  Mn  Mn13  1  0.50472700  0.50456800  0.48879000  1
  Cr  Cr14  1  0.02832900  0.01803500  0.98036200  1
  Cr  Cr15  1  0.47399500  0.99621500  0.00438500  1
  O  O16  1  0.93963700  0.92739800  0.79255400  1
  O  O17  1  0.01341000  0.53215600  0.24266000  1
  O  O18  1  0.00461300  0.52122200  0.74864800  1
  O  O19  1  0.54480600  0.01316900  0.24158800  1
  O  O20  1  0.52546900  0.99985500  0.75178700  1
  O  O21  1  0.50329500  0.50778100  0.74267900  1
  O  O22  1  0.23331900  0.95626600  0.06162400  1
  O  O23  1  0.25044000  0.00309600  0.51477700  1
  O  O24  1  0.25361900  0.51069800  0.00698600  1
  O  O25  1  0.26154500  0.50294800  0.48385500  1
  O  O26  1  0.76281900  0.00695200  0.47715100  1
  O  O27  1  0.74840900  0.51524000  0.02874000  1
  O  O28  1  0.74364300  0.50195200  0.47534100  1
  O  O29  1  0.95857100  0.21760600  0.05781000  1
  O  O30  1  0.00553800  0.24944200  0.51878500  1
  O  O31  1  0.00691300  0.76368200  0.46870200  1
  O  O32  1  0.50482300  0.25507900  0.00906300  1
  O  O33  1  0.50091500  0.26252100  0.48534800  1
  O  O34  1  0.52371400  0.75019100  0.03255900  1
  O  O35  1  0.50069100  0.74414800  0.47218100  1
