# generated using pymatgen
data_SrCa7Ti2Mn6O22
_symmetry_space_group_name_H-M   'P 1'
_cell_length_a   10.92256654
_cell_length_b   15.77436492
_cell_length_c   10.88903910
_cell_angle_alpha   89.97552677
_cell_angle_beta   91.08859993
_cell_angle_gamma   90.28401354
_symmetry_Int_Tables_number   1
_chemical_formula_structural   SrCa7Ti2Mn6O22
_chemical_formula_sum   'Sr4 Ca28 Ti8 Mn24 O88'
_cell_volume   1875.78210433
_cell_formula_units_Z   4
loop_
 _symmetry_equiv_pos_site_id
 _symmetry_equiv_pos_as_xyz
  1  'x, y, z'
loop_
 _atom_site_type_symbol
 _atom_site_label
 _atom_site_symmetry_multiplicity
 _atom_site_fract_x
 _atom_site_fract_y
 _atom_site_fract_z
 _atom_site_occupancy
  Sr  Sr0  1  0.98840022  0.11692814  0.51205796  1
  Sr  Sr1  1  0.50175358  0.39090562  0.00179026  1
  Sr  Sr2  1  0.24331183  0.39298848  0.24751814  1
  Sr  Sr3  1  0.22366525  0.11992676  0.22637993  1
  Ca  Ca4  1  0.98022773  0.11472163  0.01296581  1
  Ca  Ca5  1  0.01106366  0.62589358  0.49571959  1
  Ca  Ca6  1  0.01273371  0.62672261  0.99654755  1
  Ca  Ca7  1  0.54603930  0.12387745  0.48396191  1
  Ca  Ca8  1  0.54587283  0.11950936  0.98383627  1
  Ca  Ca9  1  0.52340298  0.62485089  0.49991785  1
  Ca  Ca10  1  0.52320498  0.62482756  0.00134417  1
  Ca  Ca11  1  0.49783596  0.39445182  0.50435799  1
  Ca  Ca12  1  0.49898441  0.85276395  0.99750696  1
  Ca  Ca13  1  0.49758415  0.85412178  0.49816826  1
  Ca  Ca14  1  0.96519331  0.39438128  0.00029120  1
  Ca  Ca15  1  0.96199702  0.39313571  0.49861202  1
  Ca  Ca16  1  0.96631022  0.86321252  0.00772360  1
  Ca  Ca17  1  0.96597552  0.86382004  0.50931691  1
  Ca  Ca18  1  0.23609206  0.39768331  0.73622284  1
  Ca  Ca19  1  0.23126982  0.85564155  0.25996813  1
  Ca  Ca20  1  0.23144350  0.85838690  0.75816269  1
  Ca  Ca21  1  0.73628187  0.39890583  0.25664664  1
  Ca  Ca22  1  0.73059073  0.39262124  0.75187033  1
  Ca  Ca23  1  0.72755610  0.85922110  0.24760200  1
  Ca  Ca24  1  0.72896132  0.85894930  0.74761783  1
  Ca  Ca25  1  0.22358298  0.11385403  0.73664124  1
  Ca  Ca26  1  0.26908574  0.62830902  0.25891338  1
  Ca  Ca27  1  0.27038723  0.62871631  0.75914537  1
  Ca  Ca28  1  0.77037563  0.11807892  0.24797593  1
  Ca  Ca29  1  0.77652735  0.11986185  0.75483697  1
  Ca  Ca30  1  0.76812097  0.62513848  0.25382323  1
  Ca  Ca31  1  0.76954353  0.62530158  0.75699767  1
  Ti  Ti32  1  0.98828311  0.98526529  0.26096108  1
  Ti  Ti33  1  0.98899818  0.98653170  0.76104133  1
  Ti  Ti34  1  0.23374387  0.98644727  0.00769783  1
  Ti  Ti35  1  0.23275307  0.99097279  0.51363004  1
  Ti  Ti36  1  0.26438250  0.23504253  0.93287167  1
  Ti  Ti37  1  0.27110215  0.23283988  0.45063863  1
  Ti  Ti38  1  0.97457847  0.25868107  0.27113149  1
  Ti  Ti39  1  0.98655576  0.25877650  0.77491900  1
  Mn  Mn40  1  0.00313274  0.50541698  0.24686603  1
  Mn  Mn41  1  0.00252121  0.50381701  0.74802823  1
  Mn  Mn42  1  0.50293581  0.98878840  0.22955704  1
  Mn  Mn43  1  0.50577511  0.98827533  0.73509829  1
  Mn  Mn44  1  0.49878726  0.50740462  0.25238409  1
  Mn  Mn45  1  0.49674910  0.50730731  0.75068337  1
  Mn  Mn46  1  0.24994099  0.51207299  0.00028564  1
  Mn  Mn47  1  0.24825501  0.51323502  0.50406207  1
  Mn  Mn48  1  0.74558781  0.99356039  0.99377626  1
  Mn  Mn49  1  0.73999161  0.99507708  0.49290042  1
  Mn  Mn50  1  0.75058415  0.50575625  0.00117384  1
  Mn  Mn51  1  0.74901719  0.50644555  0.50484150  1
  Mn  Mn52  1  0.25023356  0.74767282  0.00790357  1
  Mn  Mn53  1  0.24901050  0.74940221  0.50740416  1
  Mn  Mn54  1  0.74808800  0.25164255  0.00568719  1
  Mn  Mn55  1  0.74453820  0.25259369  0.50701388  1
  Mn  Mn56  1  0.75145267  0.74532843  0.00088908  1
  Mn  Mn57  1  0.75018139  0.74615553  0.50040694  1
  Mn  Mn58  1  0.00066344  0.74667961  0.25081299  1
  Mn  Mn59  1  0.00177828  0.74595040  0.75064169  1
  Mn  Mn60  1  0.52243547  0.25844571  0.25401250  1
  Mn  Mn61  1  0.51548963  0.25647570  0.75220601  1
  Mn  Mn62  1  0.49864375  0.74545483  0.25403663  1
  Mn  Mn63  1  0.49893080  0.74549323  0.75351182  1
  O  O64  1  0.10776378  0.77828195  0.11016200  1
  O  O65  1  0.11027838  0.77850089  0.60717082  1
  O  O66  1  0.58641478  0.24683317  0.08749019  1
  O  O67  1  0.58475881  0.25619995  0.58488109  1
  O  O68  1  0.60984922  0.76181198  0.11296247  1
  O  O69  1  0.61177698  0.76122429  0.61099115  1
  O  O70  1  0.39750222  0.19101264  0.35464097  1
  O  O71  1  0.39648323  0.18207613  0.85458987  1
  O  O72  1  0.39588006  0.72959682  0.40133336  1
  O  O73  1  0.39308250  0.72869950  0.90461553  1
  O  O74  1  0.90529081  0.24792399  0.41999096  1
  O  O75  1  0.91853588  0.24512789  0.92598950  1
  O  O76  1  0.89752720  0.73079368  0.39317849  1
  O  O77  1  0.89417379  0.73097200  0.89625346  1
  O  O78  1  0.15690523  0.25054034  0.32823232  1
  O  O79  1  0.17347536  0.25592207  0.79022627  1
  O  O80  1  0.14941252  0.73580383  0.35432103  1
  O  O81  1  0.14867102  0.73512497  0.85548251  1
  O  O82  1  0.66129163  0.22308535  0.35609567  1
  O  O83  1  0.66407261  0.22688398  0.85309880  1
  O  O84  1  0.64445028  0.72679045  0.35702393  1
  O  O85  1  0.64450320  0.72677279  0.85981769  1
  O  O86  1  0.35585040  0.76964962  0.14934464  1
  O  O87  1  0.35565293  0.77070548  0.64675632  1
  O  O88  1  0.84311700  0.27206807  0.16160713  1
  O  O89  1  0.85962098  0.27049651  0.66070845  1
  O  O90  1  0.85928096  0.77130762  0.14482147  1
  O  O91  1  0.86075442  0.77034093  0.64371506  1
  O  O92  1  0.36177856  0.49242314  0.13728834  1
  O  O93  1  0.35516953  0.49226527  0.64268670  1
  O  O94  1  0.36469319  0.02756521  0.10895617  1
  O  O95  1  0.35426485  0.01661938  0.63715609  1
  O  O96  1  0.86297113  0.48394117  0.14130495  1
  O  O97  1  0.85926042  0.47981424  0.64341569  1
  O  O98  1  0.85830409  0.97721014  0.14375929  1
  O  O99  1  0.85775855  0.98168682  0.64660930  1
  O  O100  1  0.14623650  0.01523524  0.36451121  1
  O  O101  1  0.15890216  0.00880820  0.85774676  1
  O  O102  1  0.14581772  0.51974429  0.35435845  1
  O  O103  1  0.15174963  0.51668341  0.84886914  1
  O  O104  1  0.63128674  0.02998604  0.34693208  1
  O  O105  1  0.64007030  0.02578767  0.84776958  1
  O  O106  1  0.64180835  0.52394994  0.36306314  1
  O  O107  1  0.64172215  0.52065147  0.85758653  1
  O  O108  1  0.38889849  0.51620676  0.39940928  1
  O  O109  1  0.39335111  0.52106132  0.89439792  1
  O  O110  1  0.88488041  0.01163369  0.38929313  1
  O  O111  1  0.89361068  0.01107360  0.89625398  1
  O  O112  1  0.88925712  0.51581898  0.39448352  1
  O  O113  1  0.89788836  0.51859892  0.88991053  1
  O  O114  1  0.11168094  0.47870308  0.09820189  1
  O  O115  1  0.10814574  0.47501121  0.60089215  1
  O  O116  1  0.10843268  0.98119692  0.11513224  1
  O  O117  1  0.10477521  0.97783883  0.61361219  1
  O  O118  1  0.61666565  0.49442692  0.12020911  1
  O  O119  1  0.60869656  0.48959204  0.61427538  1
  O  O120  1  0.60236900  0.98272781  0.08221154  1
  O  O121  1  0.59538814  0.98565461  0.58086682  1
  O  O122  1  0.00783440  0.37523764  0.27809740  1
  O  O123  1  0.01263429  0.37695774  0.78759631  1
  O  O124  1  0.00795111  0.87385724  0.29522539  1
  O  O125  1  0.00776912  0.87505209  0.79486800  1
  O  O126  1  0.50033675  0.38195989  0.27924406  1
  O  O127  1  0.49383901  0.38108381  0.77145139  1
  O  O128  1  0.50427035  0.86851258  0.28357756  1
  O  O129  1  0.50579421  0.86763677  0.78457970  1
  O  O130  1  0.48418653  0.62709848  0.21548263  1
  O  O131  1  0.48604266  0.62648289  0.71285279  1
  O  O132  1  0.99100283  0.13589655  0.22682675  1
  O  O133  1  0.00193339  0.13198072  0.74036976  1
  O  O134  1  0.99301086  0.62879627  0.21239182  1
  O  O135  1  0.99370617  0.62256602  0.71144013  1
  O  O136  1  0.18643705  0.15193911  0.01388167  1
  O  O137  1  0.21787420  0.14050322  0.53443094  1
  O  O138  1  0.22866304  0.63320299  0.04347721  1
  O  O139  1  0.22869770  0.63375495  0.54305142  1
  O  O140  1  0.75850101  0.12009609  0.03270712  1
  O  O141  1  0.75256229  0.12772561  0.54065610  1
  O  O142  1  0.75003599  0.62634053  0.03796836  1
  O  O143  1  0.75023291  0.62510964  0.54132148  1
  O  O144  1  0.30022181  0.33064204  0.52958363  1
  O  O145  1  0.29065993  0.32786567  0.02271359  1
  O  O146  1  0.27980380  0.88487065  0.46941787  1
  O  O147  1  0.27792393  0.87892862  0.97387513  1
  O  O148  1  0.74303497  0.37843705  0.47284511  1
  O  O149  1  0.74697981  0.38045020  0.97024057  1
  O  O150  1  0.74804775  0.86942192  0.46375508  1
  O  O151  1  0.74976569  0.87012856  0.96164389  1
