# generated using pymatgen
data_Ca8Ti3Mn5O23
_symmetry_space_group_name_H-M   'P 1'
_cell_length_a   7.71507800
_cell_length_b   7.69844100
_cell_length_c   7.71576200
_cell_angle_alpha   90.00000000
_cell_angle_beta   90.00000000
_cell_angle_gamma   90.00000000
_symmetry_Int_Tables_number   1
_chemical_formula_structural   Ca8Ti3Mn5O23
_chemical_formula_sum   'Ca8 Ti3 Mn5 O23'
_cell_volume   458.27052988
_cell_formula_units_Z   1
loop_
 _symmetry_equiv_pos_site_id
 _symmetry_equiv_pos_as_xyz
  1  'x, y, z'
loop_
 _atom_site_type_symbol
 _atom_site_label
 _atom_site_symmetry_multiplicity
 _atom_site_fract_x
 _atom_site_fract_y
 _atom_site_fract_z
 _atom_site_occupancy
  Ca  Ca0  1  0.25963000  0.26719300  0.25179900  1
  Ca  Ca1  1  0.26822200  0.27740300  0.74609600  1
  Ca  Ca2  1  0.25963000  0.73280700  0.25179900  1
  Ca  Ca3  1  0.26822200  0.72259700  0.74609600  1
  Ca  Ca4  1  0.74037000  0.26719300  0.25179900  1
  Ca  Ca5  1  0.73177800  0.27740300  0.74609600  1
  Ca  Ca6  1  0.74037000  0.73280700  0.25179900  1
  Ca  Ca7  1  0.73177800  0.72259700  0.74609600  1
  Ti  Ti8  1  0.00000000  0.00000000  0.98691000  1
  Ti  Ti9  1  0.00000000  0.00000000  0.51255100  1
  Ti  Ti10  1  0.50000000  0.00000000  0.00664500  1
  Mn  Mn11  1  0.00000000  0.50000000  0.00391600  1
  Mn  Mn12  1  0.00000000  0.50000000  0.49469600  1
  Mn  Mn13  1  0.50000000  0.00000000  0.49581200  1
  Mn  Mn14  1  0.50000000  0.50000000  0.00084800  1
  Mn  Mn15  1  0.50000000  0.50000000  0.49726000  1
  O  O16  1  0.00000000  0.00000000  0.75019900  1
  O  O17  1  0.00000000  0.50000000  0.24971700  1
  O  O18  1  0.00000000  0.50000000  0.74897800  1
  O  O19  1  0.50000000  0.00000000  0.25272300  1
  O  O20  1  0.50000000  0.00000000  0.74950300  1
  O  O21  1  0.50000000  0.50000000  0.24862900  1
  O  O22  1  0.50000000  0.50000000  0.74976500  1
  O  O23  1  0.24216100  0.00000000  0.03498700  1
  O  O24  1  0.24531800  0.00000000  0.47476500  1
  O  O25  1  0.25058100  0.50000000  0.99531000  1
  O  O26  1  0.24981800  0.50000000  0.50446300  1
  O  O27  1  0.75783900  0.00000000  0.03498700  1
  O  O28  1  0.75468200  0.00000000  0.47476500  1
  O  O29  1  0.74941900  0.50000000  0.99531000  1
  O  O30  1  0.75018200  0.50000000  0.50446300  1
  O  O31  1  0.00000000  0.24552800  0.02240800  1
  O  O32  1  0.00000000  0.24476000  0.47421600  1
  O  O33  1  0.00000000  0.75447200  0.02240800  1
  O  O34  1  0.00000000  0.75524000  0.47421600  1
  O  O35  1  0.50000000  0.25166600  0.99519700  1
  O  O36  1  0.50000000  0.24960300  0.50378800  1
  O  O37  1  0.50000000  0.74833400  0.99519700  1
  O  O38  1  0.50000000  0.75039700  0.50378800  1
