# generated using pymatgen
data_Ca4Mn2Al2O11
_symmetry_space_group_name_H-M   'P 1'
_cell_length_a   5.28417362
_cell_length_b   5.28417362
_cell_length_c   7.68140900
_cell_angle_alpha   90.00000000
_cell_angle_beta   90.00000000
_cell_angle_gamma   90.00000000
_symmetry_Int_Tables_number   1
_chemical_formula_structural   Ca4Mn2Al2O11
_chemical_formula_sum   'Ca4 Mn2 Al2 O11'
_cell_volume   214.48407253
_cell_formula_units_Z   1
loop_
 _symmetry_equiv_pos_site_id
 _symmetry_equiv_pos_as_xyz
  1  'x, y, z'
loop_
 _atom_site_type_symbol
 _atom_site_label
 _atom_site_symmetry_multiplicity
 _atom_site_fract_x
 _atom_site_fract_y
 _atom_site_fract_z
 _atom_site_occupancy
  Ca  Ca0  1  0.50000000  0.00000000  0.75000000  1
  Ca  Ca1  1  0.50000000  0.00000000  0.25000000  1
  Ca  Ca2  1  0.00000000  0.50000000  0.75000000  1
  Ca  Ca3  1  0.00000000  0.50000000  0.25000000  1
  Mn  Mn4  1  0.50000000  0.50000000  0.99094200  1
  Mn  Mn5  1  0.50000000  0.50000000  0.50905800  1
  Al  Al6  1  0.00000000  0.00000000  0.02276300  1
  Al  Al7  1  0.00000000  0.00000000  0.47723700  1
  O  O8  1  0.00000000  0.00000000  0.25000000  1
  O  O9  1  0.50000000  0.50000000  0.75000000  1
  O  O10  1  0.50000000  0.50000000  0.25000000  1
  O  O11  1  0.75722400  0.75722400  0.98010500  1
  O  O12  1  0.75722400  0.75722400  0.51989500  1
  O  O13  1  0.24277600  0.24277600  0.98010500  1
  O  O14  1  0.24277600  0.24277600  0.51989500  1
  O  O15  1  0.75722400  0.24277600  0.98010500  1
  O  O16  1  0.75722400  0.24277600  0.51989500  1
  O  O17  1  0.24277600  0.75722400  0.98010500  1
  O  O18  1  0.24277600  0.75722400  0.51989500  1
