# generated using pymatgen
data_Ca4Mn3CrO11
_symmetry_space_group_name_H-M   'P 1'
_cell_length_a   7.67124200
_cell_length_b   7.66045900
_cell_length_c   7.65270500
_cell_angle_alpha   90.00000000
_cell_angle_beta   90.00000000
_cell_angle_gamma   90.00000000
_symmetry_Int_Tables_number   1
_chemical_formula_structural   Ca4Mn3CrO11
_chemical_formula_sum   'Ca8 Mn6 Cr2 O22'
_cell_volume   449.71300633
_cell_formula_units_Z   2
loop_
 _symmetry_equiv_pos_site_id
 _symmetry_equiv_pos_as_xyz
  1  'x, y, z'
loop_
 _atom_site_type_symbol
 _atom_site_label
 _atom_site_symmetry_multiplicity
 _atom_site_fract_x
 _atom_site_fract_y
 _atom_site_fract_z
 _atom_site_occupancy
  Ca  Ca0  1  0.25191500  0.25035800  0.25130800  1
  Ca  Ca1  1  0.24977200  0.24923200  0.74428300  1
  Ca  Ca2  1  0.25191500  0.74964200  0.25130800  1
  Ca  Ca3  1  0.24977200  0.75076800  0.74428300  1
  Ca  Ca4  1  0.74808500  0.25035800  0.25130800  1
  Ca  Ca5  1  0.75022800  0.24923200  0.74428300  1
  Ca  Ca6  1  0.74808500  0.74964200  0.25130800  1
  Ca  Ca7  1  0.75022800  0.75076800  0.74428300  1
  Mn  Mn8  1  0.00000000  0.00000000  0.50052000  1
  Mn  Mn9  1  0.00000000  0.50000000  0.00607100  1
  Mn  Mn10  1  0.00000000  0.50000000  0.49101900  1
  Mn  Mn11  1  0.50000000  0.00000000  0.49057000  1
  Mn  Mn12  1  0.50000000  0.50000000  0.99297100  1
  Mn  Mn13  1  0.50000000  0.50000000  0.50485700  1
  Cr  Cr14  1  0.00000000  0.00000000  0.99377500  1
  Cr  Cr15  1  0.50000000  0.00000000  0.00412600  1
  O  O16  1  0.00000000  0.00000000  0.75530100  1
  O  O17  1  0.00000000  0.50000000  0.24912000  1
  O  O18  1  0.00000000  0.50000000  0.74971200  1
  O  O19  1  0.50000000  0.00000000  0.25497500  1
  O  O20  1  0.50000000  0.00000000  0.74374500  1
  O  O21  1  0.50000000  0.50000000  0.75037200  1
  O  O22  1  0.24016600  0.00000000  0.02566100  1
  O  O23  1  0.24687400  0.00000000  0.47919300  1
  O  O24  1  0.25367100  0.50000000  0.02139100  1
  O  O25  1  0.25412800  0.50000000  0.47762600  1
  O  O26  1  0.75983400  0.00000000  0.02566100  1
  O  O27  1  0.75312600  0.00000000  0.47919300  1
  O  O28  1  0.74632900  0.50000000  0.02139100  1
  O  O29  1  0.74587200  0.50000000  0.47762600  1
  O  O30  1  0.00000000  0.24443300  0.02608200  1
  O  O31  1  0.00000000  0.24713400  0.47909700  1
  O  O32  1  0.00000000  0.75556700  0.02608200  1
  O  O33  1  0.00000000  0.75286600  0.47909700  1
  O  O34  1  0.50000000  0.25867200  0.02825200  1
  O  O35  1  0.50000000  0.25459300  0.47794800  1
  O  O36  1  0.50000000  0.74132800  0.02825200  1
  O  O37  1  0.50000000  0.74540700  0.47794800  1
