# generated using pymatgen
data_SrCa3Mn4O11
_symmetry_space_group_name_H-M   'P 1'
_cell_length_a   7.71935100
_cell_length_b   7.72002000
_cell_length_c   7.71057000
_cell_angle_alpha   90.00000000
_cell_angle_beta   90.00000000
_cell_angle_gamma   90.00000000
_symmetry_Int_Tables_number   1
_chemical_formula_structural   SrCa3Mn4O11
_chemical_formula_sum   'Sr2 Ca6 Mn8 O22'
_cell_volume   459.50019339
_cell_formula_units_Z   2
loop_
 _symmetry_equiv_pos_site_id
 _symmetry_equiv_pos_as_xyz
  1  'x, y, z'
loop_
 _atom_site_type_symbol
 _atom_site_label
 _atom_site_symmetry_multiplicity
 _atom_site_fract_x
 _atom_site_fract_y
 _atom_site_fract_z
 _atom_site_occupancy
  Sr  Sr0  1  0.25000000  0.25000000  0.25000000  1
  Sr  Sr1  1  0.75000000  0.25000000  0.25000000  1
  Ca  Ca2  1  0.25000000  0.25000000  0.75000000  1
  Ca  Ca3  1  0.25000000  0.75000000  0.25000000  1
  Ca  Ca4  1  0.25000000  0.75000000  0.75000000  1
  Ca  Ca5  1  0.75000000  0.25000000  0.75000000  1
  Ca  Ca6  1  0.75000000  0.75000000  0.25000000  1
  Ca  Ca7  1  0.75000000  0.75000000  0.75000000  1
  Mn  Mn8  1  0.00000000  0.99844200  0.99110400  1
  Mn  Mn9  1  0.00000000  0.99844200  0.50889600  1
  Mn  Mn10  1  0.00000000  0.50237800  0.00528000  1
  Mn  Mn11  1  0.00000000  0.50237800  0.49472000  1
  Mn  Mn12  1  0.50000000  0.99762200  0.00528000  1
  Mn  Mn13  1  0.50000000  0.99762200  0.49472000  1
  Mn  Mn14  1  0.50000000  0.50155800  0.99110400  1
  Mn  Mn15  1  0.50000000  0.50155800  0.50889600  1
  O  O16  1  0.00000000  0.99627600  0.75000000  1
  O  O17  1  0.00000000  0.50215700  0.25000000  1
  O  O18  1  0.00000000  0.50446300  0.75000000  1
  O  O19  1  0.50000000  0.99784300  0.25000000  1
  O  O20  1  0.50000000  0.99553700  0.75000000  1
  O  O21  1  0.50000000  0.50372400  0.75000000  1
  O  O22  1  0.24542100  0.99483900  0.01674700  1
  O  O23  1  0.24542100  0.99483900  0.48325300  1
  O  O24  1  0.25457900  0.50516100  0.01674700  1
  O  O25  1  0.25457900  0.50516100  0.48325300  1
  O  O26  1  0.75457900  0.99483900  0.01674700  1
  O  O27  1  0.75457900  0.99483900  0.48325300  1
  O  O28  1  0.74542100  0.50516100  0.01674700  1
  O  O29  1  0.74542100  0.50516100  0.48325300  1
  O  O30  1  0.00000000  0.24609600  0.01018800  1
  O  O31  1  0.00000000  0.24609600  0.48981200  1
  O  O32  1  0.00000000  0.75539900  0.02340000  1
  O  O33  1  0.00000000  0.75539900  0.47660000  1
  O  O34  1  0.50000000  0.25390400  0.01018800  1
  O  O35  1  0.50000000  0.25390400  0.48981200  1
  O  O36  1  0.50000000  0.74460100  0.02340000  1
  O  O37  1  0.50000000  0.74460100  0.47660000  1
