# generated using pymatgen
data_Ca8Ti3Mn5O21
_symmetry_space_group_name_H-M   'P 1'
_cell_length_a   7.80688465
_cell_length_b   7.82315200
_cell_length_c   7.88049274
_cell_angle_alpha   90.00000000
_cell_angle_beta   90.17060831
_cell_angle_gamma   90.00000000
_symmetry_Int_Tables_number   1
_chemical_formula_structural   Ca8Ti3Mn5O21
_chemical_formula_sum   'Ca8 Ti3 Mn5 O21'
_cell_volume   481.29458857
_cell_formula_units_Z   1
loop_
 _symmetry_equiv_pos_site_id
 _symmetry_equiv_pos_as_xyz
  1  'x, y, z'
loop_
 _atom_site_type_symbol
 _atom_site_label
 _atom_site_symmetry_multiplicity
 _atom_site_fract_x
 _atom_site_fract_y
 _atom_site_fract_z
 _atom_site_occupancy
  Ca  Ca0  1  0.22871000  0.26618300  0.26316000  1
  Ca  Ca1  1  0.24776200  0.29094900  0.71502300  1
  Ca  Ca2  1  0.22871000  0.73381700  0.26316000  1
  Ca  Ca3  1  0.24776200  0.70905100  0.71502300  1
  Ca  Ca4  1  0.76341800  0.24907100  0.28329500  1
  Ca  Ca5  1  0.69699500  0.28435800  0.75375200  1
  Ca  Ca6  1  0.76341800  0.75092900  0.28329500  1
  Ca  Ca7  1  0.69699500  0.71564200  0.75375200  1
  Ti  Ti8  1  0.04429000  0.00000000  0.99234300  1
  Ti  Ti9  1  0.01602300  0.00000000  0.52716400  1
  Ti  Ti10  1  0.49394000  0.00000000  0.99415000  1
  Mn  Mn11  1  0.98570400  0.50000000  0.01561600  1
  Mn  Mn12  1  0.99091600  0.50000000  0.50834700  1
  Mn  Mn13  1  0.51225100  0.00000000  0.46912800  1
  Mn  Mn14  1  0.47792600  0.50000000  0.99489700  1
  Mn  Mn15  1  0.49488500  0.50000000  0.48350100  1
  O  O16  1  0.08433800  0.00000000  0.75913900  1
  O  O17  1  0.93991100  0.50000000  0.25669500  1
  O  O18  1  0.04656600  0.50000000  0.77158700  1
  O  O19  1  0.62450800  0.00000000  0.17741200  1
  O  O20  1  0.58726400  0.00000000  0.76901800  1
  O  O21  1  0.45396100  0.50000000  0.73754300  1
  O  O22  1  0.26000900  0.00000000  0.07687500  1
  O  O23  1  0.22710900  0.00000000  0.42017800  1
  O  O24  1  0.24275300  0.50000000  0.07585400  1
  O  O25  1  0.24580600  0.50000000  0.46125200  1
  O  O26  1  0.79168600  0.00000000  0.45730400  1
  O  O27  1  0.73218700  0.50000000  0.96321900  1
  O  O28  1  0.73912600  0.50000000  0.53853300  1
  O  O29  1  0.96134100  0.20042700  0.06610700  1
  O  O30  1  0.00845200  0.25147800  0.51108800  1
  O  O31  1  0.96134100  0.79957300  0.06610700  1
  O  O32  1  0.00845200  0.74852200  0.51108800  1
  O  O33  1  0.47650200  0.25213600  0.98031700  1
  O  O34  1  0.49623900  0.25749000  0.45238000  1
  O  O35  1  0.47650200  0.74786400  0.98031700  1
  O  O36  1  0.49623900  0.74251000  0.45238000  1
