# generated using pymatgen
data_SrCa7Mn6Cr2O24
_symmetry_space_group_name_H-M   'P 1'
_cell_length_a   7.64543300
_cell_length_b   7.61321944
_cell_length_c   7.61321944
_cell_angle_alpha   89.96083559
_cell_angle_beta   90.00000000
_cell_angle_gamma   90.00000000
_symmetry_Int_Tables_number   1
_chemical_formula_structural   SrCa7Mn6Cr2O24
_chemical_formula_sum   'Sr1 Ca7 Mn6 Cr2 O24'
_cell_volume   443.13768197
_cell_formula_units_Z   1
loop_
 _symmetry_equiv_pos_site_id
 _symmetry_equiv_pos_as_xyz
  1  'x, y, z'
loop_
 _atom_site_type_symbol
 _atom_site_label
 _atom_site_symmetry_multiplicity
 _atom_site_fract_x
 _atom_site_fract_y
 _atom_site_fract_z
 _atom_site_occupancy
  Sr  Sr0  1  0.25000000  0.25078000  0.25078000  1
  Ca  Ca1  1  0.25000000  0.25065400  0.74883400  1
  Ca  Ca2  1  0.25000000  0.74883400  0.25065400  1
  Ca  Ca3  1  0.25000000  0.74917000  0.74917000  1
  Ca  Ca4  1  0.75000000  0.25081700  0.25081700  1
  Ca  Ca5  1  0.75000000  0.25123600  0.74936700  1
  Ca  Ca6  1  0.75000000  0.74936700  0.25123600  1
  Ca  Ca7  1  0.75000000  0.74891200  0.74891200  1
  Mn  Mn8  1  0.99963300  0.99965000  0.50028500  1
  Mn  Mn9  1  0.99963300  0.50028500  0.99965000  1
  Mn  Mn10  1  0.99964000  0.50035700  0.50035700  1
  Mn  Mn11  1  0.50036700  0.99965000  0.50028500  1
  Mn  Mn12  1  0.50036700  0.50028500  0.99965000  1
  Mn  Mn13  1  0.50036000  0.50035700  0.50035700  1
  Cr  Cr14  1  0.99964200  0.99955300  0.99955300  1
  Cr  Cr15  1  0.50035800  0.99955300  0.99955300  1
  O  O16  1  0.99728400  0.99856400  0.25011100  1
  O  O17  1  0.00050900  0.99924500  0.74995800  1
  O  O18  1  0.99779700  0.50209700  0.24992600  1
  O  O19  1  0.99998300  0.50016300  0.75005800  1
  O  O20  1  0.50271600  0.99856400  0.25011100  1
  O  O21  1  0.49949100  0.99924500  0.74995800  1
  O  O22  1  0.50220300  0.50209700  0.24992600  1
  O  O23  1  0.50001700  0.50016300  0.75005800  1
  O  O24  1  0.25000000  0.99750300  0.99750300  1
  O  O25  1  0.25000000  0.99771800  0.50222900  1
  O  O26  1  0.25000000  0.50222900  0.99771800  1
  O  O27  1  0.25000000  0.50215000  0.50215000  1
  O  O28  1  0.75000000  0.00049200  0.00049200  1
  O  O29  1  0.75000000  0.00006600  0.50004000  1
  O  O30  1  0.75000000  0.50004000  0.00006600  1
  O  O31  1  0.75000000  0.50009600  0.50009600  1
  O  O32  1  0.99728400  0.25011100  0.99856400  1
  O  O33  1  0.99779700  0.24992600  0.50209700  1
  O  O34  1  0.00050900  0.74995800  0.99924500  1
  O  O35  1  0.99998300  0.75005800  0.50016300  1
  O  O36  1  0.50271600  0.25011100  0.99856400  1
  O  O37  1  0.50220300  0.24992600  0.50209700  1
  O  O38  1  0.49949100  0.74995800  0.99924500  1
  O  O39  1  0.50001700  0.75005800  0.50016300  1
