# generated using pymatgen
data_Ca4TiMn3O11
_symmetry_space_group_name_H-M   'P 1'
_cell_length_a   7.75605700
_cell_length_b   7.73254700
_cell_length_c   7.64709400
_cell_angle_alpha   90.00000000
_cell_angle_beta   90.00000000
_cell_angle_gamma   90.00000000
_symmetry_Int_Tables_number   1
_chemical_formula_structural   Ca4TiMn3O11
_chemical_formula_sum   'Ca8 Ti2 Mn6 O22'
_cell_volume   458.62739128
_cell_formula_units_Z   2
loop_
 _symmetry_equiv_pos_site_id
 _symmetry_equiv_pos_as_xyz
  1  'x, y, z'
loop_
 _atom_site_type_symbol
 _atom_site_label
 _atom_site_symmetry_multiplicity
 _atom_site_fract_x
 _atom_site_fract_y
 _atom_site_fract_z
 _atom_site_occupancy
  Ca  Ca0  1  0.24647500  0.25387200  0.24447800  1
  Ca  Ca1  1  0.25035900  0.26013300  0.71822500  1
  Ca  Ca2  1  0.24647500  0.74612800  0.24447800  1
  Ca  Ca3  1  0.25035900  0.73986700  0.71822500  1
  Ca  Ca4  1  0.75352500  0.25387200  0.24447800  1
  Ca  Ca5  1  0.74964100  0.26013300  0.71822500  1
  Ca  Ca6  1  0.75352500  0.74612800  0.24447800  1
  Ca  Ca7  1  0.74964100  0.73986700  0.71822500  1
  Ti  Ti8  1  0.00000000  0.00000000  0.98554200  1
  Ti  Ti9  1  0.50000000  0.00000000  0.01328100  1
  Mn  Mn10  1  0.00000000  0.00000000  0.49447700  1
  Mn  Mn11  1  0.00000000  0.50000000  0.00860400  1
  Mn  Mn12  1  0.00000000  0.50000000  0.49439700  1
  Mn  Mn13  1  0.50000000  0.00000000  0.49553000  1
  Mn  Mn14  1  0.50000000  0.50000000  0.99616900  1
  Mn  Mn15  1  0.50000000  0.50000000  0.50136600  1
  O  O16  1  0.00000000  0.00000000  0.75569100  1
  O  O17  1  0.00000000  0.50000000  0.25232000  1
  O  O18  1  0.00000000  0.50000000  0.75295100  1
  O  O19  1  0.50000000  0.00000000  0.25486200  1
  O  O20  1  0.50000000  0.00000000  0.75380300  1
  O  O21  1  0.50000000  0.50000000  0.74996300  1
  O  O22  1  0.24123100  0.00000000  0.04185600  1
  O  O23  1  0.24656900  0.00000000  0.48653900  1
  O  O24  1  0.25713500  0.50000000  0.03205600  1
  O  O25  1  0.25331200  0.50000000  0.49187100  1
  O  O26  1  0.75876900  0.00000000  0.04185600  1
  O  O27  1  0.75343100  0.00000000  0.48653900  1
  O  O28  1  0.74286500  0.50000000  0.03205600  1
  O  O29  1  0.74668800  0.50000000  0.49187100  1
  O  O30  1  0.00000000  0.24742300  0.02487400  1
  O  O31  1  0.00000000  0.24819500  0.48756900  1
  O  O32  1  0.00000000  0.75257700  0.02487400  1
  O  O33  1  0.00000000  0.75180500  0.48756900  1
  O  O34  1  0.50000000  0.25435600  0.02427600  1
  O  O35  1  0.50000000  0.25622300  0.48107600  1
  O  O36  1  0.50000000  0.74564400  0.02427600  1
  O  O37  1  0.50000000  0.74377700  0.48107600  1
