# generated using pymatgen
data_Ca8TiMn7O24
_symmetry_space_group_name_H-M   'P 1'
_cell_length_a   10.83644522
_cell_length_b   15.17831508
_cell_length_c   10.69197158
_cell_angle_alpha   90.00000000
_cell_angle_beta   90.02142782
_cell_angle_gamma   90.00000000
_symmetry_Int_Tables_number   1
_chemical_formula_structural   Ca8TiMn7O24
_chemical_formula_sum   'Ca32 Ti4 Mn28 O96'
_cell_volume   1758.60445498
_cell_formula_units_Z   4
loop_
 _symmetry_equiv_pos_site_id
 _symmetry_equiv_pos_as_xyz
  1  'x, y, z'
loop_
 _atom_site_type_symbol
 _atom_site_label
 _atom_site_symmetry_multiplicity
 _atom_site_fract_x
 _atom_site_fract_y
 _atom_site_fract_z
 _atom_site_occupancy
  Ca  Ca0  1  0.02234095  0.12500000  0.49686532  1
  Ca  Ca1  1  0.01968719  0.12500000  0.99467072  1
  Ca  Ca2  1  0.02243848  0.62500000  0.49570498  1
  Ca  Ca3  1  0.02264273  0.62500000  0.99624538  1
  Ca  Ca4  1  0.52305679  0.12500000  0.49564245  1
  Ca  Ca5  1  0.52366768  0.12500000  0.99552886  1
  Ca  Ca6  1  0.52255349  0.62500000  0.49561200  1
  Ca  Ca7  1  0.52248834  0.62500000  0.99557728  1
  Ca  Ca8  1  0.47881210  0.37600155  0.00420852  1
  Ca  Ca9  1  0.47775838  0.37482860  0.50499698  1
  Ca  Ca10  1  0.47881210  0.87399845  0.00420852  1
  Ca  Ca11  1  0.47775838  0.87517140  0.50499698  1
  Ca  Ca12  1  0.97704377  0.37560266  0.00369531  1
  Ca  Ca13  1  0.97733876  0.37549157  0.50494652  1
  Ca  Ca14  1  0.97704377  0.87439734  0.00369531  1
  Ca  Ca15  1  0.97733876  0.87450843  0.50494652  1
  Ca  Ca16  1  0.22874548  0.37642788  0.24614047  1
  Ca  Ca17  1  0.22766513  0.37535624  0.74491390  1
  Ca  Ca18  1  0.22874548  0.87357212  0.24614047  1
  Ca  Ca19  1  0.22766513  0.87464376  0.74491490  1
  Ca  Ca20  1  0.72704418  0.37511817  0.24572349  1
  Ca  Ca21  1  0.72743305  0.37481495  0.74534058  1
  Ca  Ca22  1  0.72704418  0.87488183  0.24572349  1
  Ca  Ca23  1  0.72743305  0.87518505  0.74534158  1
  Ca  Ca24  1  0.27383863  0.12500000  0.25552918  1
  Ca  Ca25  1  0.27264499  0.12500000  0.75267005  1
  Ca  Ca26  1  0.27227175  0.62500000  0.25380856  1
  Ca  Ca27  1  0.27254128  0.62500000  0.75431945  1
  Ca  Ca28  1  0.76944168  0.12500000  0.25433189  1
  Ca  Ca29  1  0.77244004  0.12500000  0.75505831  1
  Ca  Ca30  1  0.77281567  0.62500000  0.25435224  1
  Ca  Ca31  1  0.77243919  0.62500000  0.75441740  1
  Ti  Ti32  1  0.99898629  0.99918679  0.24994122  1
  Ti  Ti33  1  0.25004634  0.99936048  0.99972995  1
  Ti  Ti34  1  0.25004634  0.25063952  0.99972995  1
  Ti  Ti35  1  0.99898629  0.25081321  0.24994122  1
  Mn  Mn36  1  0.00025979  0.00034754  0.74906849  1
  Mn  Mn37  1  0.00048924  0.50072662  0.25068988  1
  Mn  Mn38  1  0.99984703  0.49987316  0.74997242  1
  Mn  Mn39  1  0.50006355  0.99963044  0.25117488  1
  Mn  Mn40  1  0.50132987  0.00042742  0.74992597  1
  Mn  Mn41  1  0.49980479  0.50015009  0.25005531  1
  Mn  Mn42  1  0.50032579  0.49993215  0.74992195  1
  Mn  Mn43  1  0.25120471  0.00023131  0.50012238  1
  Mn  Mn44  1  0.25020874  0.50074015  0.99902300  1
  Mn  Mn45  1  0.25027083  0.49994344  0.50016385  1
  Mn  Mn46  1  0.74891930  0.99945160  0.00020981  1
  Mn  Mn47  1  0.74999631  0.00028864  0.50124872  1
  Mn  Mn48  1  0.75012169  0.50009061  0.00027507  1
  Mn  Mn49  1  0.74989580  0.49987551  0.49998902  1
  Mn  Mn50  1  0.25120471  0.24976869  0.50012238  1
  Mn  Mn51  1  0.25020874  0.74925985  0.99902300  1
  Mn  Mn52  1  0.25027083  0.75005656  0.50016385  1
  Mn  Mn53  1  0.74891930  0.25054840  0.00020981  1
  Mn  Mn54  1  0.74999631  0.24971136  0.50124872  1
  Mn  Mn55  1  0.75012169  0.74990939  0.00027507  1
  Mn  Mn56  1  0.74989580  0.75012449  0.49998902  1
  Mn  Mn57  1  0.00025979  0.24965246  0.74906849  1
  Mn  Mn58  1  0.00048924  0.74927338  0.25068988  1
  Mn  Mn59  1  0.99984703  0.75012684  0.74997242  1
  Mn  Mn60  1  0.50006355  0.25036956  0.25117488  1
  Mn  Mn61  1  0.50132987  0.24957258  0.74992597  1
  Mn  Mn62  1  0.49980479  0.74984991  0.25005531  1
  Mn  Mn63  1  0.50032579  0.75006785  0.74992195  1
  O  O64  1  0.10511178  0.26969104  0.10453487  1
  O  O65  1  0.10384302  0.27003611  0.60223326  1
  O  O66  1  0.10429778  0.77055010  0.10325579  1
  O  O67  1  0.10397136  0.77026230  0.60299535  1
  O  O68  1  0.60272599  0.27036997  0.10270085  1
  O  O69  1  0.60373106  0.27033839  0.60279944  1
  O  O70  1  0.60395458  0.77020635  0.10306884  1
  O  O71  1  0.60389456  0.77023925  0.60298660  1
  O  O72  1  0.39682711  0.22943277  0.39755916  1
  O  O73  1  0.39663102  0.23078666  0.89351416  1
  O  O74  1  0.39602720  0.72976469  0.39695579  1
  O  O75  1  0.39650629  0.72932701  0.89678152  1
  O  O76  1  0.89292904  0.23073799  0.39751156  1
  O  O77  1  0.89618371  0.22998835  0.89711134  1
  O  O78  1  0.89608508  0.72941423  0.39728213  1
  O  O79  1  0.89609228  0.72977411  0.89703577  1
  O  O80  1  0.14634372  0.23081659  0.35560006  1
  O  O81  1  0.14358357  0.23053061  0.85247660  1
  O  O82  1  0.14653698  0.72938194  0.35315331  1
  O  O83  1  0.14611042  0.72943377  0.85273297  1
  O  O84  1  0.64649397  0.22970467  0.35300132  1
  O  O85  1  0.64666729  0.22954459  0.85259434  1
  O  O86  1  0.64607461  0.72973621  0.35298178  1
  O  O87  1  0.64601262  0.72972366  0.85300891  1
  O  O88  1  0.35638910  0.26930798  0.14750218  1
  O  O89  1  0.35384285  0.27006791  0.64742306  1
  O  O90  1  0.35428975  0.77034251  0.14669504  1
  O  O91  1  0.35385328  0.77021638  0.64692711  1
  O  O92  1  0.85265790  0.26941653  0.14411595  1
  O  O93  1  0.85365046  0.27043390  0.64729090  1
  O  O94  1  0.85395854  0.77046017  0.14705475  1
  O  O95  1  0.85398608  0.77031456  0.64707620  1
  O  O96  1  0.35428975  0.47965649  0.14669504  1
  O  O97  1  0.35385328  0.47978262  0.64692711  1
  O  O98  1  0.35638910  0.98069102  0.14750218  1
  O  O99  1  0.35384285  0.97993109  0.64742306  1
  O  O100  1  0.85395954  0.47953883  0.14705475  1
  O  O101  1  0.85398708  0.47968444  0.64707520  1
  O  O102  1  0.85265790  0.98058247  0.14411595  1
  O  O103  1  0.85365046  0.97956510  0.64729090  1
  O  O104  1  0.14634372  0.01918241  0.35560006  1
  O  O105  1  0.14358357  0.01946839  0.85247660  1
  O  O106  1  0.14653698  0.52061706  0.35315331  1
  O  O107  1  0.14611042  0.52056523  0.85273297  1
  O  O108  1  0.64649297  0.02029433  0.35300132  1
  O  O109  1  0.64666629  0.02045441  0.85259434  1
  O  O110  1  0.64607361  0.52026279  0.35298178  1
  O  O111  1  0.64601162  0.52027534  0.85300891  1
  O  O112  1  0.39682711  0.02056623  0.39755916  1
  O  O113  1  0.39663102  0.01921234  0.89351416  1
  O  O114  1  0.39602720  0.52023431  0.39695579  1
  O  O115  1  0.39650629  0.52067199  0.89678152  1
  O  O116  1  0.89292804  0.01926101  0.39751256  1
  O  O117  1  0.89618271  0.02001065  0.89711134  1
  O  O118  1  0.89608508  0.52058477  0.39728213  1
  O  O119  1  0.89609228  0.52022489  0.89703577  1
  O  O120  1  0.10429778  0.47944890  0.10325679  1
  O  O121  1  0.10397136  0.47973670  0.60299535  1
  O  O122  1  0.10511178  0.98030796  0.10453487  1
  O  O123  1  0.10384302  0.97996289  0.60223326  1
  O  O124  1  0.60395458  0.47979265  0.10306784  1
  O  O125  1  0.60389456  0.47975975  0.60298560  1
  O  O126  1  0.60272599  0.97962903  0.10270185  1
  O  O127  1  0.60373106  0.97966061  0.60279944  1
  O  O128  1  0.00830084  0.37726100  0.28710705  1
  O  O129  1  0.00996784  0.37485680  0.78892505  1
  O  O130  1  0.00830184  0.87273900  0.28710705  1
  O  O131  1  0.00996884  0.87514320  0.78892505  1
  O  O132  1  0.51003238  0.37525063  0.28970386  1
  O  O133  1  0.50959371  0.37482800  0.78943893  1
  O  O134  1  0.51003238  0.87474937  0.28970386  1
  O  O135  1  0.50959371  0.87517200  0.78943893  1
  O  O136  1  0.49004359  0.12500000  0.21106410  1
  O  O137  1  0.49034508  0.12500000  0.71016346  1
  O  O138  1  0.49027529  0.62500000  0.21078980  1
  O  O139  1  0.49023738  0.62500000  0.71077823  1
  O  O140  1  0.99199367  0.12500000  0.21313457  1
  O  O141  1  0.98942042  0.12500000  0.71001723  1
  O  O142  1  0.99021516  0.62500000  0.21052849  1
  O  O143  1  0.99031694  0.62500000  0.71074721  1
  O  O144  1  0.24100435  0.12500000  0.03681928  1
  O  O145  1  0.24039636  0.12500000  0.53941197  1
  O  O146  1  0.24035258  0.62500000  0.03948231  1
  O  O147  1  0.24025298  0.62500000  0.53928534  1
  O  O148  1  0.74052647  0.12500000  0.03952826  1
  O  O149  1  0.73946451  0.12500000  0.54029851  1
  O  O150  1  0.74016541  0.62500000  0.03917407  1
  O  O151  1  0.74031852  0.62500000  0.53917491  1
  O  O152  1  0.25956755  0.37481513  0.46067117  1
  O  O153  1  0.25893771  0.37728941  0.96298030  1
  O  O154  1  0.25956855  0.87518487  0.46067217  1
  O  O155  1  0.25893871  0.87271059  0.96298130  1
  O  O156  1  0.75995318  0.37486572  0.46087152  1
  O  O157  1  0.75944013  0.37521182  0.96050659  1
  O  O158  1  0.75995318  0.87513428  0.46087152  1
  O  O159  1  0.75944013  0.87478818  0.96050759  1
