# generated using pymatgen
data_SrCa7Mn6Cr2O20
_symmetry_space_group_name_H-M   'P 1'
_cell_length_a   11.01615569
_cell_length_b   15.47876755
_cell_length_c   11.13752641
_cell_angle_alpha   90.02947662
_cell_angle_beta   91.38116480
_cell_angle_gamma   90.40701097
_symmetry_Int_Tables_number   1
_chemical_formula_structural   SrCa7Mn6Cr2O20
_chemical_formula_sum   'Sr4 Ca28 Mn24 Cr8 O80'
_cell_volume   1898.53205964
_cell_formula_units_Z   4
loop_
 _symmetry_equiv_pos_site_id
 _symmetry_equiv_pos_as_xyz
  1  'x, y, z'
loop_
 _atom_site_type_symbol
 _atom_site_label
 _atom_site_symmetry_multiplicity
 _atom_site_fract_x
 _atom_site_fract_y
 _atom_site_fract_z
 _atom_site_occupancy
  Sr  Sr0  1  0.00266052  0.11461134  0.50416642  1
  Sr  Sr1  1  0.51193266  0.37606811  0.99292326  1
  Sr  Sr2  1  0.23711168  0.38851601  0.26016270  1
  Sr  Sr3  1  0.22946420  0.12113577  0.24576628  1
  Ca  Ca4  1  -0.00002386  0.10931720  0.00630372  1
  Ca  Ca5  1  0.00688518  0.61307855  0.50534014  1
  Ca  Ca6  1  0.00434554  0.61323044  0.00773764  1
  Ca  Ca7  1  0.54487188  0.12814978  0.48660333  1
  Ca  Ca8  1  0.54733752  0.12746524  0.98609547  1
  Ca  Ca9  1  0.54158510  0.63034422  0.48285165  1
  Ca  Ca10  1  0.54248097  0.62940801  0.98374026  1
  Ca  Ca11  1  0.51587373  0.37331597  0.49531476  1
  Ca  Ca12  1  0.51802656  0.87358034  0.99124562  1
  Ca  Ca13  1  0.51904460  0.87332052  0.49108101  1
  Ca  Ca14  1  0.96051703  0.38654126  0.00375495  1
  Ca  Ca15  1  0.95676021  0.38661080  0.50322563  1
  Ca  Ca16  1  0.95870776  0.88062896  0.00184747  1
  Ca  Ca17  1  0.95787720  0.88144726  0.50097126  1
  Ca  Ca18  1  0.22737711  0.39564491  0.75976293  1
  Ca  Ca19  1  0.22780331  0.88988695  0.27263270  1
  Ca  Ca20  1  0.22734056  0.88987572  0.77018795  1
  Ca  Ca21  1  0.75534373  0.37952795  0.25405317  1
  Ca  Ca22  1  0.75058437  0.37550622  0.75171963  1
  Ca  Ca23  1  0.75527192  0.87247232  0.25616117  1
  Ca  Ca24  1  0.75303375  0.87282904  0.75375263  1
  Ca  Ca25  1  0.22629567  0.11711768  0.74741986  1
  Ca  Ca26  1  0.22926587  0.62032974  0.24591387  1
  Ca  Ca27  1  0.22743427  0.62135205  0.74708781  1
  Ca  Ca28  1  0.77650818  0.11800949  0.25216576  1
  Ca  Ca29  1  0.78166070  0.11786780  0.75454891  1
  Ca  Ca30  1  0.78214964  0.62433790  0.25324990  1
  Ca  Ca31  1  0.78171371  0.62378609  0.75375527  1
  Mn  Mn32  1  0.99464161  0.49835414  0.25407666  1
  Mn  Mn33  1  0.99273236  0.49779832  0.75285485  1
  Mn  Mn34  1  0.50606620  0.98778486  0.23697857  1
  Mn  Mn35  1  0.50503651  0.98926887  0.73990971  1
  Mn  Mn36  1  0.50860782  0.49607578  0.23802853  1
  Mn  Mn37  1  0.50279648  0.49335862  0.73472569  1
  Mn  Mn38  1  0.24330627  0.50446128  0.01729579  1
  Mn  Mn39  1  0.24554502  0.50289379  0.52076738  1
  Mn  Mn40  1  0.74703589  0.00049625  0.99896560  1
  Mn  Mn41  1  0.74434790  0.00112830  0.49947268  1
  Mn  Mn42  1  0.74727533  0.50442864  0.99693156  1
  Mn  Mn43  1  0.74269951  0.50409634  0.49747255  1
  Mn  Mn44  1  0.27229512  0.74478228  0.96225438  1
  Mn  Mn45  1  0.27413348  0.74407457  0.46299249  1
  Mn  Mn46  1  0.75849135  0.24831371  0.00260452  1
  Mn  Mn47  1  0.75251651  0.24904306  0.50343866  1
  Mn  Mn48  1  0.75689224  0.74659183  0.00169540  1
  Mn  Mn49  1  0.75627542  0.74618999  0.50256511  1
  Mn  Mn50  1  0.99564366  0.75206734  0.25961166  1
  Mn  Mn51  1  0.99468136  0.75210810  0.75907774  1
  Mn  Mn52  1  0.51315382  0.25279665  0.25685824  1
  Mn  Mn53  1  0.51184662  0.24840869  0.75296844  1
  Mn  Mn54  1  0.51293987  0.74716991  0.25045525  1
  Mn  Mn55  1  0.51267565  0.74720738  0.75148125  1
  Cr  Cr56  1  0.99555280  0.99684156  0.25268349  1
  Cr  Cr57  1  0.99698648  0.99653413  0.75460254  1
  Cr  Cr58  1  0.24032087  0.99633692  0.01774374  1
  Cr  Cr59  1  0.24217360  0.99580418  0.52398826  1
  Cr  Cr60  1  0.26718720  0.24259414  0.94824636  1
  Cr  Cr61  1  0.26981230  0.24389394  0.46783102  1
  Cr  Cr62  1  0.98404845  0.25334475  0.26700612  1
  Cr  Cr63  1  0.99127114  0.25352783  0.76753453  1
  O  O64  1  0.58802350  0.25072155  0.09953232  1
  O  O65  1  0.59135807  0.25517859  0.59644281  1
  O  O66  1  0.58711862  0.75581959  0.09277930  1
  O  O67  1  0.58636834  0.75542966  0.59387805  1
  O  O68  1  0.39619758  0.19769396  0.36947918  1
  O  O69  1  0.39624751  0.18617453  0.86080464  1
  O  O70  1  0.39970829  0.68345100  0.35008592  1
  O  O71  1  0.39967910  0.68452338  0.85220964  1
  O  O72  1  0.90187855  0.23909730  0.41252996  1
  O  O73  1  0.92010023  0.23486152  0.91938585  1
  O  O74  1  0.90483294  0.73294214  0.41661735  1
  O  O75  1  0.90530780  0.73269765  0.91629658  1
  O  O76  1  0.15223659  0.25033824  0.34107436  1
  O  O77  1  0.16943431  0.25460440  0.80577466  1
  O  O78  1  0.16142030  0.75005898  0.31461491  1
  O  O79  1  0.16069595  0.75073160  0.81300948  1
  O  O80  1  0.65783412  0.22512634  0.35796328  1
  O  O81  1  0.66183267  0.22768906  0.85635389  1
  O  O82  1  0.65927729  0.72644106  0.35588047  1
  O  O83  1  0.65934812  0.72564758  0.85571960  1
  O  O84  1  0.85770091  0.27809957  0.14597593  1
  O  O85  1  0.86223199  0.27609516  0.64583826  1
  O  O86  1  0.85636670  0.77214308  0.14869972  1
  O  O87  1  0.85577785  0.77238998  0.64871457  1
  O  O88  1  0.35838635  0.51118303  0.15522094  1
  O  O89  1  0.34695643  0.50903969  0.66753806  1
  O  O90  1  0.35231865  0.00539933  0.16253086  1
  O  O91  1  0.34715512  0.00519292  0.67367198  1
  O  O92  1  0.85103967  0.48420876  0.13867679  1
  O  O93  1  0.84400965  0.48198524  0.63887725  1
  O  O94  1  0.84887736  0.97787192  0.14073225  1
  O  O95  1  0.84877843  0.97982837  0.64176353  1
  O  O96  1  0.14784882  0.00795755  0.36901496  1
  O  O97  1  0.14847552  0.00951761  0.86532338  1
  O  O98  1  0.15948937  0.51206168  0.37149635  1
  O  O99  1  0.15688330  0.51201642  0.86945311  1
  O  O100  1  0.62749315  0.02577864  0.35261255  1
  O  O101  1  0.63231574  0.02535319  0.85224613  1
  O  O102  1  0.63249975  0.53009435  0.34814692  1
  O  O103  1  0.62607074  0.52592565  0.84776802  1
  O  O104  1  0.87942112  0.01174463  0.38931783  1
  O  O105  1  0.88555166  0.01425370  0.89452696  1
  O  O106  1  0.88664427  0.51850862  0.39292000  1
  O  O107  1  0.88696589  0.52039655  0.89095693  1
  O  O108  1  0.09777082  0.47663966  0.11946340  1
  O  O109  1  0.09597093  0.47300051  0.61891260  1
  O  O110  1  0.10124719  0.97293145  0.11188645  1
  O  O111  1  0.10217779  0.96826461  0.61441670  1
  O  O112  1  0.60182186  0.49936306  0.09342131  1
  O  O113  1  0.58930588  0.49669567  0.58480162  1
  O  O114  1  0.59790638  0.99387429  0.08931761  1
  O  O115  1  0.59430064  0.99502928  0.58966426  1
  O  O116  1  0.99509387  0.37864223  0.29669506  1
  O  O117  1  0.99877984  0.37847464  0.79958672  1
  O  O118  1  -0.00060694  0.87343027  0.29355134  1
  O  O119  1  0.99714343  0.87319330  0.79610282  1
  O  O120  1  0.47762338  0.37899740  0.28873728  1
  O  O121  1  0.47238695  0.37416541  0.77565798  1
  O  O122  1  0.47962615  0.87097190  0.28437354  1
  O  O123  1  0.48306352  0.87104360  0.78448207  1
  O  O124  1  0.99560714  0.12823342  0.21896720  1
  O  O125  1  0.00191769  0.12727471  0.72568294  1
  O  O126  1  0.00077017  0.62747445  0.21888757  1
  O  O127  1  0.00002655  0.62738258  0.71563699  1
  O  O128  1  0.22088795  0.13780973  0.02681380  1
  O  O129  1  0.23570905  0.13332404  0.54114712  1
  O  O130  1  0.22108241  0.63357716  0.03942753  1
  O  O131  1  0.22473890  0.63239130  0.54066941  1
  O  O132  1  0.75588141  0.12245260  0.03951280  1
  O  O133  1  0.75319971  0.12430229  0.54114325  1
  O  O134  1  0.75134003  0.62662500  0.04163892  1
  O  O135  1  0.74824371  0.62563453  0.54357199  1
  O  O136  1  0.29423703  0.36654393  0.50508130  1
  O  O137  1  0.27970104  0.36321573  0.99741096  1
  O  O138  1  0.29997698  0.87647751  0.48568752  1
  O  O139  1  0.29742972  0.87715412  0.98236459  1
  O  O140  1  0.73640325  0.37908997  0.46382744  1
  O  O141  1  0.74424065  0.37964894  0.96240491  1
  O  O142  1  0.74010984  0.87305837  0.46610956  1
  O  O143  1  0.74144665  0.87371278  0.96330697  1
