# generated using pymatgen
data_AlVN2
_symmetry_space_group_name_H-M   'P 1'
_cell_length_a   5.55625700
_cell_length_b   6.46962100
_cell_length_c   5.01384600
_cell_angle_alpha   90.00000000
_cell_angle_beta   90.00000000
_cell_angle_gamma   90.00000000
_symmetry_Int_Tables_number   1
_chemical_formula_structural   AlVN2
_chemical_formula_sum   'Al4 V4 N8'
_cell_volume   180.23210530
_cell_formula_units_Z   4
loop_
 _symmetry_equiv_pos_site_id
 _symmetry_equiv_pos_as_xyz
  1  'x, y, z'
loop_
 _atom_site_type_symbol
 _atom_site_label
 _atom_site_symmetry_multiplicity
 _atom_site_fract_x
 _atom_site_fract_y
 _atom_site_fract_z
 _atom_site_occupancy
  Al  Al0  1  0.58247100  0.37517700  0.00106800  1
  Al  Al1  1  0.41752900  0.62482300  0.50106800  1
  Al  Al2  1  0.91752900  0.87517700  0.50106800  1
  Al  Al3  1  0.08247100  0.12482300  0.00106800  1
  V  V4  1  0.58011300  0.87707000  0.99255300  1
  V  V5  1  0.41988700  0.12293000  0.49255300  1
  V  V6  1  0.91988700  0.37707000  0.49255300  1
  V  V7  1  0.08011300  0.62293000  0.99255300  1
  N  N8  1  0.57781400  0.38209200  0.38301100  1
  N  N9  1  0.42218600  0.61790800  0.88301100  1
  N  N10  1  0.92218600  0.88209200  0.88301100  1
  N  N11  1  0.07781400  0.11790800  0.38301100  1
  N  N12  1  0.59069700  0.86399000  0.39336900  1
  N  N13  1  0.40930300  0.13601000  0.89336900  1
  N  N14  1  0.90930300  0.36399000  0.89336900  1
  N  N15  1  0.09069700  0.63601000  0.39336900  1
