# generated using pymatgen
data_KFeI3
_symmetry_space_group_name_H-M   'P 1'
_cell_length_a   4.06113500
_cell_length_b   9.79062800
_cell_length_c   16.30112500
_cell_angle_alpha   90.00000000
_cell_angle_beta   90.00000000
_cell_angle_gamma   90.00000000
_symmetry_Int_Tables_number   1
_chemical_formula_structural   KFeI3
_chemical_formula_sum   'K4 Fe4 I12'
_cell_volume   648.15004249
_cell_formula_units_Z   4
loop_
 _symmetry_equiv_pos_site_id
 _symmetry_equiv_pos_as_xyz
  1  'x, y, z'
loop_
 _atom_site_type_symbol
 _atom_site_label
 _atom_site_symmetry_multiplicity
 _atom_site_fract_x
 _atom_site_fract_y
 _atom_site_fract_z
 _atom_site_occupancy
  K  K0  1  0.75000000  0.55969000  0.17220900  1
  K  K1  1  0.25000000  0.44031000  0.82779100  1
  K  K2  1  0.75000000  0.05969000  0.32779100  1
  K  K3  1  0.25000000  0.94031000  0.67220900  1
  Fe  Fe4  1  0.75000000  0.85164400  0.95158800  1
  Fe  Fe5  1  0.25000000  0.14835600  0.04841200  1
  Fe  Fe6  1  0.75000000  0.35164400  0.54841200  1
  Fe  Fe7  1  0.25000000  0.64835600  0.45158800  1
  I  I8  1  0.25000000  0.51450500  0.58871100  1
  I  I9  1  0.75000000  0.48549500  0.41128900  1
  I  I10  1  0.25000000  0.01450500  0.91128900  1
  I  I11  1  0.75000000  0.98549500  0.08871100  1
  I  I12  1  0.25000000  0.68759100  0.00055200  1
  I  I13  1  0.75000000  0.31240900  0.99944800  1
  I  I14  1  0.25000000  0.18759100  0.49944800  1
  I  I15  1  0.75000000  0.81240900  0.50055200  1
  I  I16  1  0.75000000  0.73549600  0.80118100  1
  I  I17  1  0.25000000  0.26450400  0.19881900  1
  I  I18  1  0.75000000  0.23549600  0.69881900  1
  I  I19  1  0.25000000  0.76450400  0.30118100  1
