# generated using pymatgen
data_SrCa7Mn7CrO24
_symmetry_space_group_name_H-M   'P 1'
_cell_length_a   7.63098949
_cell_length_b   7.63098949
_cell_length_c   7.63098949
_cell_angle_alpha   90.02891833
_cell_angle_beta   90.02891833
_cell_angle_gamma   90.02891833
_symmetry_Int_Tables_number   1
_chemical_formula_structural   SrCa7Mn7CrO24
_chemical_formula_sum   'Sr1 Ca7 Mn7 Cr1 O24'
_cell_volume   444.36761400
_cell_formula_units_Z   1
loop_
 _symmetry_equiv_pos_site_id
 _symmetry_equiv_pos_as_xyz
  1  'x, y, z'
loop_
 _atom_site_type_symbol
 _atom_site_label
 _atom_site_symmetry_multiplicity
 _atom_site_fract_x
 _atom_site_fract_y
 _atom_site_fract_z
 _atom_site_occupancy
  Sr  Sr0  1  0.25234500  0.25234500  0.25234500  1
  Ca  Ca1  1  0.25340900  0.25340900  0.74652800  1
  Ca  Ca2  1  0.25340900  0.74652800  0.25340900  1
  Ca  Ca3  1  0.25392700  0.74653800  0.74653800  1
  Ca  Ca4  1  0.74652800  0.25340900  0.25340900  1
  Ca  Ca5  1  0.74653800  0.25392700  0.74653800  1
  Ca  Ca6  1  0.74653800  0.74653800  0.25392700  1
  Ca  Ca7  1  0.74608500  0.74608500  0.74608500  1
  Mn  Mn8  1  0.99943400  0.99943400  0.49989100  1
  Mn  Mn9  1  0.99943400  0.49989100  0.99943400  1
  Mn  Mn10  1  0.99949700  0.50051500  0.50051500  1
  Mn  Mn11  1  0.49989100  0.99943400  0.99943400  1
  Mn  Mn12  1  0.50051500  0.99949700  0.50051500  1
  Mn  Mn13  1  0.50051500  0.50051500  0.99949700  1
  Mn  Mn14  1  0.50048200  0.50048200  0.50048200  1
  Cr  Cr15  1  0.99835900  0.99835900  0.99835900  1
  O  O16  1  0.99710100  0.99710100  0.24609800  1
  O  O17  1  0.00011900  0.00011900  0.75432800  1
  O  O18  1  0.99696400  0.50299200  0.24934800  1
  O  O19  1  0.99958800  0.50089400  0.75067500  1
  O  O20  1  0.50299200  0.99696400  0.24934800  1
  O  O21  1  0.50089400  0.99958800  0.75067500  1
  O  O22  1  0.50304300  0.50304300  0.25036200  1
  O  O23  1  0.50058200  0.50058200  0.74969400  1
  O  O24  1  0.24609800  0.99710100  0.99710100  1
  O  O25  1  0.24934800  0.99696400  0.50299200  1
  O  O26  1  0.24934800  0.50299200  0.99696400  1
  O  O27  1  0.25036200  0.50304300  0.50304300  1
  O  O28  1  0.75432800  0.00011900  0.00011900  1
  O  O29  1  0.75067500  0.99958800  0.50089400  1
  O  O30  1  0.75067500  0.50089400  0.99958800  1
  O  O31  1  0.74969400  0.50058200  0.50058200  1
  O  O32  1  0.99710100  0.24609800  0.99710100  1
  O  O33  1  0.99696400  0.24934800  0.50299200  1
  O  O34  1  0.00011900  0.75432800  0.00011900  1
  O  O35  1  0.99958800  0.75067500  0.50089400  1
  O  O36  1  0.50299200  0.24934800  0.99696400  1
  O  O37  1  0.50304300  0.25036200  0.50304300  1
  O  O38  1  0.50089400  0.75067500  0.99958800  1
  O  O39  1  0.50058200  0.74969400  0.50058200  1
