# generated using pymatgen
data_CeSe2
_symmetry_space_group_name_H-M   'P 1'
_cell_length_a   8.50054100
_cell_length_b   8.50054100
_cell_length_c   11.84092700
_cell_angle_alpha   90.00000000
_cell_angle_beta   90.00000000
_cell_angle_gamma   90.00000000
_symmetry_Int_Tables_number   1
_chemical_formula_structural   CeSe2
_chemical_formula_sum   'Ce4 Se8'
_cell_volume   855.61588022
_cell_formula_units_Z   4
loop_
 _symmetry_equiv_pos_site_id
 _symmetry_equiv_pos_as_xyz
  1  'x, y, z'
loop_
 _atom_site_type_symbol
 _atom_site_label
 _atom_site_symmetry_multiplicity
 _atom_site_fract_x
 _atom_site_fract_y
 _atom_site_fract_z
 _atom_site_occupancy
  Ce  Ce0  1  0.79984400  0.20015600  0.75000000  1
  Ce  Ce1  1  0.20015600  0.79984400  0.25000000  1
  Ce  Ce2  1  0.70015600  0.70015600  0.50000000  1
  Ce  Ce3  1  0.29984400  0.29984400  0.00000000  1
  Se  Se4  1  0.74495500  0.40122100  0.57609000  1
  Se  Se5  1  0.25504500  0.59877900  0.07609000  1
  Se  Se6  1  0.90122100  0.75504500  0.32609000  1
  Se  Se7  1  0.09877900  0.24495500  0.82609000  1
  Se  Se8  1  0.59877900  0.25504500  0.92391000  1
  Se  Se9  1  0.40122100  0.74495500  0.42391000  1
  Se  Se10  1  0.75504500  0.90122100  0.67391000  1
  Se  Se11  1  0.24495500  0.09877900  0.17391000  1
