# generated using pymatgen
data_Al3(MoSe2)4
_symmetry_space_group_name_H-M   'P 1'
_cell_length_a   13.73057193
_cell_length_b   27.34187623
_cell_length_c   24.54810310
_cell_angle_alpha   90.00000000
_cell_angle_beta   90.00000000
_cell_angle_gamma   120.14440188
_symmetry_Int_Tables_number   1
_chemical_formula_structural   Al3(MoSe2)4
_chemical_formula_sum   'Al6 Mo8 Se16'
_cell_volume   7969.51207355
_cell_formula_units_Z   2
loop_
 _symmetry_equiv_pos_site_id
 _symmetry_equiv_pos_as_xyz
  1  'x, y, z'
loop_
 _atom_site_type_symbol
 _atom_site_label
 _atom_site_symmetry_multiplicity
 _atom_site_fract_x
 _atom_site_fract_y
 _atom_site_fract_z
 _atom_site_occupancy
  Al  Al0  1  0.33332352  0.83332352  0.98044874  1
  Al  Al1  1  0.33332352  0.33332352  0.76955126  1
  Al  Al2  1  0.66689963  0.66689963  0.21067960  1
  Al  Al3  1  0.66641504  0.66641504  0.53951696  1
  Al  Al4  1  0.66641504  0.16641504  0.21048304  1
  Al  Al5  1  0.66689963  0.16689963  0.53932040  1
  Mo  Mo6  1  0.33337954  0.83337954  0.37236612  1
  Mo  Mo7  1  0.33334278  0.83334278  0.87158041  1
  Mo  Mo8  1  0.33337954  0.33337954  0.37763388  1
  Mo  Mo9  1  0.33334278  0.33334278  0.87841959  1
  Mo  Mo10  1  0.66728773  0.66728773  0.10429349  1
  Mo  Mo11  1  0.66611666  0.66611666  0.64589789  1
  Mo  Mo12  1  0.66611666  0.16611666  0.10410211  1
  Mo  Mo13  1  0.66728773  0.16728773  0.64570651  1
  Se  Se14  1  0.33332830  0.83332830  0.07431815  1
  Se  Se15  1  0.33334380  0.83334380  0.16985851  1
  Se  Se16  1  0.33334747  0.83334747  0.67063345  1
  Se  Se17  1  0.33334368  0.83334368  0.58086775  1
  Se  Se18  1  0.66718596  0.66718596  0.45102686  1
  Se  Se19  1  0.66668168  0.66668168  0.92018575  1
  Se  Se20  1  0.33334747  0.33334747  0.07936655  1
  Se  Se21  1  0.33334380  0.33334380  0.58014149  1
  Se  Se22  1  0.66603545  0.66603545  0.29918491  1
  Se  Se23  1  0.66663575  0.66663575  0.82970172  1
  Se  Se24  1  0.33332830  0.33332830  0.67568185  1
  Se  Se25  1  0.33334368  0.33334368  0.16913225  1
  Se  Se26  1  0.66663575  0.16663575  0.92029828  1
  Se  Se27  1  0.66718596  0.16718596  0.29897314  1
  Se  Se28  1  0.66603545  0.16603545  0.45081509  1
  Se  Se29  1  0.66668168  0.16668168  0.82981425  1
