# generated using pymatgen
data_Al2O3
_symmetry_space_group_name_H-M   'P 1'
_cell_length_a   5.71573460
_cell_length_b   5.66532992
_cell_length_c   16.59505267
_cell_angle_alpha   62.92272379
_cell_angle_beta   66.36536367
_cell_angle_gamma   58.33732366
_symmetry_Int_Tables_number   1
_chemical_formula_structural   Al2O3
_chemical_formula_sum   'Al16 O24'
_cell_volume   397.84520212
_cell_formula_units_Z   8
loop_
 _symmetry_equiv_pos_site_id
 _symmetry_equiv_pos_as_xyz
  1  'x, y, z'
loop_
 _atom_site_type_symbol
 _atom_site_label
 _atom_site_symmetry_multiplicity
 _atom_site_fract_x
 _atom_site_fract_y
 _atom_site_fract_z
 _atom_site_occupancy
  Al  Al0  1  0.09555200  0.94485200  0.14951700  1
  Al  Al1  1  0.33588800  0.51866400  0.00987800  1
  Al  Al2  1  0.57681400  0.43036600  0.15830200  1
  Al  Al3  1  0.48331100  0.03443100  0.50870100  1
  Al  Al4  1  0.48043000  0.58397400  0.31692500  1
  Al  Al5  1  0.70064300  0.46624600  0.48191700  1
  Al  Al6  1  0.03729900  0.27770700  0.29455700  1
  Al  Al7  1  0.63963000  0.96342200  0.32886800  1
  Al  Al8  1  0.22135100  0.09412600  0.83091600  1
  Al  Al9  1  0.36424300  0.52702900  0.66467700  1
  Al  Al10  1  0.43258200  0.53757200  0.82838800  1
  Al  Al11  1  0.07963700  0.78581000  0.49367600  1
  Al  Al12  1  0.92841200  0.39361400  0.64476700  1
  Al  Al13  1  0.81088400  0.87985400  0.79333900  1
  Al  Al14  1  0.94910200  0.41723600  0.98827100  1
  Al  Al15  1  0.62320900  0.97154800  0.99299100  1
  O  O16  1  0.27814900  0.18497200  0.05645800  1
  O  O17  1  0.39464200  0.18190200  0.24842400  1
  O  O18  1  0.29821200  0.66335500  0.08859100  1
  O  O19  1  0.80296900  0.17317300  0.08736700  1
  O  O20  1  0.35173000  0.70490800  0.22095400  1
  O  O21  1  0.44577500  0.24995500  0.38820400  1
  O  O22  1  0.87437000  0.16531300  0.24150400  1
  O  O23  1  0.24736500  0.35313200  0.55066000  1
  O  O24  1  0.40569500  0.72981300  0.40395100  1
  O  O25  1  0.80523800  0.63617000  0.07095400  1
  O  O26  1  0.80862000  0.65350600  0.27034800  1
  O  O27  1  0.90827800  0.18333100  0.42477100  1
  O  O28  1  0.28798300  0.80898700  0.55431000  1
  O  O29  1  0.12016300  0.35549200  0.72306700  1
  O  O30  1  0.71839500  0.32314400  0.60064100  1
  O  O31  1  0.20887400  0.29352100  0.89174200  1
  O  O32  1  0.17707900  0.76426400  0.74208900  1
  O  O33  1  0.82723900  0.74350100  0.42640500  1
  O  O34  1  0.75678800  0.79444400  0.58288700  1
  O  O35  1  0.66374400  0.29133000  0.75546700  1
  O  O36  1  0.16411500  0.77438100  0.91385800  1
  O  O37  1  0.63911400  0.31814300  0.92564700  1
  O  O38  1  0.55193800  0.83749200  0.77766700  1
  O  O39  1  0.70874200  0.77052200  0.91814300  1
