# generated using pymatgen
data_Al2O3
_symmetry_space_group_name_H-M   'P 1'
_cell_length_a   2.96460756
_cell_length_b   5.63642615
_cell_length_c   30.32976250
_cell_angle_alpha   103.10785446
_cell_angle_beta   104.18997765
_cell_angle_gamma   89.77887551
_symmetry_Int_Tables_number   1
_chemical_formula_structural   Al2O3
_chemical_formula_sum   'Al18 O27'
_cell_volume   477.81978620
_cell_formula_units_Z   9
loop_
 _symmetry_equiv_pos_site_id
 _symmetry_equiv_pos_as_xyz
  1  'x, y, z'
loop_
 _atom_site_type_symbol
 _atom_site_label
 _atom_site_symmetry_multiplicity
 _atom_site_fract_x
 _atom_site_fract_y
 _atom_site_fract_z
 _atom_site_occupancy
  Al  Al0  1  0.09108100  0.79108400  0.83635200  1
  Al  Al1  1  0.34444500  0.67085100  0.93756800  1
  Al  Al2  1  0.08855600  0.78933000  0.63572300  1
  Al  Al3  1  0.34096700  0.67311800  0.73640200  1
  Al  Al4  1  0.65839700  0.30635300  0.86340300  1
  Al  Al5  1  0.33746800  0.65001000  0.53534000  1
  Al  Al6  1  0.91551700  0.19482600  0.96617800  1
  Al  Al7  1  0.65614900  0.30343800  0.66284300  1
  Al  Al8  1  0.37737100  0.79244600  0.34520100  1
  Al  Al9  1  0.90976600  0.19579800  0.76395500  1
  Al  Al10  1  0.09513600  0.77550600  0.03773500  1
  Al  Al11  1  0.59829700  0.60398600  0.43973400  1
  Al  Al12  1  0.34958300  0.65188700  0.13908000  1
  Al  Al13  1  0.90665700  0.18741800  0.56287800  1
  Al  Al14  1  0.63974800  0.52444800  0.25669800  1
  Al  Al15  1  0.88613800  0.27450900  0.35430600  1
  Al  Al16  1  0.66573600  0.28694400  0.06639600  1
  Al  Al17  1  0.94098400  0.18584400  0.17611800  1
  O  O18  1  0.17083100  0.10359000  0.86811100  1
  O  O19  1  0.18062000  0.56371500  0.87212000  1
  O  O20  1  0.50536900  0.24444600  0.00216800  1
  O  O21  1  0.17119900  0.10191400  0.66859700  1
  O  O22  1  0.17618100  0.56008200  0.67063100  1
  O  O23  1  0.49852100  0.24892900  0.79953300  1
  O  O24  1  0.51124500  0.73793400  0.80436000  1
  O  O25  1  0.16693300  0.56413500  0.46701600  1
  O  O26  1  0.83610500  0.42765300  0.93429000  1
  O  O27  1  0.85135000  0.88172800  0.94061700  1
  O  O28  1  0.49673400  0.23534100  0.59894300  1
  O  O29  1  0.50814700  0.74285400  0.60355600  1
  O  O30  1  0.10166300  0.64203600  0.24181000  1
  O  O31  1  0.83229100  0.43201800  0.73299500  1
  O  O32  1  0.84631100  0.88271200  0.73883400  1
  O  O33  1  0.46521200  0.32017900  0.38597300  1
  O  O34  1  0.50099800  0.79714800  0.40195700  1
  O  O35  1  0.17466100  0.08683800  0.06958000  1
  O  O36  1  0.18741900  0.55192100  0.07450100  1
  O  O37  1  0.83903100  0.43352800  0.53569000  1
  O  O38  1  0.83104400  0.87591200  0.53290000  1
  O  O39  1  0.52367500  0.23505700  0.20923800  1
  O  O40  1  0.77201000  0.48819600  0.31556300  1
  O  O41  1  0.82949000  0.95087900  0.32786100  1
  O  O42  1  0.51536600  0.72752700  0.00577500  1
  O  O43  1  0.84602800  0.40895600  0.13816800  1
  O  O44  1  0.87556800  0.86217700  0.14970300  1
