# generated using pymatgen
data_Al10Si2O19
_symmetry_space_group_name_H-M   'P 1'
_cell_length_a   2.93895900
_cell_length_b   7.55595629
_cell_length_c   15.97488520
_cell_angle_alpha   90.70033156
_cell_angle_beta   90.00000000
_cell_angle_gamma   90.00000000
_symmetry_Int_Tables_number   1
_chemical_formula_structural   Al10Si2O19
_chemical_formula_sum   'Al10 Si2 O19'
_cell_volume   354.72211623
_cell_formula_units_Z   1
loop_
 _symmetry_equiv_pos_site_id
 _symmetry_equiv_pos_as_xyz
  1  'x, y, z'
loop_
 _atom_site_type_symbol
 _atom_site_label
 _atom_site_symmetry_multiplicity
 _atom_site_fract_x
 _atom_site_fract_y
 _atom_site_fract_z
 _atom_site_occupancy
  Al  Al0  1  0.00000000  0.96365700  0.99535400  1
  Al  Al1  1  0.50000000  0.23961800  0.11403700  1
  Al  Al2  1  0.50000000  0.34151500  0.41508000  1
  Al  Al3  1  0.50000000  0.64402900  0.09536400  1
  Al  Al4  1  0.50000000  0.83172200  0.83060500  1
  Al  Al5  1  0.50000000  0.64440300  0.57769100  1
  Al  Al6  1  0.50000000  0.73534300  0.39652600  1
  Al  Al7  1  0.00000000  0.48842500  0.25598300  1
  Al  Al8  1  0.00000000  0.00913800  0.51012400  1
  Al  Al9  1  0.00000000  0.49420900  0.74177000  1
  Si  Si10  1  0.50000000  0.33370000  0.93693100  1
  Si  Si11  1  0.50000000  0.12959300  0.68146500  1
  O  O12  1  0.00000000  0.86075000  0.41363600  1
  O  O13  1  0.00000000  0.85102100  0.89024700  1
  O  O14  1  0.50000000  0.97890300  0.74874800  1
  O  O15  1  0.50000000  0.35878200  0.20586300  1
  O  O16  1  0.50000000  0.32834700  0.72536000  1
  O  O17  1  0.50000000  0.42868500  0.03147400  1
  O  O18  1  0.50000000  0.62024500  0.30153200  1
  O  O19  1  0.50000000  0.55306400  0.47366800  1
  O  O20  1  0.50000000  0.61768600  0.78429100  1
  O  O21  1  0.50000000  0.15582100  0.48162700  1
  O  O22  1  0.50000000  0.83283000  0.03237200  1
  O  O23  1  0.50000000  0.12201000  0.95184200  1
  O  O24  1  0.50000000  0.87342800  0.55723800  1
  O  O25  1  0.00000000  0.12158400  0.09137600  1
  O  O26  1  0.00000000  0.12953600  0.62794400  1
  O  O27  1  0.00000000  0.34199000  0.35478800  1
  O  O28  1  0.00000000  0.63158900  0.15254300  1
  O  O29  1  0.00000000  0.38463800  0.89030000  1
  O  O30  1  0.00000000  0.58014300  0.63307000  1
