# generated using pymatgen
data_MnH2SO4
_symmetry_space_group_name_H-M   'P 1'
_cell_length_a   5.02951527
_cell_length_b   5.94526937
_cell_length_c   13.44263600
_cell_angle_alpha   90.00000000
_cell_angle_beta   90.00000000
_cell_angle_gamma   90.67886508
_symmetry_Int_Tables_number   1
_chemical_formula_structural   MnH2SO4
_chemical_formula_sum   'Mn4 H8 S4 O16'
_cell_volume   401.93110910
_cell_formula_units_Z   4
loop_
 _symmetry_equiv_pos_site_id
 _symmetry_equiv_pos_as_xyz
  1  'x, y, z'
loop_
 _atom_site_type_symbol
 _atom_site_label
 _atom_site_symmetry_multiplicity
 _atom_site_fract_x
 _atom_site_fract_y
 _atom_site_fract_z
 _atom_site_occupancy
  Mn  Mn0  1  0.12411600  0.31002400  0.76442500  1
  Mn  Mn1  1  0.37588400  0.18997600  0.26442500  1
  Mn  Mn2  1  0.87588400  0.68997600  0.23557500  1
  Mn  Mn3  1  0.62411600  0.81002400  0.73557500  1
  H  H4  1  0.57494900  0.31884100  0.90188500  1
  H  H5  1  0.92505100  0.18115900  0.40188500  1
  H  H6  1  0.42505100  0.68115900  0.09811500  1
  H  H7  1  0.07494900  0.81884100  0.59811500  1
  H  H8  1  0.31784800  0.29305700  0.96799400  1
  H  H9  1  0.18215200  0.20694300  0.46799400  1
  H  H10  1  0.68215200  0.70694300  0.03200600  1
  H  H11  1  0.81784800  0.79305700  0.53200600  1
  S  S12  1  0.05592600  0.80835800  0.88355400  1
  S  S13  1  0.44407400  0.69164200  0.38355400  1
  S  S14  1  0.94407400  0.19164200  0.11644600  1
  S  S15  1  0.55592600  0.30835800  0.61644600  1
  O  O16  1  0.42573100  0.50894000  0.67547600  1
  O  O17  1  0.07426900  0.99106000  0.17547600  1
  O  O18  1  0.57426900  0.49106000  0.32452400  1
  O  O19  1  0.92573100  0.00894000  0.82452400  1
  O  O20  1  0.92096300  0.60497800  0.82586200  1
  O  O21  1  0.57903700  0.89502200  0.32586200  1
  O  O22  1  0.07903700  0.39502200  0.17413800  1
  O  O23  1  0.42096300  0.10497800  0.67413800  1
  O  O24  1  0.34795600  0.80997600  0.85825300  1
  O  O25  1  0.15204400  0.69002400  0.35825300  1
  O  O26  1  0.65204400  0.19002400  0.14174700  1
  O  O27  1  0.84795600  0.30997600  0.64174700  1
  O  O28  1  0.88080600  0.82062600  0.59937600  1
  O  O29  1  0.61919400  0.67937400  0.09937600  1
  O  O30  1  0.11919400  0.17937400  0.40062400  1
  O  O31  1  0.38080600  0.32062600  0.90062400  1
