# generated using pymatgen
data_Na5Mn7O15
_symmetry_space_group_name_H-M   'P 1'
_cell_length_a   6.26584574
_cell_length_b   6.38024002
_cell_length_c   10.55629588
_cell_angle_alpha   94.95704220
_cell_angle_beta   67.83209149
_cell_angle_gamma   119.64671523
_symmetry_Int_Tables_number   1
_chemical_formula_structural   Na5Mn7O15
_chemical_formula_sum   'Na5 Mn7 O15'
_cell_volume   337.01498794
_cell_formula_units_Z   1
loop_
 _symmetry_equiv_pos_site_id
 _symmetry_equiv_pos_as_xyz
  1  'x, y, z'
loop_
 _atom_site_type_symbol
 _atom_site_label
 _atom_site_symmetry_multiplicity
 _atom_site_fract_x
 _atom_site_fract_y
 _atom_site_fract_z
 _atom_site_occupancy
  Na  Na0  1  0.88267200  0.18443300  0.42738200  1
  Na  Na1  1  0.11803300  0.32191800  0.07525300  1
  Na  Na2  1  0.48981800  0.75296500  0.25533400  1
  Na  Na3  1  0.88118200  0.70622100  0.92274400  1
  Na  Na4  1  0.12323900  0.79678800  0.56749400  1
  Mn  Mn5  1  0.49994400  0.01500600  0.00324800  1
  Mn  Mn6  1  0.52635600  0.29242400  0.23819200  1
  Mn  Mn7  1  0.50217700  0.48742600  0.50166300  1
  Mn  Mn8  1  0.49974600  0.25080500  0.75194300  1
  Mn  Mn9  1  0.98434400  0.75371800  0.23799600  1
  Mn  Mn10  1  0.99939700  0.25051700  0.75136600  1
  Mn  Mn11  1  0.49895400  0.75143000  0.75215700  1
  O  O12  1  0.67775800  0.11553500  0.13128200  1
  O  O13  1  0.26032200  0.10901200  0.15697700  1
  O  O14  1  0.73448600  0.58977900  0.14045100  1
  O  O15  1  0.73776000  0.39609400  0.35213400  1
  O  O16  1  0.76610200  0.15882700  0.65093300  1
  O  O17  1  0.31022800  0.38106400  0.38382700  1
  O  O18  1  0.73826600  0.80176600  0.39299700  1
  O  O19  1  0.73469400  0.32251400  0.88406400  1
  O  O20  1  0.26388500  0.70719500  0.11657900  1
  O  O21  1  0.26675100  0.17481000  0.61836000  1
  O  O22  1  0.68624800  0.58560300  0.63424700  1
  O  O23  1  0.23343300  0.34335600  0.85180600  1
  O  O24  1  0.26124200  0.58305300  0.64560400  1
  O  O25  1  0.73670900  0.92092500  0.85801600  1
  O  O26  1  0.31611700  0.91868400  0.87083200  1
