# generated using pymatgen
data_Al12Si12Ag16S5O48
_symmetry_space_group_name_H-M   'P 1'
_cell_length_a   9.00972944
_cell_length_b   8.92446093
_cell_length_c   17.98971808
_cell_angle_alpha   89.99658211
_cell_angle_beta   89.96215096
_cell_angle_gamma   89.90536035
_symmetry_Int_Tables_number   1
_chemical_formula_structural   Al12Si12Ag16S5O48
_chemical_formula_sum   'Al12 Si12 Ag16 S5 O48'
_cell_volume   1446.49658190
_cell_formula_units_Z   1
loop_
 _symmetry_equiv_pos_site_id
 _symmetry_equiv_pos_as_xyz
  1  'x, y, z'
loop_
 _atom_site_type_symbol
 _atom_site_label
 _atom_site_symmetry_multiplicity
 _atom_site_fract_x
 _atom_site_fract_y
 _atom_site_fract_z
 _atom_site_occupancy
  Al  Al0  1  0.99746503  0.74936085  0.24595105  1
  Al  Al1  1  0.99725703  0.25085173  0.75257356  1
  Al  Al2  1  0.00017391  0.74936254  0.75274334  1
  Al  Al3  1  0.24832353  0.50009672  0.99950204  1
  Al  Al4  1  0.24868819  0.50059035  0.49976090  1
  Al  Al5  1  0.49886370  0.00003967  0.37220122  1
  Al  Al6  1  0.49934922  0.99953913  0.12371986  1
  Al  Al7  1  0.49878595  0.00033359  0.62702006  1
  Al  Al8  1  0.49902966  0.00017330  0.87520967  1
  Al  Al9  1  0.74911750  0.49930799  0.99939484  1
  Al  Al10  1  0.74869681  0.49978578  0.49978727  1
  Al  Al11  1  0.99998629  0.25071585  0.24598715  1
  Si  Si12  1  0.99856819  0.49975703  0.12288464  1
  Si  Si13  1  0.24962148  0.00018621  0.24664556  1
  Si  Si14  1  0.24954377  0.99967066  0.75212489  1
  Si  Si15  1  0.49863674  0.74929886  0.99955651  1
  Si  Si16  1  0.49832322  0.74921290  0.49981099  1
  Si  Si17  1  0.49941715  0.25022073  0.99936590  1
  Si  Si18  1  0.49914245  0.25113836  0.49975518  1
  Si  Si19  1  0.74823593  0.99995956  0.24665975  1
  Si  Si20  1  0.74816463  0.00045495  0.75196049  1
  Si  Si21  1  0.99879511  0.50017609  0.37296262  1
  Si  Si22  1  0.99877435  0.50022223  0.62607925  1
  Si  Si23  1  0.99869909  0.50002760  0.87604187  1
  Ag  Ag24  1  0.15930074  0.15492910  0.07356083  1
  Ag  Ag25  1  0.17846069  0.17924852  0.59278124  1
  Ag  Ag26  1  0.18028012  0.81916645  0.40495650  1
  Ag  Ag27  1  0.15703670  0.84615822  0.92398949  1
  Ag  Ag28  1  0.33763101  0.33969469  0.32339116  1
  Ag  Ag29  1  0.35146704  0.64607827  0.16771641  1
  Ag  Ag30  1  0.34874758  0.35200121  0.83061186  1
  Ag  Ag31  1  0.34038692  0.65913427  0.67571632  1
  Ag  Ag32  1  0.64389283  0.35395935  0.16787300  1
  Ag  Ag33  1  0.65985942  0.66026745  0.32288980  1
  Ag  Ag34  1  0.65778787  0.34230943  0.67616545  1
  Ag  Ag35  1  0.64849027  0.64810820  0.83033240  1
  Ag  Ag36  1  0.81731131  0.18131533  0.40520889  1
  Ag  Ag37  1  0.84039766  0.84338326  0.07271094  1
  Ag  Ag38  1  0.84250774  0.15332864  0.92365709  1
  Ag  Ag39  1  0.81888989  0.82103238  0.59276309  1
  S  S40  1  0.10817395  0.00178400  0.49769647  1
  S  S41  1  0.49802458  0.50009580  0.74776294  1
  S  S42  1  0.49798789  0.50035788  0.25364477  1
  S  S43  1  0.99971478  0.99979382  0.99998951  1
  S  S44  1  0.88952855  0.99768163  0.49735545  1
  O  O45  1  0.06577303  0.63630940  0.17384501  1
  O  O46  1  0.05952535  0.35961025  0.32274258  1
  O  O47  1  0.06012431  0.63996038  0.67634406  1
  O  O48  1  0.06548609  0.36319558  0.82486520  1
  O  O49  1  0.13547233  0.43219530  0.07232396  1
  O  O50  1  0.13569784  0.43744287  0.57396490  1
  O  O51  1  0.13557983  0.56211546  0.42521124  1
  O  O52  1  0.13513351  0.56735961  0.92662947  1
  O  O53  1  0.14929562  0.13952887  0.21492005  1
  O  O54  1  0.14410831  0.13633498  0.71987086  1
  O  O55  1  0.14428681  0.86334108  0.27837784  1
  O  O56  1  0.14892731  0.86086698  0.78386558  1
  O  O57  1  0.34879344  0.06142617  0.31723289  1
  O  O58  1  0.35259431  0.93257287  0.17961995  1
  O  O59  1  0.35198791  0.06692248  0.81935708  1
  O  O60  1  0.34939559  0.93775177  0.68192804  1
  O  O61  1  0.35986545  0.35144665  0.46942310  1
  O  O62  1  0.36072352  0.64797131  0.03212925  1
  O  O63  1  0.36210027  0.35283227  0.96705890  1
  O  O64  1  0.35777708  0.65098765  0.53030815  1
  O  O65  1  0.43414046  0.14807415  0.06781757  1
  O  O66  1  0.43900662  0.14830009  0.56941702  1
  O  O67  1  0.43946478  0.85222264  0.42991248  1
  O  O68  1  0.43365957  0.85199866  0.93116696  1
  O  O69  1  0.55808467  0.14802577  0.42987515  1
  O  O70  1  0.56496811  0.14860786  0.93073402  1
  O  O71  1  0.56444372  0.85032224  0.06824984  1
  O  O72  1  0.55836818  0.85207457  0.56947584  1
  O  O73  1  0.63664118  0.35181229  0.03240542  1
  O  O74  1  0.63763277  0.64885162  0.46944234  1
  O  O75  1  0.63529022  0.64638554  0.96675068  1
  O  O76  1  0.63965414  0.34935054  0.53032906  1
  O  O77  1  0.64522306  0.06767656  0.17973177  1
  O  O78  1  0.64896314  0.93856205  0.31723996  1
  O  O79  1  0.64828893  0.06268759  0.68188482  1
  O  O80  1  0.64558993  0.93297118  0.81914111  1
  O  O81  1  0.85353411  0.13650940  0.27866845  1
  O  O82  1  0.84868524  0.13925863  0.78389673  1
  O  O83  1  0.84846219  0.86061605  0.21484763  1
  O  O84  1  0.85348640  0.86371708  0.71985719  1
  O  O85  1  0.86188013  0.43827075  0.42520741  1
  O  O86  1  0.86230260  0.43216965  0.92652813  1
  O  O87  1  0.86202278  0.56722098  0.07213045  1
  O  O88  1  0.86198700  0.56277352  0.57386377  1
  O  O89  1  0.93716216  0.35974259  0.67604947  1
  O  O90  1  0.93135178  0.36336391  0.17386335  1
  O  O91  1  0.93776779  0.64081925  0.32284952  1
  O  O92  1  0.93174892  0.63713239  0.82517249  1
