# generated using pymatgen
data_Al8(SiO6)3
_symmetry_space_group_name_H-M   'P 1'
_cell_length_a   2.92734000
_cell_length_b   8.25867366
_cell_length_c   13.67336899
_cell_angle_alpha   78.93232106
_cell_angle_beta   90.00000000
_cell_angle_gamma   90.00000000
_symmetry_Int_Tables_number   1
_chemical_formula_structural   Al8(SiO6)3
_chemical_formula_sum   'Al8 Si3 O18'
_cell_volume   324.41845501
_cell_formula_units_Z   1
loop_
 _symmetry_equiv_pos_site_id
 _symmetry_equiv_pos_as_xyz
  1  'x, y, z'
loop_
 _atom_site_type_symbol
 _atom_site_label
 _atom_site_symmetry_multiplicity
 _atom_site_fract_x
 _atom_site_fract_y
 _atom_site_fract_z
 _atom_site_occupancy
  Al  Al0  1  0.00000000  0.97621500  0.06948000  1
  Al  Al1  1  0.00000000  0.89103400  0.44759300  1
  Al  Al2  1  0.50000000  0.29724800  0.61258300  1
  Al  Al3  1  0.50000000  0.21148700  0.38632000  1
  Al  Al4  1  0.50000000  0.87872800  0.65964100  1
  Al  Al5  1  0.50000000  0.79187300  0.26464900  1
  Al  Al6  1  0.00000000  0.48508300  0.22372600  1
  Al  Al7  1  0.00000000  0.51068300  0.74805000  1
  Si  Si8  1  0.50000000  0.31821300  0.07736500  1
  Si  Si9  1  0.50000000  0.14964200  0.82250400  1
  Si  Si10  1  0.50000000  0.66029600  0.00049000  1
  O  O11  1  0.00000000  0.30986400  0.14175700  1
  O  O12  1  0.00000000  0.09313000  0.37792300  1
  O  O13  1  0.00000000  0.40779000  0.63632400  1
  O  O14  1  0.00000000  0.88364000  0.58552000  1
  O  O15  1  0.50000000  0.13451300  0.04712100  1
  O  O16  1  0.50000000  0.37934100  0.29195100  1
  O  O17  1  0.50000000  0.21552400  0.51150700  1
  O  O18  1  0.50000000  0.35492400  0.79531000  1
  O  O19  1  0.50000000  0.56860700  0.12772300  1
  O  O20  1  0.50000000  0.07909400  0.71284900  1
  O  O21  1  0.50000000  0.45465800  0.97641500  1
  O  O22  1  0.50000000  0.66191900  0.72708100  1
  O  O23  1  0.50000000  0.80919200  0.41088300  1
  O  O24  1  0.50000000  0.85719300  0.03381700  1
  O  O25  1  0.00000000  0.65136500  0.28878700  1
  O  O26  1  0.00000000  0.92690300  0.20326900  1
  O  O27  1  0.00000000  0.09226400  0.87279800  1
  O  O28  1  0.00000000  0.69957600  0.93856100  1
