# generated using pymatgen
data_AlMoO3
_symmetry_space_group_name_H-M   'P 1'
_cell_length_a   5.54697142
_cell_length_b   5.54697142
_cell_length_c   12.04097600
_cell_angle_alpha   90.00000000
_cell_angle_beta   90.00000000
_cell_angle_gamma   119.99999312
_symmetry_Int_Tables_number   1
_chemical_formula_structural   AlMoO3
_chemical_formula_sum   'Al6 Mo6 O18'
_cell_volume   320.85160015
_cell_formula_units_Z   6
loop_
 _symmetry_equiv_pos_site_id
 _symmetry_equiv_pos_as_xyz
  1  'x, y, z'
loop_
 _atom_site_type_symbol
 _atom_site_label
 _atom_site_symmetry_multiplicity
 _atom_site_fract_x
 _atom_site_fract_y
 _atom_site_fract_z
 _atom_site_occupancy
  Al  Al0  1  0.66666700  0.33333300  0.26048500  1
  Al  Al1  1  0.33333300  0.66666700  0.76048500  1
  Al  Al2  1  0.66666700  0.33333300  0.76048500  1
  Al  Al3  1  0.33333300  0.66666700  0.26048500  1
  Al  Al4  1  0.00000000  0.00000000  0.73803800  1
  Al  Al5  1  0.00000000  0.00000000  0.23803800  1
  Mo  Mo6  1  0.70110200  0.00000000  0.49903600  1
  Mo  Mo7  1  0.70110200  0.70110200  0.99903600  1
  Mo  Mo8  1  0.00000000  0.29889800  0.99903600  1
  Mo  Mo9  1  0.00000000  0.70110200  0.49903600  1
  Mo  Mo10  1  0.29889800  0.29889800  0.49903600  1
  Mo  Mo11  1  0.29889800  0.00000000  0.99903600  1
  O  O12  1  0.66666700  0.33333300  0.03457100  1
  O  O13  1  0.33333300  0.66666700  0.53457100  1
  O  O14  1  0.66666700  0.33333300  0.53457100  1
  O  O15  1  0.33333300  0.66666700  0.03457100  1
  O  O16  1  0.00000000  0.00000000  0.89688900  1
  O  O17  1  0.00000000  0.00000000  0.39688900  1
  O  O18  1  0.42661300  0.00000000  0.83660600  1
  O  O19  1  0.42661300  0.42661300  0.33660600  1
  O  O20  1  0.00000000  0.57338700  0.33660600  1
  O  O21  1  0.00000000  0.42661300  0.83660600  1
  O  O22  1  0.57338700  0.57338700  0.83660600  1
  O  O23  1  0.57338700  0.00000000  0.33660600  1
  O  O24  1  0.30409800  0.00000000  0.18101200  1
  O  O25  1  0.30409800  0.30409800  0.68101200  1
  O  O26  1  0.00000000  0.69590200  0.68101200  1
  O  O27  1  0.00000000  0.30409800  0.18101200  1
  O  O28  1  0.69590200  0.69590200  0.18101200  1
  O  O29  1  0.69590200  0.00000000  0.68101200  1
