# generated using pymatgen
data_MgMn(SiO3)2
_symmetry_space_group_name_H-M   'P 1'
_cell_length_a   5.47431510
_cell_length_b   6.88161282
_cell_length_c   6.88169865
_cell_angle_alpha   85.43523048
_cell_angle_beta   74.31265868
_cell_angle_gamma   74.31425770
_symmetry_Int_Tables_number   1
_chemical_formula_structural   MgMn(SiO3)2
_chemical_formula_sum   'Mg2 Mn2 Si4 O12'
_cell_volume   240.29064882
_cell_formula_units_Z   2
loop_
 _symmetry_equiv_pos_site_id
 _symmetry_equiv_pos_as_xyz
  1  'x, y, z'
loop_
 _atom_site_type_symbol
 _atom_site_label
 _atom_site_symmetry_multiplicity
 _atom_site_fract_x
 _atom_site_fract_y
 _atom_site_fract_z
 _atom_site_occupancy
  Mg  Mg0  1  0.74998400  0.24166900  0.75835200  1
  Mg  Mg1  1  0.25000700  0.75835400  0.24164500  1
  Mn  Mn2  1  0.74999400  0.89530600  0.10470800  1
  Mn  Mn3  1  0.24997900  0.10462300  0.89534300  1
  Si  Si4  1  0.20954900  0.21198500  0.38419900  1
  Si  Si5  1  0.29045600  0.61579700  0.78800900  1
  Si  Si6  1  0.70954700  0.38421300  0.21198800  1
  Si  Si7  1  0.79045900  0.78802200  0.61578900  1
  O  O8  1  0.42693600  0.34648300  0.35280600  1
  O  O9  1  0.07307500  0.64722100  0.65350600  1
  O  O10  1  0.57308700  0.65351200  0.64719700  1
  O  O11  1  0.92694700  0.35280500  0.34647100  1
  O  O12  1  0.12839000  0.14343500  0.61830600  1
  O  O13  1  0.37157300  0.38168600  0.85656500  1
  O  O14  1  0.87160500  0.85656200  0.38169100  1
  O  O15  1  0.62840700  0.61830800  0.14344500  1
  O  O16  1  0.83244500  0.21665800  0.03037900  1
  O  O17  1  0.66753700  0.96962900  0.78334300  1
  O  O18  1  0.33246400  0.03038600  0.21664800  1
  O  O19  1  0.16755700  0.78335000  0.96961100  1
