# generated using pymatgen
data_Na3CaSc3Zn(SiO3)8
_symmetry_space_group_name_H-M   'P 1'
_cell_length_a   5.56778756
_cell_length_b   29.49886787
_cell_length_c   11.39017370
_cell_angle_alpha   39.44410276
_cell_angle_beta   64.08724831
_cell_angle_gamma   70.27704244
_symmetry_Int_Tables_number   1
_chemical_formula_structural   Na3CaSc3Zn(SiO3)8
_chemical_formula_sum   'Na6 Ca2 Sc6 Zn2 Si16 O48'
_cell_volume   1069.04626553
_cell_formula_units_Z   2
loop_
 _symmetry_equiv_pos_site_id
 _symmetry_equiv_pos_as_xyz
  1  'x, y, z'
loop_
 _atom_site_type_symbol
 _atom_site_label
 _atom_site_symmetry_multiplicity
 _atom_site_fract_x
 _atom_site_fract_y
 _atom_site_fract_z
 _atom_site_occupancy
  Na  Na0  1  0.25000000  0.36040100  0.27919800  1
  Na  Na1  1  0.25000000  0.60709100  0.28581700  1
  Na  Na2  1  0.25000000  0.86262600  0.27474900  1
  Na  Na3  1  0.75000000  0.38737400  0.72525100  1
  Na  Na4  1  0.75000000  0.64290900  0.71418300  1
  Na  Na5  1  0.75000000  0.88959900  0.72080200  1
  Ca  Ca6  1  0.25000000  0.11309300  0.27381200  1
  Ca  Ca7  1  0.75000000  0.13690700  0.72618800  1
  Sc  Sc8  1  0.25000000  0.29970600  0.90058700  1
  Sc  Sc9  1  0.25000000  0.55007000  0.89986200  1
  Sc  Sc10  1  0.75000000  0.45161300  0.09677500  1
  Sc  Sc11  1  0.25000000  0.79838700  0.90322500  1
  Sc  Sc12  1  0.75000000  0.69993000  0.10013800  1
  Sc  Sc13  1  0.75000000  0.95029400  0.09941300  1
  Zn  Zn14  1  0.25000000  0.05262700  0.89474400  1
  Zn  Zn15  1  0.75000000  0.19737300  0.10525600  1
  Si  Si16  1  0.23811500  0.25930200  0.21566000  1
  Si  Si17  1  0.26188500  0.25930200  0.74713100  1
  Si  Si18  1  0.22875800  0.51400400  0.20808900  1
  Si  Si19  1  0.73811500  0.99069800  0.25286900  1
  Si  Si20  1  0.27124200  0.51400400  0.73589400  1
  Si  Si21  1  0.22950600  0.76367300  0.20855900  1
  Si  Si22  1  0.76188500  0.99069800  0.78434000  1
  Si  Si23  1  0.74284600  0.23332000  0.26213400  1
  Si  Si24  1  0.27049400  0.76367300  0.73674600  1
  Si  Si25  1  0.24284600  0.01668000  0.19541800  1
  Si  Si26  1  0.75715400  0.23332000  0.80458200  1
  Si  Si27  1  0.72950600  0.48632700  0.26325400  1
  Si  Si28  1  0.25715400  0.01668000  0.73786600  1
  Si  Si29  1  0.77049400  0.48632700  0.79144100  1
  Si  Si30  1  0.72875800  0.73599600  0.26410600  1
  Si  Si31  1  0.77124200  0.73599600  0.79191100  1
  O  O32  1  0.08790500  0.24798400  0.68283100  1
  O  O33  1  0.19540300  0.09334400  0.66069500  1
  O  O34  1  0.33583900  0.20511700  0.19667500  1
  O  O35  1  0.09977000  0.50475100  0.66529100  1
  O  O36  1  0.16416100  0.20511700  0.98285700  1
  O  O37  1  0.21894700  0.33659400  0.66303000  1
  O  O38  1  0.58790500  0.00201600  0.67476500  1
  O  O39  1  0.30459700  0.09334400  0.96592700  1
  O  O40  1  0.33267300  0.45959000  0.18950900  1
  O  O41  1  0.69540300  0.15665600  0.03407200  1
  O  O42  1  0.41209500  0.24798400  0.32523500  1
  O  O43  1  0.83583900  0.04488300  0.01714300  1
  O  O44  1  0.09955200  0.75525000  0.66434000  1
  O  O45  1  0.16732700  0.45959000  0.97213100  1
  O  O46  1  0.22703400  0.59065500  0.65661400  1
  O  O47  1  0.59280700  0.23874100  0.69784200  1
  O  O48  1  0.28105300  0.33659400  0.99059800  1
  O  O49  1  0.66416100  0.04488300  0.80332500  1
  O  O50  1  0.33308400  0.70848100  0.19246400  1
  O  O51  1  0.72699700  0.40998500  0.01940600  1
  O  O52  1  0.40023000  0.50475100  0.31570300  1
  O  O53  1  0.80459700  0.15665600  0.33930500  1
  O  O54  1  0.84353000  0.29349200  0.02694700  1
  O  O55  1  0.09280700  0.01125900  0.65280300  1
  O  O56  1  0.91209500  0.00201600  0.31716900  1
  O  O57  1  0.16691600  0.70848100  0.97361300  1
  O  O58  1  0.22699700  0.84001500  0.65934800  1
  O  O59  1  0.59955200  0.49475000  0.68533900  1
  O  O60  1  0.27296600  0.59065500  0.98076800  1
  O  O61  1  0.65647000  0.29349200  0.79908600  1
  O  O62  1  0.34353000  0.95650800  0.20091400  1
  O  O63  1  0.72703400  0.65934500  0.01923200  1
  O  O64  1  0.40044800  0.75525000  0.31466100  1
  O  O65  1  0.77300300  0.40998500  0.34065200  1
  O  O66  1  0.83308400  0.54151900  0.02638700  1
  O  O67  1  0.90719300  0.23874100  0.34719700  1
  O  O68  1  0.15647000  0.95650800  0.97305300  1
  O  O69  1  0.59977000  0.74524900  0.68429700  1
  O  O70  1  0.27300300  0.84001500  0.98059400  1
  O  O71  1  0.66691600  0.54151900  0.80753600  1
  O  O72  1  0.71894700  0.91340600  0.00940200  1
  O  O73  1  0.40719300  0.01125900  0.30215800  1
  O  O74  1  0.77296600  0.65934500  0.34338600  1
  O  O75  1  0.83267300  0.79041000  0.02786900  1
  O  O76  1  0.90044800  0.49475000  0.33566000  1
  O  O77  1  0.66732700  0.79041000  0.81049100  1
  O  O78  1  0.78105300  0.91340600  0.33697000  1
  O  O79  1  0.90023000  0.74524900  0.33470900  1
