# generated using pymatgen
data_Al2Ni2O7
_symmetry_space_group_name_H-M   'P 1'
_cell_length_a   6.48146945
_cell_length_b   6.48146945
_cell_length_c   6.48146945
_cell_angle_alpha   60.00000000
_cell_angle_beta   60.00000000
_cell_angle_gamma   60.00000000
_symmetry_Int_Tables_number   1
_chemical_formula_structural   Al2Ni2O7
_chemical_formula_sum   'Al4 Ni4 O14'
_cell_volume   192.53311493
_cell_formula_units_Z   2
loop_
 _symmetry_equiv_pos_site_id
 _symmetry_equiv_pos_as_xyz
  1  'x, y, z'
loop_
 _atom_site_type_symbol
 _atom_site_label
 _atom_site_symmetry_multiplicity
 _atom_site_fract_x
 _atom_site_fract_y
 _atom_site_fract_z
 _atom_site_occupancy
  Al  Al0  1  0.62500000  0.62500000  0.12500000  1
  Al  Al1  1  0.62500000  0.12500000  0.62500000  1
  Al  Al2  1  0.12500000  0.62500000  0.62500000  1
  Al  Al3  1  0.62500000  0.62500000  0.62500000  1
  Ni  Ni4  1  0.12500000  0.12500000  0.62500000  1
  Ni  Ni5  1  0.12500000  0.62500000  0.12500000  1
  Ni  Ni6  1  0.62500000  0.12500000  0.12500000  1
  Ni  Ni7  1  0.12500000  0.12500000  0.12500000  1
  O  O8  1  0.75000000  0.75000000  0.75000000  1
  O  O9  1  0.50000000  0.50000000  0.50000000  1
  O  O10  1  0.02995900  0.47004100  0.02995900  1
  O  O11  1  0.77995900  0.22004100  0.77995900  1
  O  O12  1  0.02995900  0.02995900  0.47004100  1
  O  O13  1  0.47004100  0.02995900  0.02995900  1
  O  O14  1  0.02995900  0.47004100  0.47004100  1
  O  O15  1  0.47004100  0.47004100  0.02995900  1
  O  O16  1  0.47004100  0.02995900  0.47004100  1
  O  O17  1  0.22004100  0.77995900  0.77995900  1
  O  O18  1  0.77995900  0.22004100  0.22004100  1
  O  O19  1  0.22004100  0.77995900  0.22004100  1
  O  O20  1  0.77995900  0.77995900  0.22004100  1
  O  O21  1  0.22004100  0.22004100  0.77995900  1
