# generated using pymatgen
data_Si2SbO6
_symmetry_space_group_name_H-M   'P 1'
_cell_length_a   5.23073600
_cell_length_b   10.21792600
_cell_length_c   19.51480200
_cell_angle_alpha   90.00000000
_cell_angle_beta   90.00000000
_cell_angle_gamma   90.00000000
_symmetry_Int_Tables_number   1
_chemical_formula_structural   Si2SbO6
_chemical_formula_sum   'Si16 Sb8 O48'
_cell_volume   1043.01295732
_cell_formula_units_Z   8
loop_
 _symmetry_equiv_pos_site_id
 _symmetry_equiv_pos_as_xyz
  1  'x, y, z'
loop_
 _atom_site_type_symbol
 _atom_site_label
 _atom_site_symmetry_multiplicity
 _atom_site_fract_x
 _atom_site_fract_y
 _atom_site_fract_z
 _atom_site_occupancy
  Si  Si0  1  0.60260800  0.16653800  0.26636300  1
  Si  Si1  1  0.75695100  0.33412300  0.98514300  1
  Si  Si2  1  0.74304900  0.33412300  0.48514300  1
  Si  Si3  1  0.89739200  0.66653800  0.73363700  1
  Si  Si4  1  0.10260800  0.83346200  0.23363700  1
  Si  Si5  1  0.39739200  0.33346200  0.76636300  1
  Si  Si6  1  0.25695100  0.16587700  0.98514300  1
  Si  Si7  1  0.75695100  0.83412300  0.51485700  1
  Si  Si8  1  0.74304900  0.83412300  0.01485700  1
  Si  Si9  1  0.89739200  0.16653800  0.76636300  1
  Si  Si10  1  0.39739200  0.83346200  0.73363700  1
  Si  Si11  1  0.60260800  0.66653800  0.23363700  1
  Si  Si12  1  0.24304900  0.66587700  0.01485700  1
  Si  Si13  1  0.10260800  0.33346200  0.26636300  1
  Si  Si14  1  0.24304900  0.16587700  0.48514300  1
  Si  Si15  1  0.25695100  0.66587700  0.51485700  1
  Sb  Sb16  1  0.43308000  0.51525500  0.37449500  1
  Sb  Sb17  1  0.56692000  0.48474500  0.62550500  1
  Sb  Sb18  1  0.93308000  0.48474500  0.12550500  1
  Sb  Sb19  1  0.06692000  0.51525500  0.87449500  1
  Sb  Sb20  1  0.43308000  0.01525500  0.12550500  1
  Sb  Sb21  1  0.56692000  0.98474500  0.87449500  1
  Sb  Sb22  1  0.93308000  0.98474500  0.37449500  1
  Sb  Sb23  1  0.06692000  0.01525500  0.62550500  1
  O  O24  1  0.85800000  0.02751200  0.80719600  1
  O  O25  1  0.28302500  0.52611900  0.55581900  1
  O  O26  1  0.14200000  0.97248800  0.19280400  1
  O  O27  1  0.75591700  0.85694500  0.43162100  1
  O  O28  1  0.25591700  0.64305500  0.43162100  1
  O  O29  1  0.98722200  0.73393300  0.53770400  1
  O  O30  1  0.89008100  0.14313400  0.68295500  1
  O  O31  1  0.10991900  0.35686600  0.18295500  1
  O  O32  1  0.75591700  0.35694500  0.06837900  1
  O  O33  1  0.89008100  0.64313400  0.81704500  1
  O  O34  1  0.35800000  0.97248800  0.69280400  1
  O  O35  1  0.74408300  0.85694500  0.93162100  1
  O  O36  1  0.71697500  0.47388100  0.44418100  1
  O  O37  1  0.39008100  0.35686600  0.68295500  1
  O  O38  1  0.64200000  0.52751200  0.19280400  1
  O  O39  1  0.28302500  0.02611900  0.94418100  1
  O  O40  1  0.35800000  0.47248800  0.80719600  1
  O  O41  1  0.17266900  0.22978700  0.78866400  1
  O  O42  1  0.32733100  0.22978700  0.28866400  1
  O  O43  1  0.51277800  0.23393300  0.46229600  1
  O  O44  1  0.74408300  0.35694500  0.56837900  1
  O  O45  1  0.60991900  0.14313400  0.18295500  1
  O  O46  1  0.78302500  0.97388100  0.55581900  1
  O  O47  1  0.17266900  0.72978700  0.71133600  1
  O  O48  1  0.24408300  0.64305500  0.93162100  1
  O  O49  1  0.60991900  0.64313400  0.31704500  1
  O  O50  1  0.71697500  0.97388100  0.05581900  1
  O  O51  1  0.25591700  0.14305500  0.06837900  1
  O  O52  1  0.21697500  0.02611900  0.44418100  1
  O  O53  1  0.67266900  0.27021300  0.78866400  1
  O  O54  1  0.14200000  0.47248800  0.30719600  1
  O  O55  1  0.82733100  0.27021300  0.28866400  1
  O  O56  1  0.82733100  0.77021300  0.21133600  1
  O  O57  1  0.78302500  0.47388100  0.94418100  1
  O  O58  1  0.24408300  0.14305500  0.56837900  1
  O  O59  1  0.21697500  0.52611900  0.05581900  1
  O  O60  1  0.32733100  0.72978700  0.21133600  1
  O  O61  1  0.01277800  0.26606700  0.46229600  1
  O  O62  1  0.48722200  0.26606700  0.96229600  1
  O  O63  1  0.67266900  0.77021300  0.71133600  1
  O  O64  1  0.48722200  0.76606700  0.53770400  1
  O  O65  1  0.51277800  0.73393300  0.03770400  1
  O  O66  1  0.01277800  0.76606700  0.03770400  1
  O  O67  1  0.39008100  0.85686600  0.81704500  1
  O  O68  1  0.64200000  0.02751200  0.30719600  1
  O  O69  1  0.98722200  0.23393300  0.96229600  1
  O  O70  1  0.10991900  0.85686600  0.31704500  1
  O  O71  1  0.85800000  0.52751200  0.69280400  1
