# generated using pymatgen
data_Sr4Nb3PO14
_symmetry_space_group_name_H-M   'P 1'
_cell_length_a   4.06982270
_cell_length_b   5.78806995
_cell_length_c   13.32356130
_cell_angle_alpha   93.72141669
_cell_angle_beta   98.45686984
_cell_angle_gamma   90.17978741
_symmetry_Int_Tables_number   1
_chemical_formula_structural   Sr4Nb3PO14
_chemical_formula_sum   'Sr4 Nb3 P1 O14'
_cell_volume   309.76262112
_cell_formula_units_Z   1
loop_
 _symmetry_equiv_pos_site_id
 _symmetry_equiv_pos_as_xyz
  1  'x, y, z'
loop_
 _atom_site_type_symbol
 _atom_site_label
 _atom_site_symmetry_multiplicity
 _atom_site_fract_x
 _atom_site_fract_y
 _atom_site_fract_z
 _atom_site_occupancy
  Sr  Sr0  1  0.29448500  0.06918700  0.61310400  1
  Sr  Sr1  1  0.72292900  0.55814700  0.43115900  1
  Sr  Sr2  1  0.44377500  0.43668500  0.87929400  1
  Sr  Sr3  1  0.55431700  0.95763500  0.10738200  1
  Nb  Nb4  1  0.16844100  0.01834700  0.33065600  1
  Nb  Nb5  1  0.05475100  0.45953700  0.11164100  1
  Nb  Nb6  1  0.94763200  0.93161200  0.88101400  1
  P  P7  1  0.73825600  0.56170000  0.66861100  1
  O  O8  1  0.45462200  0.89779500  0.89525300  1
  O  O9  1  0.54872200  0.43482000  0.09267700  1
  O  O10  1  0.91477500  0.61019100  0.78566600  1
  O  O11  1  0.09341900  0.17123800  0.18573300  1
  O  O12  1  0.78003000  0.77857200  0.60914400  1
  O  O13  1  0.20950500  0.29408200  0.40964000  1
  O  O14  1  0.21794500  0.81503300  0.43631500  1
  O  O15  1  0.81818800  0.34861400  0.59888900  1
  O  O16  1  0.99700000  0.19004500  0.98090800  1
  O  O17  1  0.00417900  0.67864600  0.99972400  1
  O  O18  1  0.89066100  0.10932100  0.77208100  1
  O  O19  1  0.10750700  0.69438900  0.21459900  1
  O  O20  1  0.38363900  0.51647600  0.68839800  1
  O  O21  1  0.65519800  0.98821000  0.30806600  1
