# generated using pymatgen
data_Sr5Al11TlSi13O48
_symmetry_space_group_name_H-M   'P 1'
_cell_length_a   12.51125068
_cell_length_b   12.36882330
_cell_length_c   12.37870557
_cell_angle_alpha   90.15687375
_cell_angle_beta   89.66950524
_cell_angle_gamma   88.99353974
_symmetry_Int_Tables_number   1
_chemical_formula_structural   Sr5Al11TlSi13O48
_chemical_formula_sum   'Sr5 Al11 Tl1 Si13 O48'
_cell_volume   1915.26274211
_cell_formula_units_Z   1
loop_
 _symmetry_equiv_pos_site_id
 _symmetry_equiv_pos_as_xyz
  1  'x, y, z'
loop_
 _atom_site_type_symbol
 _atom_site_label
 _atom_site_symmetry_multiplicity
 _atom_site_fract_x
 _atom_site_fract_y
 _atom_site_fract_z
 _atom_site_occupancy
  Sr  Sr0  1  0.22067630  0.76988145  0.21196754  1
  Sr  Sr1  1  0.77288657  0.21169912  0.20834585  1
  Sr  Sr2  1  0.76132452  0.20418104  0.79494122  1
  Sr  Sr3  1  0.76882669  0.80272879  0.21159246  1
  Sr  Sr4  1  0.85114664  0.85356306  0.82509465  1
  Al  Al5  1  0.19142553  0.61618097  0.99188105  1
  Al  Al6  1  0.61356074  0.01418625  0.18384975  1
  Al  Al7  1  0.60531219  0.19267234  0.99990710  1
  Al  Al8  1  0.62091367  0.81536282  0.99771766  1
  Al  Al9  1  0.62070492  0.98623191  0.81276124  1
  Al  Al10  1  0.82663664  0.01901786  0.62088210  1
  Al  Al11  1  0.82853313  0.36421298  0.99170596  1
  Al  Al12  1  0.82594092  0.63045519  0.01424316  1
  Al  Al13  1  0.82605109  0.00655999  0.36704085  1
  Al  Al14  1  0.99672268  0.62995867  0.81432073  1
  Al  Al15  1  0.00826847  0.81422341  0.37495976  1
  Tl  Tl16  1  0.66577286  0.58963256  0.84792146  1
  Si  Si17  1  0.00789450  0.36929181  0.17999003  1
  Si  Si18  1  0.01066228  0.19247127  0.62267557  1
  Si  Si19  1  0.18881726  0.99909994  0.62204880  1
  Si  Si20  1  0.18416594  0.37076605  0.99217525  1
  Si  Si21  1  0.18811667  0.00280265  0.37085445  1
  Si  Si22  1  0.36890499  0.00551632  0.17869829  1
  Si  Si23  1  0.36337441  0.18161864  0.98923409  1
  Si  Si24  1  0.36331331  0.82017750  0.99397825  1
  Si  Si25  1  0.36717592  0.99229114  0.81042690  1
  Si  Si26  1  0.01076418  0.18954791  0.36911483  1
  Si  Si27  1  0.00414607  0.37488016  0.80582063  1
  Si  Si28  1  0.01107897  0.62061298  0.19000710  1
  Si  Si29  1  0.01294637  0.82463891  0.62641505  1
  O  O30  1  0.01621406  0.29423865  0.28874001  1
  O  O31  1  0.99117879  0.49408232  0.22336180  1
  O  O32  1  0.02831581  0.29704188  0.69969867  1
  O  O33  1  0.03428246  0.69958984  0.29257582  1
  O  O34  1  0.00222164  0.77472891  0.50747154  1
  O  O35  1  0.98932349  0.73543174  0.71821671  1
  O  O36  1  0.11291215  0.10878783  0.34727635  1
  O  O37  1  0.11254595  0.35660358  0.10446618  1
  O  O38  1  0.10528213  0.10141259  0.64152459  1
  O  O39  1  0.11980413  0.63211283  0.11896470  1
  O  O40  1  0.10391285  0.36196291  0.88877316  1
  O  O41  1  0.12649490  0.88937753  0.34719315  1
  O  O42  1  0.10822875  0.64745933  0.88955259  1
  O  O43  1  0.12928252  0.88433498  0.64002716  1
  O  O44  1  0.23216465  0.00579699  0.49518777  1
  O  O45  1  0.24493610  0.48432571  0.99414404  1
  O  O46  1  0.28297830  0.00023363  0.27985939  1
  O  O47  1  0.26378867  0.26672836  0.98801972  1
  O  O48  1  0.28739397  0.00441917  0.70578519  1
  O  O49  1  0.28499839  0.71988049  0.02118381  1
  O  O50  1  0.35249796  0.11115045  0.10304644  1
  O  O51  1  0.34860743  0.09902870  0.88703775  1
  O  O52  1  0.33578838  0.89689526  0.10548193  1
  O  O53  1  0.33055547  0.88753054  0.88515697  1
  O  O54  1  0.47535699  0.24388162  0.98317427  1
  O  O55  1  0.48868144  0.97846403  0.76797553  1
  O  O56  1  0.48634894  0.78143646  0.99469232  1
  O  O57  1  0.48458059  0.98944178  0.23144721  1
  O  O58  1  0.61883463  0.14434928  0.13133291  1
  O  O59  1  0.63485025  0.10017216  0.89636192  1
  O  O60  1  0.65157498  0.90580794  0.10063761  1
  O  O61  1  0.66426245  0.86168416  0.87092290  1
  O  O62  1  0.72563015  0.01528258  0.26958625  1
  O  O63  1  0.73430001  0.01348319  0.72838072  1
  O  O64  1  0.72012762  0.27670185  0.98910659  1
  O  O65  1  0.70650903  0.70581755  0.03552322  1
  O  O66  1  0.77648308  0.01291930  0.49484534  1
  O  O67  1  0.78853804  0.49782645  0.99536455  1
  O  O68  1  0.90054811  0.12797457  0.33791836  1
  O  O69  1  0.89279096  0.14433346  0.65268439  1
  O  O70  1  0.90061008  0.33109289  0.11384364  1
  O  O71  1  0.89755177  0.32616670  0.86956253  1
  O  O72  1  0.90196641  0.66610539  0.13018217  1
  O  O73  1  0.87806737  0.67285652  0.88968935  1
  O  O74  1  0.89621958  0.88613063  0.32954335  1
  O  O75  1  0.92116286  0.91781461  0.65401330  1
  O  O76  1  0.01180428  0.23017489  0.49490225  1
  O  O77  1  0.97982600  0.49686109  0.76739310  1
