# generated using pymatgen
data_Ba6Yb6Al13Si11N29O13
_symmetry_space_group_name_H-M   'P 1'
_cell_length_a   6.32475930
_cell_length_b   6.22061137
_cell_length_c   30.87714510
_cell_angle_alpha   89.94919936
_cell_angle_beta   89.91072760
_cell_angle_gamma   120.08046937
_symmetry_Int_Tables_number   1
_chemical_formula_structural   Ba6Yb6Al13Si11N29O13
_chemical_formula_sum   'Ba6 Yb6 Al13 Si11 N29 O13'
_cell_volume   1051.21314775
_cell_formula_units_Z   1
loop_
 _symmetry_equiv_pos_site_id
 _symmetry_equiv_pos_as_xyz
  1  'x, y, z'
loop_
 _atom_site_type_symbol
 _atom_site_label
 _atom_site_symmetry_multiplicity
 _atom_site_fract_x
 _atom_site_fract_y
 _atom_site_fract_z
 _atom_site_occupancy
  Ba  Ba0  1  0.34480100  0.64573000  0.03954700  1
  Ba  Ba1  1  0.31845000  0.65790100  0.71321200  1
  Ba  Ba2  1  0.32916800  0.65031000  0.39315400  1
  Ba  Ba3  1  0.66336300  0.35039400  0.54791700  1
  Ba  Ba4  1  0.67350100  0.37292200  0.87800600  1
  Ba  Ba5  1  0.69316800  0.32378300  0.21735300  1
  Yb  Yb6  1  0.38641500  0.63623500  0.27242800  1
  Yb  Yb7  1  0.39298400  0.76022600  0.92419700  1
  Yb  Yb8  1  0.33952500  0.67806200  0.60136800  1
  Yb  Yb9  1  0.68691100  0.32542200  0.10542400  1
  Yb  Yb10  1  0.66264800  0.32975100  0.43939300  1
  Yb  Yb11  1  0.66317700  0.33794000  0.76763600  1
  Al  Al12  1  0.13884100  0.81418800  0.80995200  1
  Al  Al13  1  0.13211900  0.79998700  0.48479200  1
  Al  Al14  1  0.00404000  0.99424600  0.06765400  1
  Al  Al15  1  0.18539900  0.32543700  0.48164700  1
  Al  Al16  1  0.32273400  0.20350700  0.64483000  1
  Al  Al17  1  0.33432800  0.16883800  0.31654200  1
  Al  Al18  1  0.33913400  0.18393100  0.97580900  1
  Al  Al19  1  0.84938600  0.66768100  0.31732600  1
  Al  Al20  1  0.85662500  0.68142300  0.64514800  1
  Al  Al21  1  0.85454900  0.68586400  0.97499500  1
  Al  Al22  1  0.82497700  0.13401400  0.31470500  1
  Al  Al23  1  0.79570100  0.13524900  0.64504400  1
  Al  Al24  1  0.82997200  0.16042200  0.97836400  1
  Si  Si25  1  0.16168900  0.79722700  0.14707100  1
  Si  Si26  1  0.03683700  0.02140400  0.23125100  1
  Si  Si27  1  0.98685800  0.98341600  0.40285900  1
  Si  Si28  1  0.97861900  0.99744500  0.56480100  1
  Si  Si29  1  0.97686000  0.99713500  0.73245300  1
  Si  Si30  1  0.99063100  0.01286200  0.89290200  1
  Si  Si31  1  0.18575500  0.34823000  0.80904200  1
  Si  Si32  1  0.21969600  0.33854100  0.14731100  1
  Si  Si33  1  0.63839100  0.87317000  0.80671100  1
  Si  Si34  1  0.65705900  0.86834700  0.47792900  1
  Si  Si35  1  0.63087900  0.83507500  0.14128200  1
  N  N36  1  0.04804500  0.01025300  0.17348300  1
  N  N37  1  0.25279200  0.05665000  0.91912100  1
  N  N38  1  0.28536600  0.21913100  0.25900200  1
  N  N39  1  0.23623600  0.24527300  0.58667700  1
  N  N40  1  0.53072700  0.53382700  0.65432800  1
  N  N41  1  0.51937900  0.52294100  0.97126000  1
  N  N42  1  0.52984600  0.53554000  0.15756700  1
  N  N43  1  0.49962400  0.55295200  0.81604200  1
  N  N44  1  0.51668800  0.55267000  0.48166100  1
  N  N45  1  0.74636000  0.99229000  0.42329400  1
  N  N46  1  0.72873900  0.96061800  0.09212400  1
  N  N47  1  0.72816900  0.98705100  0.75429500  1
  N  N48  1  0.46484200  0.97040500  0.15849700  1
  N  N49  1  0.46452000  0.98488600  0.48902500  1
  N  N50  1  0.46511600  0.99917400  0.82166500  1
  N  N51  1  0.02373300  0.77623900  0.91900900  1
  N  N52  1  0.82192000  0.75294100  0.25907600  1
  N  N53  1  0.00981700  0.76313800  0.58846200  1
  N  N54  1  0.04685400  0.47942300  0.15710000  1
  N  N55  1  0.00860700  0.47524100  0.81502600  1
  N  N56  1  0.99718100  0.46671600  0.48684100  1
  N  N57  1  0.80767200  0.08675100  0.91982000  1
  N  N58  1  0.77127100  0.98368000  0.25755900  1
  N  N59  1  0.74584200  0.01722000  0.58809800  1
  N  N60  1  0.99211900  0.01618900  0.83478300  1
  N  N61  1  0.01667200  0.01429700  0.00647400  1
  N  N62  1  0.00647700  0.99683900  0.34351500  1
  N  N63  1  0.97235100  0.98531700  0.50540400  1
  N  N64  1  0.00210000  0.01574600  0.67561400  1
  O  O65  1  0.05534700  0.76539800  0.09572200  1
  O  O66  1  0.98938800  0.73089800  0.41756500  1
  O  O67  1  0.00734900  0.76786900  0.75330600  1
  O  O68  1  0.98269500  0.47075700  0.31227000  1
  O  O69  1  0.96261800  0.46227900  0.65567300  1
  O  O70  1  0.95335300  0.47667300  0.99458300  1
  O  O71  1  0.24901200  0.26145500  0.09569000  1
  O  O72  1  0.24144300  0.21731400  0.42256300  1
  O  O73  1  0.22057500  0.24277100  0.75774500  1
  O  O74  1  0.50267900  0.01009200  0.32452400  1
  O  O75  1  0.47251500  0.02473800  0.65518800  1
  O  O76  1  0.50651400  0.02798500  0.99043700  1
  O  O77  1  0.53225900  0.49205600  0.33105200  1
