# generated using pymatgen
data_Sr2AlCu2NiO7
_symmetry_space_group_name_H-M   'P 1'
_cell_length_a   5.30866474
_cell_length_b   5.41388909
_cell_length_c   12.05617888
_cell_angle_alpha   102.97662003
_cell_angle_beta   102.70415406
_cell_angle_gamma   90.01554499
_symmetry_Int_Tables_number   1
_chemical_formula_structural   Sr2AlCu2NiO7
_chemical_formula_sum   'Sr4 Al2 Cu4 Ni2 O14'
_cell_volume   328.93600747
_cell_formula_units_Z   2
loop_
 _symmetry_equiv_pos_site_id
 _symmetry_equiv_pos_as_xyz
  1  'x, y, z'
loop_
 _atom_site_type_symbol
 _atom_site_label
 _atom_site_symmetry_multiplicity
 _atom_site_fract_x
 _atom_site_fract_y
 _atom_site_fract_z
 _atom_site_occupancy
  Sr  Sr0  1  0.33887700  0.33545200  0.69882900  1
  Sr  Sr1  1  0.64068000  0.66475800  0.30188900  1
  Sr  Sr2  1  0.83872100  0.86346700  0.69875300  1
  Sr  Sr3  1  0.14071800  0.13684500  0.30185600  1
  Al  Al4  1  0.98499800  0.00098900  0.00040800  1
  Al  Al5  1  0.48513100  0.50007100  0.00044000  1
  Cu  Cu6  1  0.92380800  0.44231100  0.88132200  1
  Cu  Cu7  1  0.04291300  0.55893800  0.11945400  1
  Cu  Cu8  1  0.42391000  0.93977900  0.88165100  1
  Cu  Cu9  1  0.54308300  0.06097300  0.11975200  1
  Ni  Ni10  1  0.27865400  0.67870300  0.50025400  1
  Ni  Ni11  1  0.77895200  0.32169200  0.50020500  1
  O  O12  1  0.13804500  0.35804900  0.50028400  1
  O  O13  1  0.63731400  0.64241400  0.50029600  1
  O  O14  1  0.25096000  0.26819900  0.89252300  1
  O  O15  1  0.35925500  0.73252200  0.10836100  1
  O  O16  1  0.75089900  0.12521200  0.89250500  1
  O  O17  1  0.85933900  0.87614400  0.10834200  1
  O  O18  1  0.60312500  0.62114100  0.88951500  1
  O  O19  1  0.71431900  0.37954500  0.11138800  1
  O  O20  1  0.10285300  0.76903400  0.88950400  1
  O  O21  1  0.21426400  0.23233400  0.11136100  1
  O  O22  1  0.29504100  0.85917400  0.65231200  1
  O  O23  1  0.64356800  0.14139900  0.34774700  1
  O  O24  1  0.79577700  0.29388700  0.65278700  1
  O  O25  1  0.14304000  0.70700100  0.34794400  1
