# generated using pymatgen
data_Y2BeAlBO7
_symmetry_space_group_name_H-M   'P 1'
_cell_length_a   9.55884900
_cell_length_b   7.59853300
_cell_length_c   7.95753400
_cell_angle_alpha   90.00000000
_cell_angle_beta   90.00000000
_cell_angle_gamma   90.00000000
_symmetry_Int_Tables_number   1
_chemical_formula_structural   Y2BeAlBO7
_chemical_formula_sum   'Y8 Be4 Al4 B4 O28'
_cell_volume   577.98139382
_cell_formula_units_Z   4
loop_
 _symmetry_equiv_pos_site_id
 _symmetry_equiv_pos_as_xyz
  1  'x, y, z'
loop_
 _atom_site_type_symbol
 _atom_site_label
 _atom_site_symmetry_multiplicity
 _atom_site_fract_x
 _atom_site_fract_y
 _atom_site_fract_z
 _atom_site_occupancy
  Y  Y0  1  0.10964500  0.18832800  0.21169600  1
  Y  Y1  1  0.25892300  0.78685800  0.75701000  1
  Y  Y2  1  0.39035500  0.31167200  0.71169600  1
  Y  Y3  1  0.24107700  0.71314200  0.25701000  1
  Y  Y4  1  0.75892300  0.21314200  0.24299000  1
  Y  Y5  1  0.60964500  0.81167200  0.78830400  1
  Y  Y6  1  0.74107700  0.28685800  0.74299000  1
  Y  Y7  1  0.89035500  0.68832800  0.28830400  1
  Be  Be8  1  0.90109500  0.63612200  0.83861100  1
  Be  Be9  1  0.59890500  0.86387800  0.33861100  1
  Be  Be10  1  0.40109500  0.36387800  0.16138900  1
  Be  Be11  1  0.09890500  0.13612200  0.66138900  1
  Al  Al12  1  0.97490000  0.95911300  0.94622100  1
  Al  Al13  1  0.47490000  0.04088700  0.05377900  1
  Al  Al14  1  0.52510000  0.54088700  0.44622100  1
  Al  Al15  1  0.02510000  0.45911300  0.55377900  1
  B  B16  1  0.95034200  0.04080300  0.49231800  1
  B  B17  1  0.54965800  0.45919700  0.99231800  1
  B  B18  1  0.45034200  0.95919700  0.50768200  1
  B  B19  1  0.04965800  0.54080300  0.00768200  1
  O  O20  1  0.35765000  0.02657900  0.61998500  1
  O  O21  1  0.08779100  0.65918000  0.45964700  1
  O  O22  1  0.12286300  0.01428700  0.81973000  1
  O  O23  1  0.05970900  0.86723500  0.13429800  1
  O  O24  1  0.16215600  0.32965300  0.64273400  1
  O  O25  1  0.90553600  0.54424900  0.03433300  1
  O  O26  1  0.91522700  0.12744700  0.64033500  1
  O  O27  1  0.58477300  0.37255300  0.14033500  1
  O  O28  1  0.59446400  0.95575100  0.53433300  1
  O  O29  1  0.33784400  0.17034700  0.14273400  1
  O  O30  1  0.44029100  0.63276500  0.63429800  1
  O  O31  1  0.37713700  0.48571300  0.31973000  1
  O  O32  1  0.41220900  0.84082000  0.95964700  1
  O  O33  1  0.14235000  0.47342100  0.11998500  1
  O  O34  1  0.85765000  0.97342100  0.38001500  1
  O  O35  1  0.66215600  0.67034700  0.35726600  1
  O  O36  1  0.55970900  0.13276500  0.86570200  1
  O  O37  1  0.62286300  0.98571300  0.18027000  1
  O  O38  1  0.58779100  0.34082000  0.54035300  1
  O  O39  1  0.41522700  0.87255300  0.35966500  1
  O  O40  1  0.40553600  0.45575100  0.96566700  1
  O  O41  1  0.08477300  0.62744700  0.85966500  1
  O  O42  1  0.09446400  0.04424900  0.46566700  1
  O  O43  1  0.91220900  0.15918000  0.04035300  1
  O  O44  1  0.87713700  0.51428700  0.68027000  1
  O  O45  1  0.94029100  0.36723500  0.36570200  1
  O  O46  1  0.83784400  0.82965300  0.85726600  1
  O  O47  1  0.64235000  0.52657900  0.88001500  1
