# generated using pymatgen
data_SiO2
_symmetry_space_group_name_H-M   'P 1'
_cell_length_a   13.14745966
_cell_length_b   13.14787380
_cell_length_c   7.65302735
_cell_angle_alpha   90.00079501
_cell_angle_beta   90.00018709
_cell_angle_gamma   119.99901363
_symmetry_Int_Tables_number   1
_chemical_formula_structural   SiO2
_chemical_formula_sum   'Si18 O36'
_cell_volume   1145.68595013
_cell_formula_units_Z   18
loop_
 _symmetry_equiv_pos_site_id
 _symmetry_equiv_pos_as_xyz
  1  'x, y, z'
loop_
 _atom_site_type_symbol
 _atom_site_label
 _atom_site_symmetry_multiplicity
 _atom_site_fract_x
 _atom_site_fract_y
 _atom_site_fract_z
 _atom_site_occupancy
  Si  Si0  1  0.99525313  0.22845628  0.19275289  1
  Si  Si1  1  0.75689227  0.75202388  0.19275165  1
  Si  Si2  1  0.23329534  0.99009808  0.19276169  1
  Si  Si3  1  0.99524739  0.22845807  0.78701128  1
  Si  Si4  1  0.75689286  0.75203197  0.78700752  1
  Si  Si5  1  0.23331142  0.99010264  0.78701040  1
  Si  Si6  1  0.75690166  0.99009774  0.19276734  1
  Si  Si7  1  0.23330213  0.22845641  0.19275376  1
  Si  Si8  1  0.99523211  0.75202388  0.19275014  1
  Si  Si9  1  0.75689127  0.99010191  0.78701281  1
  Si  Si10  1  0.23331125  0.22845910  0.78700897  1
  Si  Si11  1  0.99524215  0.75203343  0.78700534  1
  Si  Si12  1  0.08636853  0.41373146  0.48988077  1
  Si  Si13  1  0.57161873  0.65789174  0.48987645  1
  Si  Si14  1  0.32744624  0.89895992  0.48987798  1
  Si  Si15  1  0.57161011  0.89895971  0.48987900  1
  Si  Si16  1  0.32746230  0.41373416  0.48988380  1
  Si  Si17  1  0.08637297  0.65788979  0.48987516  1
  O  O18  1  0.09654814  0.19299661  0.22306010  1
  O  O19  1  0.79232056  0.88877126  0.22304905  1
  O  O20  1  0.09655095  0.88877007  0.22304801  1
  O  O21  1  0.09654759  0.19299535  0.75672579  1
  O  O22  1  0.79232468  0.88878095  0.75673067  1
  O  O23  1  0.09655783  0.88878216  0.75672979  1
  O  O24  1  0.86907536  0.11628426  0.24454356  1
  O  O25  1  0.86907260  0.73804450  0.24456335  1
  O  O26  1  0.24731093  0.11628493  0.24454326  1
  O  O27  1  0.86906765  0.11628422  0.73520131  1
  O  O28  1  0.86907765  0.73805333  0.73518682  1
  O  O29  1  0.24731750  0.11628475  0.73519923  1
  O  O30  1  0.02011035  0.33909607  0.31529958  1
  O  O31  1  0.64626597  0.66627094  0.31531372  1
  O  O32  1  0.31906603  0.96522228  0.31530279  1
  O  O33  1  0.02010426  0.33908792  0.66444532  1
  O  O34  1  0.64627591  0.66627600  0.66442326  1
  O  O35  1  0.31907361  0.96522733  0.66444660  1
  O  O36  1  0.64625457  0.96522250  0.31530605  1
  O  O37  1  0.31908408  0.33909662  0.31530210  1
  O  O38  1  0.02010711  0.66627337  0.31531348  1
  O  O39  1  0.64625295  0.96522748  0.66444723  1
  O  O40  1  0.31908525  0.33909027  0.66444682  1
  O  O41  1  0.02010348  0.66627650  0.66442200  1
  O  O42  1  0.99505098  0.26566065  0.98988611  1
  O  O43  1  0.71968965  0.71461351  0.98988117  1
  O  O44  1  0.27070766  0.99029750  0.98988968  1
  O  O45  1  0.71968996  0.99029588  0.98989260  1
  O  O46  1  0.27071041  0.26565973  0.98988564  1
  O  O47  1  0.99502294  0.71461399  0.98988005  1
  O  O48  1  0.22328593  0.44647304  0.48989404  1
  O  O49  1  0.53885143  0.76204164  0.48990694  1
  O  O50  1  0.22329039  0.76203970  0.48990891  1
  O  O51  1  0.07965670  0.53245392  0.48989365  1
  O  O52  1  0.45289846  0.53245524  0.48989077  1
  O  O53  1  0.45288364  0.90567038  0.48989561  1
