# generated using pymatgen
data_Ca2Mn2(SiO4)3
_symmetry_space_group_name_H-M   'P 1'
_cell_length_a   10.36532831
_cell_length_b   10.36532831
_cell_length_c   10.36532831
_cell_angle_alpha   109.17013959
_cell_angle_beta   109.17013959
_cell_angle_gamma   110.07507553
_symmetry_Int_Tables_number   1
_chemical_formula_structural   Ca2Mn2(SiO4)3
_chemical_formula_sum   'Ca8 Mn8 Si12 O48'
_cell_volume   857.21758415
_cell_formula_units_Z   4
loop_
 _symmetry_equiv_pos_site_id
 _symmetry_equiv_pos_as_xyz
  1  'x, y, z'
loop_
 _atom_site_type_symbol
 _atom_site_label
 _atom_site_symmetry_multiplicity
 _atom_site_fract_x
 _atom_site_fract_y
 _atom_site_fract_z
 _atom_site_occupancy
  Ca  Ca0  1  0.87500000  0.00418000  0.62918000  1
  Ca  Ca1  1  0.37500000  0.24582000  0.37082000  1
  Ca  Ca2  1  0.25418000  0.12500000  0.62918000  1
  Ca  Ca3  1  0.49582000  0.62500000  0.37082000  1
  Ca  Ca4  1  0.37500000  0.74582000  0.87082000  1
  Ca  Ca5  1  0.87500000  0.50418000  0.12918000  1
  Ca  Ca6  1  0.99582000  0.62500000  0.87082000  1
  Ca  Ca7  1  0.75418000  0.12500000  0.12918000  1
  Mn  Mn8  1  0.12500000  0.87500000  0.25000000  1
  Mn  Mn9  1  0.62500000  0.87500000  0.25000000  1
  Mn  Mn10  1  0.12500000  0.37500000  0.25000000  1
  Mn  Mn11  1  0.62500000  0.37500000  0.25000000  1
  Mn  Mn12  1  0.12500000  0.37500000  0.75000000  1
  Mn  Mn13  1  0.62500000  0.87500000  0.75000000  1
  Mn  Mn14  1  0.62500000  0.37500000  0.75000000  1
  Mn  Mn15  1  0.12500000  0.87500000  0.75000000  1
  Si  Si16  1  0.50000000  0.50000000  0.00000000  1
  Si  Si17  1  0.00044200  0.12500000  0.37544200  1
  Si  Si18  1  0.00000000  0.00000000  0.00000000  1
  Si  Si19  1  0.37500000  0.99955800  0.12455800  1
  Si  Si20  1  0.25000000  0.75000000  0.50000000  1
  Si  Si21  1  0.37500000  0.49955800  0.62455800  1
  Si  Si22  1  0.87500000  0.25044200  0.87544200  1
  Si  Si23  1  0.50044200  0.12500000  0.87544200  1
  Si  Si24  1  0.87500000  0.75044200  0.37544200  1
  Si  Si25  1  0.24955800  0.62500000  0.12455800  1
  Si  Si26  1  0.75000000  0.25000000  0.50000000  1
  Si  Si27  1  0.74955800  0.62500000  0.62455800  1
  O  O28  1  0.71379600  0.06597800  0.44608100  1
  O  O29  1  0.61559800  0.48232200  0.43898000  1
  O  O30  1  0.13440200  0.07338100  0.36672400  1
  O  O31  1  0.31858600  0.98628200  0.25229800  1
  O  O32  1  0.01601600  0.26371800  0.83230400  1
  O  O33  1  0.51771500  0.46379600  0.14781900  1
  O  O34  1  0.31597800  0.36989700  0.85218100  1
  O  O35  1  0.73232200  0.79334200  0.36672400  1
  O  O36  1  0.43371300  0.76601600  0.25229800  1
  O  O37  1  0.42661900  0.36559800  0.63327600  1
  O  O38  1  0.23628200  0.48398400  0.16769600  1
  O  O39  1  0.01767800  0.88440200  0.56102000  1
  O  O40  1  0.51371800  0.18141400  0.74770200  1
  O  O41  1  0.31628700  0.06858600  0.83230400  1
  O  O42  1  0.32338100  0.45665800  0.43898000  1
  O  O43  1  0.03620400  0.98228500  0.85218100  1
  O  O44  1  0.04334200  0.17661900  0.56102000  1
  O  O45  1  0.13010300  0.18402200  0.14781900  1
  O  O46  1  0.43141400  0.18371300  0.16769600  1
  O  O47  1  0.61989700  0.26771500  0.55391900  1
  O  O48  1  0.01771500  0.86989700  0.05391900  1
  O  O49  1  0.70665800  0.76767800  0.63327600  1
  O  O50  1  0.73398400  0.06628700  0.74770200  1
  O  O51  1  0.23228500  0.88010300  0.44608100  1
  O  O52  1  0.53620400  0.68402200  0.05391900  1
  O  O53  1  0.63440200  0.26767800  0.06102000  1
  O  O54  1  0.11559800  0.67661900  0.13327600  1
  O  O55  1  0.93141400  0.76371800  0.24770200  1
  O  O56  1  0.23398400  0.48628200  0.66769600  1
  O  O57  1  0.73228500  0.28620400  0.35218100  1
  O  O58  1  0.93402200  0.38010300  0.64781900  1
  O  O59  1  0.51767800  0.95665800  0.13327600  1
  O  O60  1  0.81628700  0.98398400  0.24770200  1
  O  O61  1  0.82338100  0.38440200  0.86672400  1
  O  O62  1  0.01371800  0.26601600  0.33230400  1
  O  O63  1  0.23232200  0.86559800  0.93898000  1
  O  O64  1  0.73628200  0.56858600  0.75229800  1
  O  O65  1  0.93371300  0.68141400  0.66769600  1
  O  O66  1  0.92661900  0.29334200  0.06102000  1
  O  O67  1  0.21379600  0.76771500  0.64781900  1
  O  O68  1  0.20665800  0.57338100  0.93898000  1
  O  O69  1  0.11989700  0.56597800  0.35218100  1
  O  O70  1  0.81858600  0.56628700  0.33230400  1
  O  O71  1  0.63010300  0.48228500  0.94608100  1
  O  O72  1  0.81597800  0.96379600  0.94608100  1
  O  O73  1  0.54334200  0.98232200  0.86672400  1
  O  O74  1  0.51601600  0.68371300  0.75229800  1
  O  O75  1  0.43402200  0.78620400  0.55391900  1
