# generated using pymatgen
data_Si2TeO7
_symmetry_space_group_name_H-M   'P 1'
_cell_length_a   9.61700871
_cell_length_b   9.61700871
_cell_length_c   10.66087364
_cell_angle_alpha   58.95926582
_cell_angle_beta   58.95926582
_cell_angle_gamma   48.31202722
_symmetry_Int_Tables_number   1
_chemical_formula_structural   Si2TeO7
_chemical_formula_sum   'Si8 Te4 O28'
_cell_volume   607.46027503
_cell_formula_units_Z   4
loop_
 _symmetry_equiv_pos_site_id
 _symmetry_equiv_pos_as_xyz
  1  'x, y, z'
loop_
 _atom_site_type_symbol
 _atom_site_label
 _atom_site_symmetry_multiplicity
 _atom_site_fract_x
 _atom_site_fract_y
 _atom_site_fract_z
 _atom_site_occupancy
  Si  Si0  1  0.52662700  0.13270600  0.66490400  1
  Si  Si1  1  0.13270600  0.52662700  0.16490400  1
  Si  Si2  1  0.54126500  0.19036000  0.09879300  1
  Si  Si3  1  0.19036000  0.54126500  0.59879300  1
  Si  Si4  1  0.86729400  0.47337300  0.83509600  1
  Si  Si5  1  0.45873500  0.80964000  0.90120700  1
  Si  Si6  1  0.80964000  0.45873500  0.40120700  1
  Si  Si7  1  0.47337300  0.86729400  0.33509600  1
  Te  Te8  1  0.79217300  0.20782700  0.75000000  1
  Te  Te9  1  0.20782700  0.79217300  0.25000000  1
  Te  Te10  1  0.00000000  0.00000000  0.00000000  1
  Te  Te11  1  0.00000000  0.00000000  0.50000000  1
  O  O12  1  0.87999800  0.26252800  0.37359100  1
  O  O13  1  0.94968000  0.92251200  0.40135200  1
  O  O14  1  0.44693500  0.71246100  0.08927100  1
  O  O15  1  0.92251200  0.94968000  0.90135200  1
  O  O16  1  0.26068500  0.91220400  0.33182700  1
  O  O17  1  0.00740700  0.52183300  0.66788900  1
  O  O18  1  0.71246100  0.44693500  0.58927100  1
  O  O19  1  0.08779600  0.73931500  0.16817300  1
  O  O20  1  0.99259300  0.47816700  0.33211100  1
  O  O21  1  0.63516800  0.64273400  0.32232000  1
  O  O22  1  0.05032000  0.07748800  0.59864800  1
  O  O23  1  0.73931500  0.08779600  0.66817300  1
  O  O24  1  0.47816700  0.99259300  0.83211100  1
  O  O25  1  0.26252800  0.87999800  0.87359100  1
  O  O26  1  0.64273400  0.63516800  0.82232000  1
  O  O27  1  0.91220400  0.26068500  0.83182700  1
  O  O28  1  0.90449200  0.42050100  0.98528500  1
  O  O29  1  0.36483200  0.35726600  0.67768000  1
  O  O30  1  0.57949900  0.09550800  0.51471500  1
  O  O31  1  0.35726600  0.36483200  0.17768000  1
  O  O32  1  0.52183300  0.00740700  0.16788900  1
  O  O33  1  0.07748800  0.05032000  0.09864800  1
  O  O34  1  0.42050100  0.90449200  0.48528500  1
  O  O35  1  0.55306500  0.28753900  0.91072900  1
  O  O36  1  0.09550800  0.57949900  0.01471500  1
  O  O37  1  0.28753900  0.55306500  0.41072900  1
  O  O38  1  0.73747200  0.12000200  0.12640900  1
  O  O39  1  0.12000200  0.73747200  0.62640900  1
