# generated using pymatgen
data_Mg3V2(Si2O7)2
_symmetry_space_group_name_H-M   'P 1'
_cell_length_a   9.24822154
_cell_length_b   9.24822154
_cell_length_c   9.86774303
_cell_angle_alpha   59.47306694
_cell_angle_beta   59.47306694
_cell_angle_gamma   49.11116426
_symmetry_Int_Tables_number   1
_chemical_formula_structural   Mg3V2(Si2O7)2
_chemical_formula_sum   'Mg6 V4 Si8 O28'
_cell_volume   529.27505071
_cell_formula_units_Z   2
loop_
 _symmetry_equiv_pos_site_id
 _symmetry_equiv_pos_as_xyz
  1  'x, y, z'
loop_
 _atom_site_type_symbol
 _atom_site_label
 _atom_site_symmetry_multiplicity
 _atom_site_fract_x
 _atom_site_fract_y
 _atom_site_fract_z
 _atom_site_occupancy
  Mg  Mg0  1  0.08178300  0.27156500  0.09518100  1
  Mg  Mg1  1  0.72843500  0.91821700  0.40481900  1
  Mg  Mg2  1  0.27156500  0.08178300  0.59518100  1
  Mg  Mg3  1  0.38857800  0.61142200  0.75000000  1
  Mg  Mg4  1  0.91821700  0.72843500  0.90481900  1
  Mg  Mg5  1  0.61142200  0.38857800  0.25000000  1
  V  V6  1  0.79776700  0.20223300  0.75000000  1
  V  V7  1  0.20223300  0.79776700  0.25000000  1
  V  V8  1  0.00000000  0.00000000  0.00000000  1
  V  V9  1  0.00000000  0.00000000  0.50000000  1
  Si  Si10  1  0.53410100  0.10004900  0.70894400  1
  Si  Si11  1  0.10004900  0.53410100  0.20894400  1
  Si  Si12  1  0.51990600  0.23826800  0.10396600  1
  Si  Si13  1  0.23826800  0.51990600  0.60396600  1
  Si  Si14  1  0.89995100  0.46589900  0.79105600  1
  Si  Si15  1  0.48009400  0.76173200  0.89603400  1
  Si  Si16  1  0.76173200  0.48009400  0.39603400  1
  Si  Si17  1  0.46589900  0.89995100  0.29105600  1
  O  O18  1  0.84729200  0.29888200  0.32572100  1
  O  O19  1  0.95772400  0.87916700  0.42264400  1
  O  O20  1  0.46669000  0.63086200  0.08502900  1
  O  O21  1  0.87916700  0.95772400  0.92264400  1
  O  O22  1  0.25260300  0.94757600  0.31311000  1
  O  O23  1  0.06637400  0.49637100  0.62278100  1
  O  O24  1  0.63086200  0.46669000  0.58502900  1
  O  O25  1  0.05242400  0.74739700  0.18689000  1
  O  O26  1  0.93362600  0.50362900  0.37721900  1
  O  O27  1  0.64097600  0.67873100  0.25881000  1
  O  O28  1  0.04227600  0.12083300  0.57735600  1
  O  O29  1  0.74739700  0.05242400  0.68689000  1
  O  O30  1  0.50362900  0.93362600  0.87721900  1
  O  O31  1  0.29888200  0.84729200  0.82572100  1
  O  O32  1  0.67873100  0.64097600  0.75881000  1
  O  O33  1  0.94757600  0.25260300  0.81311000  1
  O  O34  1  0.90875200  0.49170500  0.93769000  1
  O  O35  1  0.35902400  0.32126900  0.74119000  1
  O  O36  1  0.50829500  0.09124800  0.56231000  1
  O  O37  1  0.32126900  0.35902400  0.24119000  1
  O  O38  1  0.49637100  0.06637400  0.12278100  1
  O  O39  1  0.12083300  0.04227600  0.07735600  1
  O  O40  1  0.49170500  0.90875200  0.43769000  1
  O  O41  1  0.53331000  0.36913800  0.91497100  1
  O  O42  1  0.09124800  0.50829500  0.06231000  1
  O  O43  1  0.36913800  0.53331000  0.41497100  1
  O  O44  1  0.70111800  0.15270800  0.17427900  1
  O  O45  1  0.15270800  0.70111800  0.67427900  1
