# generated using pymatgen
data_Si3O7
_symmetry_space_group_name_H-M   'P 1'
_cell_length_a   7.53254085
_cell_length_b   7.09204806
_cell_length_c   6.95015624
_cell_angle_alpha   92.71441541
_cell_angle_beta   98.32820606
_cell_angle_gamma   105.36955901
_symmetry_Int_Tables_number   1
_chemical_formula_structural   Si3O7
_chemical_formula_sum   'Si6 O14'
_cell_volume   352.79786439
_cell_formula_units_Z   2
loop_
 _symmetry_equiv_pos_site_id
 _symmetry_equiv_pos_as_xyz
  1  'x, y, z'
loop_
 _atom_site_type_symbol
 _atom_site_label
 _atom_site_symmetry_multiplicity
 _atom_site_fract_x
 _atom_site_fract_y
 _atom_site_fract_z
 _atom_site_occupancy
  Si  Si0  1  0.04909200  0.48223000  0.88635600  1
  Si  Si1  1  0.31285700  0.23898900  0.05163800  1
  Si  Si2  1  0.90416300  0.17061500  0.51074100  1
  Si  Si3  1  0.22315700  0.88661200  0.72915800  1
  Si  Si4  1  0.63534000  0.91098400  0.75663900  1
  Si  Si5  1  0.73058500  0.27311200  0.09124000  1
  O  O6  1  0.66851600  0.69929400  0.81427300  1
  O  O7  1  0.74793700  0.99782500  0.58281000  1
  O  O8  1  0.98188800  0.35637500  0.67312800  1
  O  O9  1  0.09572300  0.09164900  0.48314500  1
  O  O10  1  0.41196600  0.84565100  0.66876500  1
  O  O11  1  0.87732400  0.45052100  0.00902400  1
  O  O12  1  0.20762600  0.07802000  0.18800900  1
  O  O13  1  0.22324000  0.42234400  0.01168000  1
  O  O14  1  0.53890700  0.32975400  0.11452500  1
  O  O15  1  0.82844800  0.23748400  0.30533600  1
  O  O16  1  0.11624500  0.71197700  0.84557800  1
  O  O17  1  0.27656600  0.10056600  0.84589500  1
  O  O18  1  0.68774300  0.07488900  0.94273500  1
  O  O19  1  0.06780500  0.88888000  0.52744300  1
