# generated using pymatgen
data_Ca2AlH10ClO8
_symmetry_space_group_name_H-M   'P 1'
_cell_length_a   10.74289779
_cell_length_b   8.85810288
_cell_length_c   8.85810288
_cell_angle_alpha   41.84762657
_cell_angle_beta   100.38471686
_cell_angle_gamma   100.38471686
_symmetry_Int_Tables_number   1
_chemical_formula_structural   Ca2AlH10ClO8
_chemical_formula_sum   'Ca4 Al2 H20 Cl2 O16'
_cell_volume   551.80559912
_cell_formula_units_Z   2
loop_
 _symmetry_equiv_pos_site_id
 _symmetry_equiv_pos_as_xyz
  1  'x, y, z'
loop_
 _atom_site_type_symbol
 _atom_site_label
 _atom_site_symmetry_multiplicity
 _atom_site_fract_x
 _atom_site_fract_y
 _atom_site_fract_z
 _atom_site_occupancy
  Ca  Ca0  1  0.82628700  0.49564700  0.57794000  1
  Ca  Ca1  1  0.67371300  0.92206000  0.00435300  1
  Ca  Ca2  1  0.17371300  0.50435300  0.42206000  1
  Ca  Ca3  1  0.32628700  0.07794000  0.99564700  1
  Al  Al4  1  0.50000000  0.50000000  0.50000000  1
  Al  Al5  1  0.00000000  0.00000000  0.00000000  1
  H  H6  1  0.54298100  0.37984000  0.23944700  1
  H  H7  1  0.95701900  0.26055300  0.12016000  1
  H  H8  1  0.45701900  0.62016000  0.76055300  1
  H  H9  1  0.04298100  0.73944700  0.87984000  1
  H  H10  1  0.81984200  0.91129200  0.48305300  1
  H  H11  1  0.68015800  0.01694700  0.58870800  1
  H  H12  1  0.18015800  0.08870800  0.51694700  1
  H  H13  1  0.31984200  0.98305300  0.41129200  1
  H  H14  1  0.37289400  0.79473600  0.93763100  1
  H  H15  1  0.12710600  0.56236900  0.70526400  1
  H  H16  1  0.62710600  0.20526400  0.06236900  1
  H  H17  1  0.87289400  0.43763100  0.29473600  1
  H  H18  1  0.90503000  0.73926600  0.70785200  1
  H  H19  1  0.59497000  0.79214800  0.76073400  1
  H  H20  1  0.09497000  0.26073400  0.29214800  1
  H  H21  1  0.40503000  0.20785200  0.23926600  1
  H  H22  1  0.98569700  0.71344500  0.93647400  1
  H  H23  1  0.51430300  0.56352600  0.78655500  1
  H  H24  1  0.01430300  0.28655500  0.06352600  1
  H  H25  1  0.48569700  0.43647400  0.21344600  1
  Cl  Cl26  1  0.75000000  0.23510900  0.26489100  1
  Cl  Cl27  1  0.25000000  0.76489100  0.73510900  1
  O  O28  1  0.64031400  0.61637900  0.36825400  1
  O  O29  1  0.85968600  0.13174600  0.88362100  1
  O  O30  1  0.35968600  0.38362100  0.63174600  1
  O  O31  1  0.14031400  0.86825400  0.11637900  1
  O  O32  1  0.43066700  0.84478700  0.99755800  1
  O  O33  1  0.06933300  0.50244200  0.65521300  1
  O  O34  1  0.56933300  0.15521300  0.00244200  1
  O  O35  1  0.93066700  0.49755800  0.34478700  1
  O  O36  1  0.38635400  0.68456100  0.23324100  1
  O  O37  1  0.11364600  0.26675900  0.81543900  1
  O  O38  1  0.61364600  0.31543900  0.76675900  1
  O  O39  1  0.88635400  0.73324100  0.18456100  1
  O  O40  1  0.85563700  0.76151900  0.58946000  1
  O  O41  1  0.64436300  0.91054000  0.73848100  1
  O  O42  1  0.14436300  0.23848100  0.41054000  1
  O  O43  1  0.35563700  0.08946000  0.26151900  1
