# generated using pymatgen
data_Fe13Si2(SbO14)2
_symmetry_space_group_name_H-M   'P 1'
_cell_length_a   5.64580542
_cell_length_b   8.96762409
_cell_length_c   11.58202970
_cell_angle_alpha   84.45223835
_cell_angle_beta   81.11541762
_cell_angle_gamma   78.54418167
_symmetry_Int_Tables_number   1
_chemical_formula_structural   Fe13Si2(SbO14)2
_chemical_formula_sum   'Fe13 Si2 Sb2 O28'
_cell_volume   566.49370655
_cell_formula_units_Z   1
loop_
 _symmetry_equiv_pos_site_id
 _symmetry_equiv_pos_as_xyz
  1  'x, y, z'
loop_
 _atom_site_type_symbol
 _atom_site_label
 _atom_site_symmetry_multiplicity
 _atom_site_fract_x
 _atom_site_fract_y
 _atom_site_fract_z
 _atom_site_occupancy
  Fe  Fe0  1  0.93118100  0.65844000  0.69652300  1
  Fe  Fe1  1  0.66481400  0.33828200  0.13104000  1
  Fe  Fe2  1  0.33114500  0.37956700  0.72396600  1
  Fe  Fe3  1  0.06959500  0.33999800  0.30376600  1
  Fe  Fe4  1  0.33601800  0.66011300  0.86930800  1
  Fe  Fe5  1  0.24537900  0.06490700  0.45018800  1
  Fe  Fe6  1  0.22659800  0.65259600  0.16556700  1
  Fe  Fe7  1  0.00058100  0.99922700  0.00018000  1
  Fe  Fe8  1  0.44285400  0.98688400  0.14760100  1
  Fe  Fe9  1  0.77410900  0.34599500  0.83479800  1
  Fe  Fe10  1  0.66975000  0.61876600  0.27642600  1
  Fe  Fe11  1  0.55823700  0.01147800  0.85274000  1
  Fe  Fe12  1  0.75561100  0.93347200  0.55010700  1
  Si  Si13  1  0.22521300  0.31019100  0.00916600  1
  Si  Si14  1  0.77570200  0.68818800  0.99117500  1
  Sb  Sb15  1  0.88766900  0.97869600  0.28230200  1
  Sb  Sb16  1  0.11332400  0.01971500  0.71802600  1
  O  O17  1  0.72782000  0.38844300  0.27511500  1
  O  O18  1  0.20707700  0.28962100  0.43351000  1
  O  O19  1  0.92933800  0.35251000  0.00118900  1
  O  O20  1  0.30063400  0.12339700  0.00728100  1
  O  O21  1  0.79384900  0.70877500  0.56674900  1
  O  O22  1  0.27300300  0.60992400  0.72522300  1
  O  O23  1  0.94432400  0.09991900  0.58074400  1
  O  O24  1  0.05668500  0.89846200  0.41954900  1
  O  O25  1  0.70036700  0.87497700  0.99308000  1
  O  O26  1  0.13898300  0.88180700  0.15213900  1
  O  O27  1  0.30647400  0.36683200  0.12898900  1
  O  O28  1  0.00196700  0.55974800  0.28836600  1
  O  O29  1  0.38645100  0.94932900  0.59437800  1
  O  O30  1  0.73666500  0.11356000  0.14853400  1
  O  O31  1  0.61361100  0.60332500  0.10095000  1
  O  O32  1  0.07157800  0.64586700  0.99913900  1
  O  O33  1  0.26434500  0.88482200  0.85179100  1
  O  O34  1  0.86200600  0.11664900  0.84818200  1
  O  O35  1  0.61453200  0.04904400  0.40593600  1
  O  O36  1  0.13309700  0.12447700  0.27458900  1
  O  O37  1  0.86783300  0.87393200  0.72573900  1
  O  O38  1  0.38730400  0.39504300  0.89940100  1
  O  O39  1  0.32714100  0.16471200  0.75043100  1
  O  O40  1  0.64099800  0.35861600  0.67833200  1
  O  O41  1  0.69438100  0.63156000  0.87135700  1
  O  O42  1  0.67391000  0.83365700  0.24990000  1
  O  O43  1  0.99891600  0.43862800  0.71203200  1
  O  O44  1  0.35996000  0.63977800  0.32200700  1
