# generated using pymatgen
data_CaMn(Si2O5)2
_symmetry_space_group_name_H-M   'P 1'
_cell_length_a   7.54859800
_cell_length_b   7.54859800
_cell_length_c   15.36538600
_cell_angle_alpha   90.00000000
_cell_angle_beta   90.00000000
_cell_angle_gamma   90.00000000
_symmetry_Int_Tables_number   1
_chemical_formula_structural   CaMn(Si2O5)2
_chemical_formula_sum   'Ca4 Mn4 Si16 O40'
_cell_volume   875.54015737
_cell_formula_units_Z   4
loop_
 _symmetry_equiv_pos_site_id
 _symmetry_equiv_pos_as_xyz
  1  'x, y, z'
loop_
 _atom_site_type_symbol
 _atom_site_label
 _atom_site_symmetry_multiplicity
 _atom_site_fract_x
 _atom_site_fract_y
 _atom_site_fract_z
 _atom_site_occupancy
  Ca  Ca0  1  0.50000000  0.50000000  0.50000000  1
  Ca  Ca1  1  0.00000000  0.00000000  0.50000000  1
  Ca  Ca2  1  0.00000000  0.00000000  0.00000000  1
  Ca  Ca3  1  0.50000000  0.50000000  0.00000000  1
  Mn  Mn4  1  0.50000000  0.00000000  0.57872800  1
  Mn  Mn5  1  0.00000000  0.50000000  0.92127200  1
  Mn  Mn6  1  0.00000000  0.50000000  0.42127200  1
  Mn  Mn7  1  0.50000000  0.00000000  0.07872800  1
  Si  Si8  1  0.16861400  0.25312500  0.64811900  1
  Si  Si9  1  0.83138600  0.74687500  0.64811900  1
  Si  Si10  1  0.25312500  0.16861400  0.85188100  1
  Si  Si11  1  0.75312500  0.33138600  0.64811900  1
  Si  Si12  1  0.24687500  0.66861400  0.64811900  1
  Si  Si13  1  0.33138600  0.75312500  0.85188100  1
  Si  Si14  1  0.66861400  0.24687500  0.85188100  1
  Si  Si15  1  0.74687500  0.83138600  0.85188100  1
  Si  Si16  1  0.33138600  0.24687500  0.35188100  1
  Si  Si17  1  0.66861400  0.75312500  0.35188100  1
  Si  Si18  1  0.24687500  0.33138600  0.14811900  1
  Si  Si19  1  0.74687500  0.16861400  0.35188100  1
  Si  Si20  1  0.25312500  0.83138600  0.35188100  1
  Si  Si21  1  0.16861400  0.74687500  0.14811900  1
  Si  Si22  1  0.83138600  0.25312500  0.14811900  1
  Si  Si23  1  0.75312500  0.66861400  0.14811900  1
  O  O24  1  0.24423500  0.10706000  0.58228700  1
  O  O25  1  0.75576500  0.89294000  0.58228700  1
  O  O26  1  0.10706000  0.24423500  0.91771300  1
  O  O27  1  0.60706000  0.25576500  0.58228700  1
  O  O28  1  0.39294000  0.74423500  0.58228700  1
  O  O29  1  0.25576500  0.60706000  0.91771300  1
  O  O30  1  0.74423500  0.39294000  0.91771300  1
  O  O31  1  0.89294000  0.75576500  0.91771300  1
  O  O32  1  0.25576500  0.39294000  0.41771300  1
  O  O33  1  0.74423500  0.60706000  0.41771300  1
  O  O34  1  0.39294000  0.25576500  0.08228700  1
  O  O35  1  0.89294000  0.24423500  0.41771300  1
  O  O36  1  0.10706000  0.75576500  0.41771300  1
  O  O37  1  0.24423500  0.89294000  0.08228700  1
  O  O38  1  0.75576500  0.10706000  0.08228700  1
  O  O39  1  0.25432100  0.04657600  0.37090800  1
  O  O40  1  0.60706000  0.74423500  0.08228700  1
  O  O41  1  0.75432100  0.54657600  0.62909200  1
  O  O42  1  0.45342400  0.24567900  0.87090800  1
  O  O43  1  0.95342400  0.25432100  0.62909200  1
  O  O44  1  0.04657600  0.74567900  0.62909200  1
  O  O45  1  0.25432100  0.95342400  0.87090800  1
  O  O46  1  0.74567900  0.04657600  0.87090800  1
  O  O47  1  0.54657600  0.75432100  0.87090800  1
  O  O48  1  0.70771400  0.70771400  0.25000000  1
  O  O49  1  0.79228600  0.20771400  0.25000000  1
  O  O50  1  0.20771400  0.79228600  0.25000000  1
  O  O51  1  0.29228600  0.29228600  0.25000000  1
  O  O52  1  0.79228600  0.79228600  0.75000000  1
  O  O53  1  0.70771400  0.29228600  0.75000000  1
  O  O54  1  0.29228600  0.70771400  0.75000000  1
  O  O55  1  0.20771400  0.20771400  0.75000000  1
  O  O56  1  0.95342400  0.74567900  0.12909200  1
  O  O57  1  0.75432100  0.45342400  0.12909200  1
  O  O58  1  0.24567900  0.54657600  0.12909200  1
  O  O59  1  0.45342400  0.75432100  0.37090800  1
  O  O60  1  0.54657600  0.24567900  0.37090800  1
  O  O61  1  0.04657600  0.25432100  0.12909200  1
  O  O62  1  0.74567900  0.95342400  0.37090800  1
  O  O63  1  0.24567900  0.45342400  0.62909200  1
