# generated using pymatgen
data_Be3Si3(WO6)2
_symmetry_space_group_name_H-M   'P 1'
_cell_length_a   7.80628000
_cell_length_b   8.17886500
_cell_length_c   16.32184061
_cell_angle_alpha   59.90187179
_cell_angle_beta   90.00000000
_cell_angle_gamma   90.00000000
_symmetry_Int_Tables_number   1
_chemical_formula_structural   Be3Si3(WO6)2
_chemical_formula_sum   'Be12 Si12 W8 O48'
_cell_volume   901.58493545
_cell_formula_units_Z   4
loop_
 _symmetry_equiv_pos_site_id
 _symmetry_equiv_pos_as_xyz
  1  'x, y, z'
loop_
 _atom_site_type_symbol
 _atom_site_label
 _atom_site_symmetry_multiplicity
 _atom_site_fract_x
 _atom_site_fract_y
 _atom_site_fract_z
 _atom_site_occupancy
  Be  Be0  1  0.64566300  0.67154000  0.26129500  1
  Be  Be1  1  0.85172200  0.01867900  0.90043700  1
  Be  Be2  1  0.35172200  0.98132100  0.59956300  1
  Be  Be3  1  0.14827800  0.98132100  0.09956300  1
  Be  Be4  1  0.64827800  0.01867900  0.40043700  1
  Be  Be5  1  0.35437100  0.69875000  0.91205900  1
  Be  Be6  1  0.85437100  0.30125000  0.58794100  1
  Be  Be7  1  0.64562900  0.30125000  0.08794100  1
  Be  Be8  1  0.14562900  0.69875000  0.41205900  1
  Be  Be9  1  0.85433700  0.67154000  0.76129500  1
  Be  Be10  1  0.35433700  0.32846000  0.73870500  1
  Be  Be11  1  0.14566300  0.32846000  0.23870500  1
  Si  Si12  1  0.26663500  0.66674900  0.26467500  1
  Si  Si13  1  0.76663500  0.33325100  0.23532500  1
  Si  Si14  1  0.73336500  0.33325100  0.73532500  1
  Si  Si15  1  0.23336500  0.66674900  0.76467500  1
  Si  Si16  1  0.77049700  0.69437600  0.41655700  1
  Si  Si17  1  0.27049700  0.30562400  0.08344300  1
  Si  Si18  1  0.22950300  0.30562400  0.58344300  1
  Si  Si19  1  0.72950300  0.69437600  0.91655700  1
  Si  Si20  1  0.26681000  0.03000800  0.40233500  1
  Si  Si21  1  0.76681000  0.96999200  0.09766500  1
  Si  Si22  1  0.73319000  0.96999200  0.59766500  1
  Si  Si23  1  0.23319000  0.03000800  0.90233500  1
  W  W24  1  0.04744700  0.65946600  0.58900200  1
  W  W25  1  0.45255300  0.65946600  0.08900200  1
  W  W26  1  0.95255300  0.34053400  0.41099800  1
  W  W27  1  0.54744700  0.34053400  0.91099800  1
  W  W28  1  0.94645400  0.32546900  0.92340400  1
  W  W29  1  0.44645400  0.67453100  0.57659600  1
  W  W30  1  0.05354600  0.67453100  0.07659600  1
  W  W31  1  0.55354600  0.32546900  0.42340400  1
  O  O32  1  0.36777200  0.21337100  0.54037500  1
  O  O33  1  0.45665700  0.59263800  0.31314500  1
  O  O34  1  0.95665700  0.40736200  0.18685500  1
  O  O35  1  0.54334300  0.40736200  0.68685500  1
  O  O36  1  0.04334300  0.59263800  0.81314500  1
  O  O37  1  0.95941300  0.72412200  0.45195700  1
  O  O38  1  0.45941300  0.27587800  0.04804300  1
  O  O39  1  0.04058700  0.27587800  0.54804300  1
  O  O40  1  0.54058700  0.72412200  0.95195700  1
  O  O41  1  0.46064300  0.12026100  0.39012200  1
  O  O42  1  0.96064300  0.87973900  0.10987800  1
  O  O43  1  0.53935700  0.87973900  0.60987800  1
  O  O44  1  0.36694900  0.21356200  0.85525600  1
  O  O45  1  0.86694900  0.78643800  0.64474400  1
  O  O46  1  0.63305100  0.78643800  0.14474400  1
  O  O47  1  0.13305100  0.21356200  0.35525600  1
  O  O48  1  0.86777200  0.78662900  0.95962500  1
  O  O49  1  0.03935700  0.12026100  0.89012200  1
  O  O50  1  0.13222800  0.21337100  0.04037500  1
  O  O51  1  0.63222800  0.78662900  0.45962500  1
  O  O52  1  0.74302500  0.09864700  0.97730200  1
  O  O53  1  0.87091800  0.41814400  0.64554900  1
  O  O54  1  0.62908200  0.41814400  0.14554900  1
  O  O55  1  0.12908200  0.58185600  0.35445100  1
  O  O56  1  0.75868500  0.11401900  0.31108100  1
  O  O57  1  0.25868500  0.88598100  0.18891900  1
  O  O58  1  0.24131500  0.88598100  0.68891900  1
  O  O59  1  0.74131500  0.11401900  0.81108100  1
  O  O60  1  0.75531300  0.75909700  0.30746100  1
  O  O61  1  0.25531300  0.24090300  0.19253900  1
  O  O62  1  0.24468700  0.24090300  0.69253900  1
  O  O63  1  0.74468700  0.75909700  0.80746100  1
  O  O64  1  0.25323900  0.87941600  0.36827400  1
  O  O65  1  0.75323900  0.12058400  0.13172600  1
  O  O66  1  0.74676100  0.12058400  0.63172600  1
  O  O67  1  0.24676100  0.87941600  0.86827400  1
  O  O68  1  0.73836200  0.44223100  0.30061200  1
  O  O69  1  0.23836200  0.55776900  0.19938800  1
  O  O70  1  0.26163800  0.55776900  0.69938800  1
  O  O71  1  0.76163800  0.44223100  0.80061200  1
  O  O72  1  0.75254600  0.45362800  0.47304500  1
  O  O73  1  0.25254600  0.54637200  0.02695500  1
  O  O74  1  0.24745400  0.54637200  0.52695500  1
  O  O75  1  0.74745400  0.45362800  0.97304500  1
  O  O76  1  0.75697500  0.09864700  0.47730200  1
  O  O77  1  0.25697500  0.90135300  0.02269800  1
  O  O78  1  0.24302500  0.90135300  0.52269800  1
  O  O79  1  0.37091800  0.58185600  0.85445100  1
