# generated using pymatgen
data_ZnSi4NiO10
_symmetry_space_group_name_H-M   'P 1'
_cell_length_a   7.27014100
_cell_length_b   7.27014100
_cell_length_c   14.93009500
_cell_angle_alpha   90.00000000
_cell_angle_beta   90.00000000
_cell_angle_gamma   90.00000000
_symmetry_Int_Tables_number   1
_chemical_formula_structural   ZnSi4NiO10
_chemical_formula_sum   'Zn4 Si16 Ni4 O40'
_cell_volume   789.12942711
_cell_formula_units_Z   4
loop_
 _symmetry_equiv_pos_site_id
 _symmetry_equiv_pos_as_xyz
  1  'x, y, z'
loop_
 _atom_site_type_symbol
 _atom_site_label
 _atom_site_symmetry_multiplicity
 _atom_site_fract_x
 _atom_site_fract_y
 _atom_site_fract_z
 _atom_site_occupancy
  Zn  Zn0  1  0.50000000  0.50000000  0.50000000  1
  Zn  Zn1  1  0.00000000  0.00000000  0.50000000  1
  Zn  Zn2  1  0.00000000  0.00000000  0.00000000  1
  Zn  Zn3  1  0.50000000  0.50000000  0.00000000  1
  Si  Si4  1  0.16284900  0.24003100  0.64442100  1
  Si  Si5  1  0.83715100  0.75996900  0.64442100  1
  Si  Si6  1  0.24003100  0.16284900  0.85557900  1
  Si  Si7  1  0.74003100  0.33715100  0.64442100  1
  Si  Si8  1  0.25996900  0.66284900  0.64442100  1
  Si  Si9  1  0.33715100  0.74003100  0.85557900  1
  Si  Si10  1  0.66284900  0.25996900  0.85557900  1
  Si  Si11  1  0.75996900  0.83715100  0.85557900  1
  Si  Si12  1  0.33715100  0.25996900  0.35557900  1
  Si  Si13  1  0.66284900  0.74003100  0.35557900  1
  Si  Si14  1  0.25996900  0.33715100  0.14442100  1
  Si  Si15  1  0.75996900  0.16284900  0.35557900  1
  Si  Si16  1  0.24003100  0.83715100  0.35557900  1
  Si  Si17  1  0.16284900  0.75996900  0.14442100  1
  Si  Si18  1  0.83715100  0.24003100  0.14442100  1
  Si  Si19  1  0.74003100  0.66284900  0.14442100  1
  Ni  Ni20  1  0.50000000  0.00000000  0.57002800  1
  Ni  Ni21  1  0.00000000  0.50000000  0.92997200  1
  Ni  Ni22  1  0.00000000  0.50000000  0.42997200  1
  Ni  Ni23  1  0.50000000  0.00000000  0.07002800  1
  O  O24  1  0.23682800  0.08466100  0.57497600  1
  O  O25  1  0.76317200  0.91533900  0.57497600  1
  O  O26  1  0.08466100  0.23682800  0.92502400  1
  O  O27  1  0.58466100  0.26317200  0.57497600  1
  O  O28  1  0.41533900  0.73682800  0.57497600  1
  O  O29  1  0.26317200  0.58466100  0.92502400  1
  O  O30  1  0.73682800  0.41533900  0.92502400  1
  O  O31  1  0.91533900  0.76317200  0.92502400  1
  O  O32  1  0.26317200  0.41533900  0.42502400  1
  O  O33  1  0.73682800  0.58466100  0.42502400  1
  O  O34  1  0.41533900  0.26317200  0.07497600  1
  O  O35  1  0.91533900  0.23682800  0.42502400  1
  O  O36  1  0.08466100  0.76317200  0.42502400  1
  O  O37  1  0.23682800  0.91533900  0.07497600  1
  O  O38  1  0.76317200  0.08466100  0.07497600  1
  O  O39  1  0.25052300  0.05743900  0.37543400  1
  O  O40  1  0.58466100  0.73682800  0.07497600  1
  O  O41  1  0.75052300  0.55743900  0.62456600  1
  O  O42  1  0.44256100  0.24947700  0.87543400  1
  O  O43  1  0.94256100  0.25052300  0.62456600  1
  O  O44  1  0.05743900  0.74947700  0.62456600  1
  O  O45  1  0.25052300  0.94256100  0.87543400  1
  O  O46  1  0.74947700  0.05743900  0.87543400  1
  O  O47  1  0.55743900  0.75052300  0.87543400  1
  O  O48  1  0.69703900  0.69703900  0.25000000  1
  O  O49  1  0.80296100  0.19703900  0.25000000  1
  O  O50  1  0.19703900  0.80296100  0.25000000  1
  O  O51  1  0.30296100  0.30296100  0.25000000  1
  O  O52  1  0.80296100  0.80296100  0.75000000  1
  O  O53  1  0.69703900  0.30296100  0.75000000  1
  O  O54  1  0.30296100  0.69703900  0.75000000  1
  O  O55  1  0.19703900  0.19703900  0.75000000  1
  O  O56  1  0.94256100  0.74947700  0.12456600  1
  O  O57  1  0.75052300  0.44256100  0.12456600  1
  O  O58  1  0.24947700  0.55743900  0.12456600  1
  O  O59  1  0.44256100  0.75052300  0.37543400  1
  O  O60  1  0.55743900  0.24947700  0.37543400  1
  O  O61  1  0.05743900  0.25052300  0.12456600  1
  O  O62  1  0.74947700  0.94256100  0.37543400  1
  O  O63  1  0.24947700  0.44256100  0.62456600  1
