# generated using pymatgen
data_Zn3Cr2(SiO4)3
_symmetry_space_group_name_H-M   'P 1'
_cell_length_a   10.23797219
_cell_length_b   10.23797219
_cell_length_c   10.23797219
_cell_angle_alpha   109.47122063
_cell_angle_beta   109.47122063
_cell_angle_gamma   109.47122063
_symmetry_Int_Tables_number   1
_chemical_formula_structural   Zn3Cr2(SiO4)3
_chemical_formula_sum   'Zn12 Cr8 Si12 O48'
_cell_volume   826.07588787
_cell_formula_units_Z   4
loop_
 _symmetry_equiv_pos_site_id
 _symmetry_equiv_pos_as_xyz
  1  'x, y, z'
loop_
 _atom_site_type_symbol
 _atom_site_label
 _atom_site_symmetry_multiplicity
 _atom_site_fract_x
 _atom_site_fract_y
 _atom_site_fract_z
 _atom_site_occupancy
  Zn  Zn0  1  0.25000000  0.37500000  0.12500000  1
  Zn  Zn1  1  0.75000000  0.12500000  0.37500000  1
  Zn  Zn2  1  0.37500000  0.12500000  0.25000000  1
  Zn  Zn3  1  0.12500000  0.37500000  0.75000000  1
  Zn  Zn4  1  0.25000000  0.87500000  0.62500000  1
  Zn  Zn5  1  0.12500000  0.25000000  0.37500000  1
  Zn  Zn6  1  0.62500000  0.25000000  0.87500000  1
  Zn  Zn7  1  0.75000000  0.62500000  0.87500000  1
  Zn  Zn8  1  0.87500000  0.75000000  0.62500000  1
  Zn  Zn9  1  0.87500000  0.62500000  0.25000000  1
  Zn  Zn10  1  0.62500000  0.87500000  0.75000000  1
  Zn  Zn11  1  0.37500000  0.75000000  0.12500000  1
  Cr  Cr12  1  0.50000000  0.00000000  0.00000000  1
  Cr  Cr13  1  0.50000000  0.50000000  0.00000000  1
  Cr  Cr14  1  0.00000000  0.50000000  0.50000000  1
  Cr  Cr15  1  0.00000000  0.00000000  0.50000000  1
  Cr  Cr16  1  0.50000000  0.50000000  0.50000000  1
  Cr  Cr17  1  0.00000000  0.50000000  0.00000000  1
  Cr  Cr18  1  0.50000000  0.00000000  0.50000000  1
  Cr  Cr19  1  0.00000000  0.00000000  0.00000000  1
  Si  Si20  1  0.12500000  0.75000000  0.87500000  1
  Si  Si21  1  0.87500000  0.25000000  0.12500000  1
  Si  Si22  1  0.75000000  0.37500000  0.62500000  1
  Si  Si23  1  0.12500000  0.87500000  0.25000000  1
  Si  Si24  1  0.25000000  0.12500000  0.87500000  1
  Si  Si25  1  0.37500000  0.62500000  0.75000000  1
  Si  Si26  1  0.37500000  0.25000000  0.62500000  1
  Si  Si27  1  0.87500000  0.12500000  0.75000000  1
  Si  Si28  1  0.62500000  0.37500000  0.25000000  1
  Si  Si29  1  0.75000000  0.87500000  0.12500000  1
  Si  Si30  1  0.25000000  0.62500000  0.37500000  1
  Si  Si31  1  0.62500000  0.75000000  0.37500000  1
  O  O32  1  0.58508500  0.89445000  0.37657300  1
  O  O33  1  0.37657300  0.58508500  0.89445000  1
  O  O34  1  0.29148900  0.30936500  0.91491500  1
  O  O35  1  0.48212400  0.60555000  0.19063500  1
  O  O36  1  0.30936500  0.89445000  0.01787600  1
  O  O37  1  0.12342700  0.01787600  0.20851100  1
  O  O38  1  0.37657300  0.29148900  0.48212400  1
  O  O39  1  0.89445000  0.37657300  0.58508500  1
  O  O40  1  0.19063500  0.20851100  0.58508500  1
  O  O41  1  0.48212400  0.37657300  0.29148900  1
  O  O42  1  0.89445000  0.01787600  0.30936500  1
  O  O43  1  0.60555000  0.91491500  0.12342700  1
  O  O44  1  0.91491500  0.12342700  0.60555000  1
  O  O45  1  0.29148900  0.48212400  0.37657300  1
  O  O46  1  0.58508500  0.19063500  0.20851100  1
  O  O47  1  0.20851100  0.58508500  0.19063500  1
  O  O48  1  0.01787600  0.30936500  0.89445000  1
  O  O49  1  0.91491500  0.29148900  0.30936500  1
  O  O50  1  0.01787600  0.20851100  0.12342700  1
  O  O51  1  0.80936500  0.79148900  0.41491500  1
  O  O52  1  0.19063500  0.48212400  0.60555000  1
  O  O53  1  0.60555000  0.19063500  0.48212400  1
  O  O54  1  0.20851100  0.12342700  0.01787600  1
  O  O55  1  0.12342700  0.60555000  0.91491500  1
  O  O56  1  0.41491500  0.10555000  0.62342700  1
  O  O57  1  0.62342700  0.41491500  0.10555000  1
  O  O58  1  0.70851100  0.69063500  0.08508500  1
  O  O59  1  0.51787600  0.39445000  0.80936500  1
  O  O60  1  0.69063500  0.10555000  0.98212400  1
  O  O61  1  0.87657300  0.98212400  0.79148900  1
  O  O62  1  0.62342700  0.70851100  0.51787600  1
  O  O63  1  0.10555000  0.62342700  0.41491500  1
  O  O64  1  0.87657300  0.39445000  0.08508500  1
  O  O65  1  0.79148900  0.87657300  0.98212400  1
  O  O66  1  0.39445000  0.80936500  0.51787600  1
  O  O67  1  0.69063500  0.08508500  0.70851100  1
  O  O68  1  0.80936500  0.51787600  0.39445000  1
  O  O69  1  0.98212400  0.79148900  0.87657300  1
  O  O70  1  0.08508500  0.70851100  0.69063500  1
  O  O71  1  0.98212400  0.69063500  0.10555000  1
  O  O72  1  0.79148900  0.41491500  0.80936500  1
  O  O73  1  0.41491500  0.80936500  0.79148900  1
  O  O74  1  0.70851100  0.51787600  0.62342700  1
  O  O75  1  0.08508500  0.87657300  0.39445000  1
  O  O76  1  0.39445000  0.08508500  0.87657300  1
  O  O77  1  0.10555000  0.98212400  0.69063500  1
  O  O78  1  0.51787600  0.62342700  0.70851100  1
  O  O79  1  0.30936500  0.91491500  0.29148900  1
