# generated using pymatgen
data_Na3CaAl3Si3CO15
_symmetry_space_group_name_H-M   'P 1'
_cell_length_a   12.12219800
_cell_length_b   12.12219850
_cell_length_c   5.75004700
_cell_angle_alpha   90.00000000
_cell_angle_beta   90.00000000
_cell_angle_gamma   120.00000335
_symmetry_Int_Tables_number   1
_chemical_formula_structural   Na3CaAl3Si3CO15
_chemical_formula_sum   'Na6 Ca2 Al6 Si6 C2 O30'
_cell_volume   731.75344611
_cell_formula_units_Z   2
loop_
 _symmetry_equiv_pos_site_id
 _symmetry_equiv_pos_as_xyz
  1  'x, y, z'
loop_
 _atom_site_type_symbol
 _atom_site_label
 _atom_site_symmetry_multiplicity
 _atom_site_fract_x
 _atom_site_fract_y
 _atom_site_fract_z
 _atom_site_occupancy
  Na  Na0  1  0.93514600  0.47416200  0.71951900  1
  Na  Na1  1  0.06485400  0.52583800  0.21951900  1
  Na  Na2  1  0.52583800  0.46098400  0.71951900  1
  Na  Na3  1  0.47416200  0.53901600  0.21951900  1
  Na  Na4  1  0.46098400  0.93514600  0.21951900  1
  Na  Na5  1  0.53901600  0.06485400  0.71951900  1
  Ca  Ca6  1  0.33333300  0.66666700  0.62489800  1
  Ca  Ca7  1  0.66666700  0.33333300  0.12489800  1
  Al  Al8  1  0.03688400  0.75014400  0.22966700  1
  Al  Al9  1  0.28674000  0.03688400  0.72966700  1
  Al  Al10  1  0.75014400  0.71326000  0.72966700  1
  Al  Al11  1  0.24985600  0.28674000  0.22966700  1
  Al  Al12  1  0.71326000  0.96311600  0.22966700  1
  Al  Al13  1  0.96311600  0.24985600  0.72966700  1
  Si  Si14  1  0.29200600  0.03730700  0.22979100  1
  Si  Si15  1  0.25469700  0.29200600  0.72979100  1
  Si  Si16  1  0.03730700  0.74530300  0.72979100  1
  Si  Si17  1  0.96269300  0.25469700  0.22979100  1
  Si  Si18  1  0.74530300  0.70799400  0.22979100  1
  Si  Si19  1  0.70799400  0.96269300  0.72979100  1
  C  C20  1  0.33333300  0.66666700  0.23048100  1
  C  C21  1  0.66666700  0.33333300  0.73048100  1
  O  O22  1  0.71656900  0.26068900  0.75309300  1
  O  O23  1  0.45588000  0.71656900  0.25309300  1
  O  O24  1  0.62365900  0.95865500  0.96657400  1
  O  O25  1  0.62241500  0.95750100  0.49290400  1
  O  O26  1  0.71483100  0.83441800  0.72903800  1
  O  O27  1  0.75255700  0.84432300  0.22767300  1
  O  O28  1  0.83441800  0.11958700  0.22903800  1
  O  O29  1  0.66491500  0.62241500  0.99290400  1
  O  O30  1  0.66500400  0.62365900  0.46657400  1
  O  O31  1  0.84432300  0.09176600  0.72767300  1
  O  O32  1  0.95865500  0.33499600  0.46657400  1
  O  O33  1  0.95750100  0.33508500  0.99290400  1
  O  O34  1  0.26068900  0.54412000  0.25309300  1
  O  O35  1  0.90823400  0.75255700  0.72767300  1
  O  O36  1  0.88041300  0.71483100  0.22903800  1
  O  O37  1  0.11958700  0.28516900  0.72903800  1
  O  O38  1  0.09176600  0.24744300  0.22767300  1
  O  O39  1  0.73931100  0.45588000  0.75309300  1
  O  O40  1  0.04249900  0.66491500  0.49290400  1
  O  O41  1  0.04134500  0.66500400  0.96657400  1
  O  O42  1  0.15567700  0.90823400  0.22767300  1
  O  O43  1  0.33499600  0.37634100  0.96657400  1
  O  O44  1  0.33508500  0.37758500  0.49290400  1
  O  O45  1  0.16558100  0.88041300  0.72903800  1
  O  O46  1  0.24744300  0.15567700  0.72767300  1
  O  O47  1  0.28516900  0.16558100  0.22903800  1
  O  O48  1  0.37758500  0.04249900  0.99290400  1
  O  O49  1  0.37634100  0.04134500  0.46657400  1
  O  O50  1  0.54412000  0.28343100  0.75309300  1
  O  O51  1  0.28343100  0.73931100  0.25309300  1
