# generated using pymatgen
data_AlCr3O6
_symmetry_space_group_name_H-M   'P 1'
_cell_length_a   5.90849408
_cell_length_b   5.90849408
_cell_length_c   14.48203900
_cell_angle_alpha   90.00000000
_cell_angle_beta   90.00000000
_cell_angle_gamma   120.00000095
_symmetry_Int_Tables_number   1
_chemical_formula_structural   AlCr3O6
_chemical_formula_sum   'Al4 Cr12 O24'
_cell_volume   437.83850314
_cell_formula_units_Z   4
loop_
 _symmetry_equiv_pos_site_id
 _symmetry_equiv_pos_as_xyz
  1  'x, y, z'
loop_
 _atom_site_type_symbol
 _atom_site_label
 _atom_site_symmetry_multiplicity
 _atom_site_fract_x
 _atom_site_fract_y
 _atom_site_fract_z
 _atom_site_occupancy
  Al  Al0  1  0.33333300  0.66666700  0.45475700  1
  Al  Al1  1  0.00000000  0.00000000  0.12702700  1
  Al  Al2  1  0.00000000  0.00000000  0.87297300  1
  Al  Al3  1  0.66666700  0.33333300  0.54524300  1
  Cr  Cr4  1  0.50000000  0.50000000  0.00000000  1
  Cr  Cr5  1  0.16996500  0.83003500  0.66796800  1
  Cr  Cr6  1  0.83003500  0.16996500  0.33203200  1
  Cr  Cr7  1  0.50000000  0.00000000  0.00000000  1
  Cr  Cr8  1  0.16996500  0.33993000  0.66796800  1
  Cr  Cr9  1  0.83003500  0.66007000  0.33203200  1
  Cr  Cr10  1  0.33333300  0.66666700  0.82887800  1
  Cr  Cr11  1  0.00000000  0.00000000  0.50000000  1
  Cr  Cr12  1  0.66666700  0.33333300  0.17112200  1
  Cr  Cr13  1  0.00000000  0.50000000  0.00000000  1
  Cr  Cr14  1  0.66007000  0.83003500  0.66796800  1
  Cr  Cr15  1  0.33993000  0.16996500  0.33203200  1
  O  O16  1  0.66666700  0.33333300  0.93679700  1
  O  O17  1  0.33333300  0.66666700  0.58123200  1
  O  O18  1  0.00000000  0.00000000  0.25513600  1
  O  O19  1  0.66306300  0.83153200  0.91583100  1
  O  O20  1  0.32440600  0.16220300  0.58190000  1
  O  O21  1  0.96277300  0.48138600  0.25830500  1
  O  O22  1  0.16846800  0.83153200  0.91583100  1
  O  O23  1  0.83779700  0.16220300  0.58190000  1
  O  O24  1  0.51861400  0.48138600  0.25830500  1
  O  O25  1  0.16846800  0.33693700  0.91583100  1
  O  O26  1  0.83779700  0.67559400  0.58190000  1
  O  O27  1  0.51861400  0.03722700  0.25830500  1
  O  O28  1  0.03722700  0.51861400  0.74169500  1
  O  O29  1  0.67559400  0.83779700  0.41810000  1
  O  O30  1  0.33693700  0.16846800  0.08416900  1
  O  O31  1  0.00000000  0.00000000  0.74486400  1
  O  O32  1  0.66666700  0.33333300  0.41876800  1
  O  O33  1  0.33333300  0.66666700  0.06320300  1
  O  O34  1  0.48138600  0.51861400  0.74169500  1
  O  O35  1  0.16220300  0.83779700  0.41810000  1
  O  O36  1  0.83153200  0.16846800  0.08416900  1
  O  O37  1  0.48138600  0.96277300  0.74169500  1
  O  O38  1  0.16220300  0.32440600  0.41810000  1
  O  O39  1  0.83153200  0.66306300  0.08416900  1
