# generated using pymatgen
data_Mg3Cu2(Si2O7)2
_symmetry_space_group_name_H-M   'P 1'
_cell_length_a   9.41061632
_cell_length_b   9.41061632
_cell_length_c   9.95144157
_cell_angle_alpha   58.14275325
_cell_angle_beta   58.14275325
_cell_angle_gamma   47.86914716
_symmetry_Int_Tables_number   1
_chemical_formula_structural   Mg3Cu2(Si2O7)2
_chemical_formula_sum   'Mg6 Cu4 Si8 O28'
_cell_volume   533.59678419
_cell_formula_units_Z   2
loop_
 _symmetry_equiv_pos_site_id
 _symmetry_equiv_pos_as_xyz
  1  'x, y, z'
loop_
 _atom_site_type_symbol
 _atom_site_label
 _atom_site_symmetry_multiplicity
 _atom_site_fract_x
 _atom_site_fract_y
 _atom_site_fract_z
 _atom_site_occupancy
  Mg  Mg0  1  0.25975900  0.07040600  0.54828500  1
  Mg  Mg1  1  0.92959400  0.74024100  0.95171500  1
  Mg  Mg2  1  0.07040600  0.25975900  0.04828500  1
  Mg  Mg3  1  0.60849200  0.39150800  0.25000000  1
  Mg  Mg4  1  0.74024100  0.92959400  0.45171500  1
  Mg  Mg5  1  0.39150800  0.60849200  0.75000000  1
  Cu  Cu6  1  0.21998200  0.78001800  0.25000000  1
  Cu  Cu7  1  0.78001800  0.21998200  0.75000000  1
  Cu  Cu8  1  0.00000000  0.00000000  0.00000000  1
  Cu  Cu9  1  0.00000000  0.00000000  0.50000000  1
  Si  Si10  1  0.07193900  0.55825100  0.67059300  1
  Si  Si11  1  0.55825100  0.07193900  0.17059300  1
  Si  Si12  1  0.25287100  0.51203200  0.12957000  1
  Si  Si13  1  0.51203200  0.25287100  0.62957000  1
  Si  Si14  1  0.44174900  0.92806100  0.82940700  1
  Si  Si15  1  0.74712900  0.48796800  0.87043000  1
  Si  Si16  1  0.48796800  0.74712900  0.37043000  1
  Si  Si17  1  0.92806100  0.44174900  0.32940700  1
  O  O18  1  0.32708500  0.81842700  0.53836200  1
  O  O19  1  0.88653800  0.98505800  0.72152200  1
  O  O20  1  0.63551800  0.45239100  0.81976200  1
  O  O21  1  0.98505800  0.88653800  0.22152200  1
  O  O22  1  0.02245500  0.21420600  0.45535100  1
  O  O23  1  0.50551600  0.07177700  0.79664900  1
  O  O24  1  0.45239100  0.63551800  0.31976200  1
  O  O25  1  0.78579400  0.97754500  0.04464900  1
  O  O26  1  0.49448400  0.92822300  0.20335100  1
  O  O27  1  0.70143900  0.60160300  0.41666200  1
  O  O28  1  0.11346200  0.01494200  0.27847800  1
  O  O29  1  0.97754500  0.78579400  0.54464900  1
  O  O30  1  0.92822300  0.49448400  0.70335100  1
  O  O31  1  0.81842700  0.32708500  0.03836200  1
  O  O32  1  0.60160300  0.70143900  0.91666200  1
  O  O33  1  0.21420600  0.02245500  0.95535100  1
  O  O34  1  0.46777100  0.92471400  0.65746400  1
  O  O35  1  0.29856100  0.39839700  0.58333800  1
  O  O36  1  0.07528600  0.53222900  0.84253600  1
  O  O37  1  0.39839700  0.29856100  0.08333800  1
  O  O38  1  0.07177700  0.50551600  0.29664900  1
  O  O39  1  0.01494200  0.11346200  0.77847800  1
  O  O40  1  0.92471400  0.46777100  0.15746400  1
  O  O41  1  0.36448200  0.54760900  0.18023800  1
  O  O42  1  0.53222900  0.07528600  0.34253600  1
  O  O43  1  0.54760900  0.36448200  0.68023800  1
  O  O44  1  0.18157300  0.67291500  0.96163800  1
  O  O45  1  0.67291500  0.18157300  0.46163800  1
