# generated using pymatgen
data_MnZn(SiO3)2
_symmetry_space_group_name_H-M   'P 1'
_cell_length_a   5.33966000
_cell_length_b   9.20751200
_cell_length_c   18.77025200
_cell_angle_alpha   90.00000000
_cell_angle_beta   90.00000000
_cell_angle_gamma   90.00000000
_symmetry_Int_Tables_number   1
_chemical_formula_structural   MnZn(SiO3)2
_chemical_formula_sum   'Mn8 Zn8 Si16 O48'
_cell_volume   922.83913036
_cell_formula_units_Z   8
loop_
 _symmetry_equiv_pos_site_id
 _symmetry_equiv_pos_as_xyz
  1  'x, y, z'
loop_
 _atom_site_type_symbol
 _atom_site_label
 _atom_site_symmetry_multiplicity
 _atom_site_fract_x
 _atom_site_fract_y
 _atom_site_fract_z
 _atom_site_occupancy
  Mn  Mn0  1  0.37989700  0.98813800  0.87683200  1
  Mn  Mn1  1  0.62010300  0.01186200  0.12316800  1
  Mn  Mn2  1  0.87989700  0.01186200  0.62316800  1
  Mn  Mn3  1  0.12010300  0.98813800  0.37683200  1
  Mn  Mn4  1  0.37989700  0.48813800  0.62316800  1
  Mn  Mn5  1  0.62010300  0.51186200  0.37683200  1
  Mn  Mn6  1  0.87989700  0.51186200  0.87683200  1
  Mn  Mn7  1  0.12010300  0.48813800  0.12316800  1
  Zn  Zn8  1  0.61615500  0.14807500  0.37512600  1
  Zn  Zn9  1  0.38384500  0.85192500  0.62487400  1
  Zn  Zn10  1  0.61615500  0.64807500  0.12487400  1
  Zn  Zn11  1  0.11615500  0.85192500  0.12487400  1
  Zn  Zn12  1  0.88384500  0.14807500  0.87512600  1
  Zn  Zn13  1  0.38384500  0.35192500  0.87512600  1
  Zn  Zn14  1  0.11615500  0.35192500  0.37512600  1
  Zn  Zn15  1  0.88384500  0.64807500  0.62487400  1
  Si  Si16  1  0.56246100  0.66200100  0.77135900  1
  Si  Si17  1  0.70779200  0.83522400  0.47533700  1
  Si  Si18  1  0.79220800  0.83522400  0.97533700  1
  Si  Si19  1  0.93753900  0.16200100  0.22864100  1
  Si  Si20  1  0.06246100  0.33799900  0.72864100  1
  Si  Si21  1  0.43753900  0.83799900  0.27135900  1
  Si  Si22  1  0.20779200  0.66477600  0.47533700  1
  Si  Si23  1  0.70779200  0.33522400  0.02466300  1
  Si  Si24  1  0.79220800  0.33522400  0.52466300  1
  Si  Si25  1  0.93753900  0.66200100  0.27135900  1
  Si  Si26  1  0.43753900  0.33799900  0.22864100  1
  Si  Si27  1  0.56246100  0.16200100  0.72864100  1
  Si  Si28  1  0.29220800  0.16477600  0.52466300  1
  Si  Si29  1  0.06246100  0.83799900  0.77135900  1
  Si  Si30  1  0.29220800  0.66477600  0.97533700  1
  Si  Si31  1  0.20779200  0.16477600  0.02466300  1
  O  O32  1  0.93631700  0.50471300  0.30985600  1
  O  O33  1  0.29075600  0.01645100  0.06458600  1
  O  O34  1  0.06368300  0.49528700  0.69014400  1
  O  O35  1  0.70728000  0.33809400  0.93712000  1
  O  O36  1  0.20728000  0.16190600  0.93712000  1
  O  O37  1  0.91920900  0.21090900  0.05082800  1
  O  O38  1  0.94256700  0.66292500  0.18399900  1
  O  O39  1  0.05743300  0.83707500  0.68399900  1
  O  O40  1  0.70728000  0.83809400  0.56288000  1
  O  O41  1  0.94256700  0.16292500  0.31600100  1
  O  O42  1  0.43631700  0.49528700  0.19014400  1
  O  O43  1  0.79272000  0.33809400  0.43712000  1
  O  O44  1  0.70924400  0.98354900  0.93541400  1
  O  O45  1  0.44256700  0.83707500  0.18399900  1
  O  O46  1  0.56368300  0.00471300  0.69014400  1
  O  O47  1  0.29075600  0.51645100  0.43541400  1
  O  O48  1  0.43631700  0.99528700  0.30985600  1
  O  O49  1  0.16906600  0.76594000  0.30082900  1
  O  O50  1  0.33093400  0.76594000  0.80082900  1
  O  O51  1  0.58079100  0.71090900  0.94917200  1
  O  O52  1  0.79272000  0.83809400  0.06288000  1
  O  O53  1  0.55743300  0.66292500  0.68399900  1
  O  O54  1  0.79075600  0.48354900  0.06458600  1
  O  O55  1  0.16906600  0.26594000  0.19917100  1
  O  O56  1  0.29272000  0.16190600  0.43712000  1
  O  O57  1  0.55743300  0.16292500  0.81600100  1
  O  O58  1  0.70924400  0.48354900  0.56458600  1
  O  O59  1  0.20728000  0.66190600  0.56288000  1
  O  O60  1  0.20924400  0.51645100  0.93541400  1
  O  O61  1  0.66906600  0.73406000  0.30082900  1
  O  O62  1  0.06368300  0.99528700  0.80985600  1
  O  O63  1  0.83093400  0.73406000  0.80082900  1
  O  O64  1  0.83093400  0.23406000  0.69917100  1
  O  O65  1  0.79075600  0.98354900  0.43541400  1
  O  O66  1  0.29272000  0.66190600  0.06288000  1
  O  O67  1  0.20924400  0.01645100  0.56458600  1
  O  O68  1  0.33093400  0.26594000  0.69917100  1
  O  O69  1  0.08079100  0.78909100  0.94917200  1
  O  O70  1  0.41920900  0.78909100  0.44917200  1
  O  O71  1  0.66906600  0.23406000  0.19917100  1
  O  O72  1  0.41920900  0.28909100  0.05082800  1
  O  O73  1  0.58079100  0.21090900  0.55082800  1
  O  O74  1  0.08079100  0.28909100  0.55082800  1
  O  O75  1  0.44256700  0.33707500  0.31600100  1
  O  O76  1  0.56368300  0.50471300  0.80985600  1
  O  O77  1  0.91920900  0.71090900  0.44917200  1
  O  O78  1  0.05743300  0.33707500  0.81600100  1
  O  O79  1  0.93631700  0.00471300  0.19014400  1
