# generated using pymatgen
data_Ba2AlBi3O8
_symmetry_space_group_name_H-M   'P 1'
_cell_length_a   4.31198500
_cell_length_b   4.31198500
_cell_length_c   13.63273000
_cell_angle_alpha   90.00000000
_cell_angle_beta   90.00000000
_cell_angle_gamma   90.00000000
_symmetry_Int_Tables_number   1
_chemical_formula_structural   Ba2AlBi3O8
_chemical_formula_sum   'Ba2 Al1 Bi3 O8'
_cell_volume   253.47627502
_cell_formula_units_Z   1
loop_
 _symmetry_equiv_pos_site_id
 _symmetry_equiv_pos_as_xyz
  1  'x, y, z'
loop_
 _atom_site_type_symbol
 _atom_site_label
 _atom_site_symmetry_multiplicity
 _atom_site_fract_x
 _atom_site_fract_y
 _atom_site_fract_z
 _atom_site_occupancy
  Ba  Ba0  1  0.50000000  0.50000000  0.14689300  1
  Ba  Ba1  1  0.50000000  0.50000000  0.85310700  1
  Al  Al2  1  0.50000000  0.50000000  0.50000000  1
  Bi  Bi3  1  0.00000000  0.00000000  0.34981900  1
  Bi  Bi4  1  0.00000000  0.00000000  0.00000000  1
  Bi  Bi5  1  0.00000000  0.00000000  0.65018100  1
  O  O6  1  0.00000000  0.50000000  0.40645300  1
  O  O7  1  0.50000000  0.00000000  0.40645300  1
  O  O8  1  0.50000000  0.00000000  0.00000000  1
  O  O9  1  0.00000000  0.00000000  0.17643100  1
  O  O10  1  0.00000000  0.50000000  0.59354700  1
  O  O11  1  0.50000000  0.00000000  0.59354700  1
  O  O12  1  0.00000000  0.00000000  0.82356900  1
  O  O13  1  0.00000000  0.50000000  0.00000000  1
