# generated using pymatgen
data_Li4V2Si(PO6)2
_symmetry_space_group_name_H-M   'P 1'
_cell_length_a   8.98135935
_cell_length_b   8.48030801
_cell_length_c   12.41356769
_cell_angle_alpha   94.60047757
_cell_angle_beta   89.96359804
_cell_angle_gamma   89.99773548
_symmetry_Int_Tables_number   1
_chemical_formula_structural   Li4V2Si(PO6)2
_chemical_formula_sum   'Li16 V8 Si4 P8 O48'
_cell_volume   942.42926249
_cell_formula_units_Z   4
loop_
 _symmetry_equiv_pos_site_id
 _symmetry_equiv_pos_as_xyz
  1  'x, y, z'
loop_
 _atom_site_type_symbol
 _atom_site_label
 _atom_site_symmetry_multiplicity
 _atom_site_fract_x
 _atom_site_fract_y
 _atom_site_fract_z
 _atom_site_occupancy
  Li  Li0  1  0.96485000  0.44504800  0.29791200  1
  Li  Li1  1  0.74550900  0.75700900  0.25109500  1
  Li  Li2  1  0.65533200  0.75910000  0.49337400  1
  Li  Li3  1  0.75565500  0.75804900  0.74961300  1
  Li  Li4  1  0.45265600  0.54588800  0.20945700  1
  Li  Li5  1  0.96225300  0.03261600  0.69761500  1
  Li  Li6  1  0.84474900  0.75901100  0.99388100  1
  Li  Li7  1  0.53712000  0.03194900  0.19812600  1
  Li  Li8  1  0.44010300  0.00069800  0.80987000  1
  Li  Li9  1  0.16693400  0.22322700  0.99007900  1
  Li  Li10  1  0.53306500  0.45705600  0.80329700  1
  Li  Li11  1  0.05809300  0.99741600  0.30969100  1
  Li  Li12  1  0.26514500  0.24654500  0.24527300  1
  Li  Li13  1  0.33428200  0.22445100  0.49313900  1
  Li  Li14  1  0.23509100  0.24721900  0.74443700  1
  Li  Li15  1  0.04705100  0.54517700  0.70858600  1
  V  V16  1  0.74873500  0.46413100  0.10876200  1
  V  V17  1  0.24927000  0.96554200  0.10814700  1
  V  V18  1  0.75122400  0.46429600  0.60864800  1
  V  V19  1  0.75167600  0.03643700  0.38950500  1
  V  V20  1  0.25022900  0.96707200  0.60724200  1
  V  V21  1  0.74781700  0.03657600  0.88921400  1
  V  V22  1  0.25528000  0.53197000  0.39409700  1
  V  V23  1  0.24385400  0.53244600  0.89379400  1
  Si  Si24  1  0.45344600  0.25315100  0.00182700  1
  Si  Si25  1  0.39841100  0.89646800  0.35126300  1
  Si  Si26  1  0.10214600  0.89686500  0.85131700  1
  Si  Si27  1  0.04603600  0.25397300  0.50165100  1
  P  P28  1  0.94883400  0.75128700  0.50106700  1
  P  P29  1  0.89777400  0.09806600  0.14699900  1
  P  P30  1  0.55112900  0.74997900  0.00052700  1
  P  P31  1  0.60458000  0.40149200  0.35199700  1
  P  P32  1  0.89516000  0.40117200  0.85195400  1
  P  P33  1  0.60294600  0.09743400  0.64667400  1
  P  P34  1  0.10248900  0.59792400  0.14913700  1
  P  P35  1  0.39696600  0.59676100  0.64840100  1
  O  O36  1  0.93028800  0.59391400  0.17016700  1
  O  O37  1  0.85160800  0.27360200  0.16196200  1
  O  O38  1  0.84500500  0.81744700  0.41352300  1
  O  O39  1  0.66230800  0.68541500  0.08500500  1
  O  O40  1  0.85084100  0.01915100  0.03662100  1
  O  O41  1  0.94640400  0.12494200  0.42851100  1
  O  O42  1  0.83716600  0.68666800  0.58534500  1
  O  O43  1  0.45794500  0.87473500  0.06725700  1
  O  O44  1  0.94680700  0.38467500  0.57313900  1
  O  O45  1  0.91999400  0.90426700  0.82994500  1
  O  O46  1  0.82965500  0.99346300  0.23259300  1
  O  O47  1  0.67111600  0.50831900  0.26633500  1
  O  O48  1  0.58082700  0.90206900  0.32990000  1
  O  O49  1  0.55375000  0.38273200  0.07346900  1
  O  O50  1  0.65050400  0.48365600  0.46145600  1
  O  O51  1  0.82891000  0.50837700  0.76653400  1
  O  O52  1  0.32552200  0.00726200  0.26127000  1
  O  O53  1  0.65607400  0.22882500  0.33720500  1
  O  O54  1  0.36005500  0.70811800  0.33725800  1
  O  O55  1  0.84360100  0.22861300  0.83712200  1
  O  O56  1  0.34110200  0.17953700  0.09036000  1
  O  O57  1  0.84951800  0.48280000  0.96169300  1
  O  O58  1  0.34130600  0.98058000  0.46617900  1
  O  O59  1  0.43265000  0.39442900  0.33082400  1
  O  O60  1  0.56910300  0.59171600  0.67001200  1
  O  O61  1  0.64888900  0.01613800  0.53672300  1
  O  O62  1  0.14779500  0.51777300  0.03869500  1
  O  O63  1  0.65576900  0.81727200  0.91401100  1
  O  O64  1  0.65388200  0.27094800  0.66026100  1
  O  O65  1  0.14819600  0.77257300  0.16078000  1
  O  O66  1  0.35195400  0.77105100  0.65827100  1
  O  O67  1  0.17110500  0.49438500  0.23575800  1
  O  O68  1  0.66942200  0.99261600  0.73277600  1
  O  O69  1  0.35156200  0.51411300  0.53867000  1
  O  O70  1  0.45444900  0.62466100  0.93767400  1
  O  O71  1  0.43142700  0.10230600  0.66841100  1
  O  O72  1  0.32814800  0.49468400  0.73597900  1
  O  O73  1  0.17625700  0.00607500  0.76061700  1
  O  O74  1  0.06897900  0.09965300  0.16911300  1
  O  O75  1  0.04742100  0.62645000  0.44001500  1
  O  O76  1  0.55267700  0.12376800  0.92876600  1
  O  O77  1  0.15816800  0.32239000  0.40989000  1
  O  O78  1  0.03979900  0.87856900  0.56731000  1
  O  O79  1  0.16097600  0.98013600  0.96563800  1
  O  O80  1  0.34156200  0.32287500  0.91044000  1
  O  O81  1  0.15730600  0.18089300  0.59070800  1
  O  O82  1  0.13908800  0.70810100  0.83708900  1
  O  O83  1  0.06722600  0.39375600  0.83105600  1
