# generated using pymatgen
data_AlSn(WO4)2
_symmetry_space_group_name_H-M   'P 1'
_cell_length_a   4.97105400
_cell_length_b   5.46103690
_cell_length_c   6.24264507
_cell_angle_alpha   112.73812978
_cell_angle_beta   101.81653772
_cell_angle_gamma   95.19692519
_symmetry_Int_Tables_number   1
_chemical_formula_structural   AlSn(WO4)2
_chemical_formula_sum   'Al1 Sn1 W2 O8'
_cell_volume   150.25811840
_cell_formula_units_Z   1
loop_
 _symmetry_equiv_pos_site_id
 _symmetry_equiv_pos_as_xyz
  1  'x, y, z'
loop_
 _atom_site_type_symbol
 _atom_site_label
 _atom_site_symmetry_multiplicity
 _atom_site_fract_x
 _atom_site_fract_y
 _atom_site_fract_z
 _atom_site_occupancy
  Al  Al0  1  0.53218900  0.15213600  0.89780600  1
  Sn  Sn1  1  0.98998500  0.72764100  0.89321700  1
  W  W2  1  0.27514400  0.60429600  0.38410900  1
  W  W3  1  0.81259000  0.02270700  0.43694700  1
  O  O4  1  0.35754200  0.36138100  0.11036100  1
  O  O5  1  0.11938200  0.36795500  0.49725700  1
  O  O6  1  0.42712700  0.89493700  0.27938100  1
  O  O7  1  0.20766700  0.95497900  0.65439100  1
  O  O8  1  0.75973100  0.03935500  0.09076500  1
  O  O9  1  0.73905400  0.28092600  0.73939000  1
  O  O10  1  0.65310200  0.74990100  0.58947700  1
  O  O11  1  0.92638900  0.66528800  0.23080400  1
