# generated using pymatgen
data_AlBi(WO4)2
_symmetry_space_group_name_H-M   'P 1'
_cell_length_a   6.29973900
_cell_length_b   5.13710200
_cell_length_c   10.72214123
_cell_angle_alpha   64.89974107
_cell_angle_beta   90.00000000
_cell_angle_gamma   90.00000000
_symmetry_Int_Tables_number   1
_chemical_formula_structural   AlBi(WO4)2
_chemical_formula_sum   'Al2 Bi2 W4 O16'
_cell_volume   314.22649447
_cell_formula_units_Z   2
loop_
 _symmetry_equiv_pos_site_id
 _symmetry_equiv_pos_as_xyz
  1  'x, y, z'
loop_
 _atom_site_type_symbol
 _atom_site_label
 _atom_site_symmetry_multiplicity
 _atom_site_fract_x
 _atom_site_fract_y
 _atom_site_fract_z
 _atom_site_occupancy
  Al  Al0  1  0.78357900  0.00000000  0.75000000  1
  Al  Al1  1  0.21642100  0.00000000  0.25000000  1
  Bi  Bi2  1  0.37309800  0.50000000  0.75000000  1
  Bi  Bi3  1  0.62690200  0.50000000  0.25000000  1
  W  W4  1  0.15172900  0.25749000  0.48766300  1
  W  W5  1  0.15172900  0.74251000  0.01233700  1
  W  W6  1  0.84827100  0.74251000  0.51233700  1
  W  W7  1  0.84827100  0.25749000  0.98766300  1
  O  O8  1  0.36779000  0.71598000  0.90351600  1
  O  O9  1  0.36779000  0.28402000  0.59648400  1
  O  O10  1  0.63221000  0.28402000  0.09648400  1
  O  O11  1  0.63221000  0.71598000  0.40351600  1
  O  O12  1  0.88575500  0.17593000  0.39933100  1
  O  O13  1  0.88575500  0.82407000  0.10066900  1
  O  O14  1  0.11424500  0.82407000  0.60066900  1
  O  O15  1  0.11424500  0.17593000  0.89933100  1
  O  O16  1  0.67105300  0.18933600  0.84329400  1
  O  O17  1  0.67105300  0.81066400  0.65670600  1
  O  O18  1  0.32894700  0.81066400  0.15670600  1
  O  O19  1  0.32894700  0.18933600  0.34329400  1
  O  O20  1  0.92018500  0.69136800  0.88107400  1
  O  O21  1  0.07981500  0.30863200  0.11892600  1
  O  O22  1  0.92018500  0.30863200  0.61892600  1
  O  O23  1  0.07981500  0.69136800  0.38107400  1
