# generated using pymatgen
data_MgTiSiO5
_symmetry_space_group_name_H-M   'P 1'
_cell_length_a   5.43113226
_cell_length_b   7.09398516
_cell_length_c   8.59424786
_cell_angle_alpha   92.32240425
_cell_angle_beta   144.89317564
_cell_angle_gamma   74.77320118
_symmetry_Int_Tables_number   1
_chemical_formula_structural   MgTiSiO5
_chemical_formula_sum   'Mg2 Ti2 Si2 O10'
_cell_volume   174.44035550
_cell_formula_units_Z   2
loop_
 _symmetry_equiv_pos_site_id
 _symmetry_equiv_pos_as_xyz
  1  'x, y, z'
loop_
 _atom_site_type_symbol
 _atom_site_label
 _atom_site_symmetry_multiplicity
 _atom_site_fract_x
 _atom_site_fract_y
 _atom_site_fract_z
 _atom_site_occupancy
  Mg  Mg0  1  0.44599500  0.29766900  0.16004800  1
  Mg  Mg1  1  0.54058500  0.73751200  0.84623700  1
  Ti  Ti2  1  0.50608200  0.50087600  0.51311000  1
  Ti  Ti3  1  0.49484100  0.00217800  0.48999100  1
  Si  Si4  1  0.48906900  0.23090200  0.81112000  1
  Si  Si5  1  0.51367200  0.74497700  0.18903800  1
  O  O6  1  0.16904600  0.15511900  0.52619500  1
  O  O7  1  0.68172900  0.37971600  0.81122300  1
  O  O8  1  0.82448000  0.82571600  0.46834400  1
  O  O9  1  0.32713400  0.59523300  0.19388000  1
  O  O10  1  0.82439000  0.60375100  0.19881800  1
  O  O11  1  0.11233500  0.93350500  0.89382700  1
  O  O12  1  0.18712000  0.36800600  0.80788500  1
  O  O13  1  0.89027900  0.02609300  0.09180800  1
  O  O14  1  0.52617800  0.73654600  0.60162500  1
  O  O15  1  0.46769500  0.24024800  0.39883000  1
