# generated using pymatgen
data_Ba2AlMo3O8
_symmetry_space_group_name_H-M   'P 1'
_cell_length_a   4.20032415
_cell_length_b   4.20032415
_cell_length_c   11.70583600
_cell_angle_alpha   90.00000000
_cell_angle_beta   90.00000000
_cell_angle_gamma   91.05633245
_symmetry_Int_Tables_number   1
_chemical_formula_structural   Ba2AlMo3O8
_chemical_formula_sum   'Ba2 Al1 Mo3 O8'
_cell_volume   206.48772396
_cell_formula_units_Z   1
loop_
 _symmetry_equiv_pos_site_id
 _symmetry_equiv_pos_as_xyz
  1  'x, y, z'
loop_
 _atom_site_type_symbol
 _atom_site_label
 _atom_site_symmetry_multiplicity
 _atom_site_fract_x
 _atom_site_fract_y
 _atom_site_fract_z
 _atom_site_occupancy
  Ba  Ba0  1  0.50615800  0.49384200  0.17762000  1
  Ba  Ba1  1  0.50615800  0.49384200  0.82238000  1
  Al  Al2  1  0.64450800  0.35549200  0.50000000  1
  Mo  Mo3  1  0.99770700  0.00229300  0.36274800  1
  Mo  Mo4  1  0.00227700  0.99772300  0.00000000  1
  Mo  Mo5  1  0.99770700  0.00229300  0.63725200  1
  O  O6  1  0.91353500  0.51156300  0.38399000  1
  O  O7  1  0.48843700  0.08646500  0.38399000  1
  O  O8  1  0.50284500  0.00272600  0.00000000  1
  O  O9  1  0.00422800  0.99577200  0.18080900  1
  O  O10  1  0.91353500  0.51156300  0.61601000  1
  O  O11  1  0.48843700  0.08646500  0.61601000  1
  O  O12  1  0.00422800  0.99577200  0.81919100  1
  O  O13  1  0.99727400  0.49715500  0.00000000  1
