# generated using pymatgen
data_Al4V13Si2(SbO14)2
_symmetry_space_group_name_H-M   'P 1'
_cell_length_a   5.62935911
_cell_length_b   8.91840159
_cell_length_c   12.14865316
_cell_angle_alpha   88.17712887
_cell_angle_beta   76.10481988
_cell_angle_gamma   80.02997710
_symmetry_Int_Tables_number   1
_chemical_formula_structural   Al4V13Si2(SbO14)2
_chemical_formula_sum   'Al4 V13 Si2 Sb2 O28'
_cell_volume   583.10176103
_cell_formula_units_Z   1
loop_
 _symmetry_equiv_pos_site_id
 _symmetry_equiv_pos_as_xyz
  1  'x, y, z'
loop_
 _atom_site_type_symbol
 _atom_site_label
 _atom_site_symmetry_multiplicity
 _atom_site_fract_x
 _atom_site_fract_y
 _atom_site_fract_z
 _atom_site_occupancy
  Al  Al0  1  0.06187100  0.67139300  0.43756200  1
  Al  Al1  1  0.50299000  0.32797400  0.43463500  1
  Al  Al2  1  0.93855600  0.32763500  0.56264700  1
  Al  Al3  1  0.49655100  0.67170200  0.56627700  1
  V  V4  1  0.91751600  0.63719300  0.71180100  1
  V  V5  1  0.65188900  0.35333500  0.14083400  1
  V  V6  1  0.37084300  0.35658000  0.70666700  1
  V  V7  1  0.08378700  0.36193700  0.28853900  1
  V  V8  1  0.34773900  0.64680800  0.85926400  1
  V  V9  1  0.28836700  0.99863000  0.42606600  1
  V  V10  1  0.21131700  0.64822300  0.13642600  1
  V  V11  1  0.99970800  0.99956500  0.00006900  1
  V  V12  1  0.42409000  0.00185600  0.14808300  1
  V  V13  1  0.78806900  0.35177100  0.86412000  1
  V  V14  1  0.63081000  0.64223100  0.29374100  1
  V  V15  1  0.57568100  0.99888800  0.85203400  1
  V  V16  1  0.71217900  0.00083100  0.57416000  1
  Si  Si17  1  0.23759300  0.31436000  0.99745800  1
  Si  Si18  1  0.76153700  0.68582000  0.00282500  1
  Sb  Sb19  1  0.86530100  0.99718400  0.27787300  1
  Sb  Sb20  1  0.13212000  0.00534800  0.72247100  1
  O  O21  1  0.68191400  0.39092700  0.30463300  1
  O  O22  1  0.17500200  0.37329700  0.44741200  1
  O  O23  1  0.94419900  0.34594600  0.99999500  1
  O  O24  1  0.32587500  0.12690300  0.99706200  1
  O  O25  1  0.82465400  0.62784400  0.55327600  1
  O  O26  1  0.31841000  0.60744600  0.69588600  1
  O  O27  1  0.00116400  0.12210900  0.55364000  1
  O  O28  1  0.99902100  0.87718400  0.44466200  1
  O  O29  1  0.67095000  0.87310900  0.00307100  1
  O  O30  1  0.15351300  0.88746400  0.13601800  1
  O  O31  1  0.28088200  0.39123800  0.11277700  1
  O  O32  1  0.02020200  0.61122700  0.30486700  1
  O  O33  1  0.44351700  0.87868100  0.56319100  1
  O  O34  1  0.71458700  0.11347300  0.14472700  1
  O  O35  1  0.60894000  0.60979500  0.11986500  1
  O  O36  1  0.05493400  0.65602600  0.00033900  1
  O  O37  1  0.28598200  0.88662100  0.85381600  1
  O  O38  1  0.84327000  0.11281700  0.86617300  1
  O  O39  1  0.55254100  0.12121800  0.43981600  1
  O  O40  1  0.17824200  0.12141100  0.27983300  1
  O  O41  1  0.83120100  0.87870300  0.72020800  1
  O  O42  1  0.39067800  0.39035100  0.88058100  1
  O  O43  1  0.49636500  0.12092600  0.71075700  1
  O  O44  1  0.62406200  0.37125600  0.54927800  1
  O  O45  1  0.71883100  0.60879500  0.88745300  1
  O  O46  1  0.51384600  0.87938500  0.28945100  1
  O  O47  1  0.98030400  0.38755300  0.69542200  1
  O  O48  1  0.37651500  0.62926500  0.45104200  1
