# generated using pymatgen
data_Si2TcRu
_symmetry_space_group_name_H-M   'P 1'
_cell_length_a   9.12501998
_cell_length_b   12.68703973
_cell_length_c   12.68703837
_cell_angle_alpha   67.68586047
_cell_angle_beta   68.88830772
_cell_angle_gamma   68.88832069
_symmetry_Int_Tables_number   1
_chemical_formula_structural   Si2TcRu
_chemical_formula_sum   'Si2 Tc1 Ru1'
_cell_volume   1224.36638140
_cell_formula_units_Z   1
loop_
 _symmetry_equiv_pos_site_id
 _symmetry_equiv_pos_as_xyz
  1  'x, y, z'
loop_
 _atom_site_type_symbol
 _atom_site_label
 _atom_site_symmetry_multiplicity
 _atom_site_fract_x
 _atom_site_fract_y
 _atom_site_fract_z
 _atom_site_occupancy
  Si  Si0  1  0.74820400  0.99995000  0.99995000  1
  Si  Si1  1  0.25179600  0.00005000  0.00005000  1
  Tc  Tc2  1  0.00000000  0.00000000  0.00000000  1
  Ru  Ru3  1  0.50000000  0.00000000  0.00000000  1
