# generated using pymatgen
data_SiH14(O2F3)2
_symmetry_space_group_name_H-M   'P 1'
_cell_length_a   5.97253814
_cell_length_b   13.12012400
_cell_length_c   6.41122053
_cell_angle_alpha   90.00000000
_cell_angle_beta   109.36714890
_cell_angle_gamma   90.00000000
_symmetry_Int_Tables_number   1
_chemical_formula_structural   SiH14(O2F3)2
_chemical_formula_sum   'Si2 H28 O8 F12'
_cell_volume   473.95752304
_cell_formula_units_Z   2
loop_
 _symmetry_equiv_pos_site_id
 _symmetry_equiv_pos_as_xyz
  1  'x, y, z'
loop_
 _atom_site_type_symbol
 _atom_site_label
 _atom_site_symmetry_multiplicity
 _atom_site_fract_x
 _atom_site_fract_y
 _atom_site_fract_z
 _atom_site_occupancy
  Si  Si0  1  0.00000000  0.50000000  0.50000000  1
  Si  Si1  1  0.00000000  0.00000000  0.00000000  1
  H  H2  1  0.64128900  0.09605700  0.41557800  1
  H  H3  1  0.35871100  0.59605700  0.08442200  1
  H  H4  1  0.35871100  0.90394300  0.58442200  1
  H  H5  1  0.64128900  0.40394300  0.91557800  1
  H  H6  1  0.73407000  0.12302000  0.21275100  1
  H  H7  1  0.26593000  0.62302000  0.28724900  1
  H  H8  1  0.26593000  0.87698000  0.78724900  1
  H  H9  1  0.73407000  0.37698000  0.71275100  1
  H  H10  1  0.86098700  0.18552300  0.47535300  1
  H  H11  1  0.13901300  0.68552300  0.02464700  1
  H  H12  1  0.13901300  0.81447700  0.52464700  1
  H  H13  1  0.86098700  0.31447700  0.97535300  1
  H  H14  1  0.11157200  0.28614400  0.60156600  1
  H  H15  1  0.88842800  0.78614400  0.89843400  1
  H  H16  1  0.88842800  0.71385600  0.39843400  1
  H  H17  1  0.11157200  0.21385600  0.10156600  1
  H  H18  1  0.14133500  0.17612300  0.73005800  1
  H  H19  1  0.85866500  0.67612300  0.76994200  1
  H  H20  1  0.85866500  0.82387700  0.26994200  1
  H  H21  1  0.14133500  0.32387700  0.23005800  1
  H  H22  1  0.36015100  0.07684100  0.56820500  1
  H  H23  1  0.63984900  0.57684100  0.93179500  1
  H  H24  1  0.63984900  0.92315900  0.43179500  1
  H  H25  1  0.36015100  0.42315900  0.06820500  1
  H  H26  1  0.46446000  0.08248500  0.67342200  1
  H  H27  1  0.53554000  0.58248500  0.82657800  1
  H  H28  1  0.53554000  0.91751500  0.32657800  1
  H  H29  1  0.46446000  0.41751500  0.17342200  1
  O  O30  1  0.69764500  0.15219800  0.34537300  1
  O  O31  1  0.30235500  0.65219800  0.15462700  1
  O  O32  1  0.30235500  0.84780200  0.65462700  1
  O  O33  1  0.69764500  0.34780200  0.84537300  1
  O  O34  1  0.02980000  0.22560200  0.63696500  1
  O  O35  1  0.97020000  0.72560200  0.86303500  1
  O  O36  1  0.97020000  0.77439800  0.36303500  1
  O  O37  1  0.02980000  0.27439800  0.13696500  1
  F  F38  1  0.19009000  0.39601200  0.52719300  1
  F  F39  1  0.80991000  0.89601200  0.97280700  1
  F  F40  1  0.80991000  0.60398800  0.47280700  1
  F  F41  1  0.19009000  0.10398800  0.02719300  1
  F  F42  1  0.22586700  0.58137900  0.49191200  1
  F  F43  1  0.77413300  0.08137900  0.00808800  1
  F  F44  1  0.77413300  0.41862100  0.50808800  1
  F  F45  1  0.22586700  0.91862100  0.99191200  1
  F  F46  1  0.08813400  0.51257900  0.77793100  1
  F  F47  1  0.91186600  0.01257900  0.72206900  1
  F  F48  1  0.91186600  0.48742100  0.22206900  1
  F  F49  1  0.08813400  0.98742100  0.27793100  1
