# generated using pymatgen
data_SiO2
_symmetry_space_group_name_H-M   'P 1'
_cell_length_a   15.13188890
_cell_length_b   15.13188853
_cell_length_c   15.13188736
_cell_angle_alpha   109.47122209
_cell_angle_beta   109.47122156
_cell_angle_gamma   109.47122022
_symmetry_Int_Tables_number   1
_chemical_formula_structural   SiO2
_chemical_formula_sum   'Si48 O96'
_cell_volume   2667.21162814
_cell_formula_units_Z   48
loop_
 _symmetry_equiv_pos_site_id
 _symmetry_equiv_pos_as_xyz
  1  'x, y, z'
loop_
 _atom_site_type_symbol
 _atom_site_label
 _atom_site_symmetry_multiplicity
 _atom_site_fract_x
 _atom_site_fract_y
 _atom_site_fract_z
 _atom_site_occupancy
  Si  Si0  1  0.63022194  0.39472159  0.53782406  1
  Si  Si1  1  0.14310247  0.53782406  0.40760312  1
  Si  Si2  1  0.76450065  0.86977806  0.40760312  1
  Si  Si3  1  0.89472159  0.13022194  0.03782406  1
  Si  Si4  1  0.40760312  0.76450065  0.86977806  1
  Si  Si5  1  0.90760312  0.36977806  0.26450065  1
  Si  Si6  1  0.46217594  0.59239688  0.85689753  1
  Si  Si7  1  0.09239688  0.96217594  0.35689753  1
  Si  Si8  1  0.10527841  0.73549935  0.14310247  1
  Si  Si9  1  0.59239688  0.85689753  0.46217594  1
  Si  Si10  1  0.09239688  0.63022194  0.73549935  1
  Si  Si11  1  0.96217594  0.10527841  0.86977806  1
  Si  Si12  1  0.35689753  0.76450065  0.39472159  1
  Si  Si13  1  0.36977806  0.60527841  0.46217594  1
  Si  Si14  1  0.23549935  0.13022194  0.59239688  1
  Si  Si15  1  0.86977806  0.96217594  0.10527841  1
  Si  Si16  1  0.60527841  0.46217594  0.36977806  1
  Si  Si17  1  0.10527841  0.86977806  0.96217594  1
  Si  Si18  1  0.76450065  0.39472159  0.35689753  1
  Si  Si19  1  0.14310247  0.10527841  0.73549935  1
  Si  Si20  1  0.85689753  0.89472159  0.26450065  1
  Si  Si21  1  0.85689753  0.46217594  0.59239688  1
  Si  Si22  1  0.13022194  0.59239688  0.23549935  1
  Si  Si23  1  0.26450065  0.85689753  0.89472159  1
  Si  Si24  1  0.23549935  0.60527841  0.64310247  1
  Si  Si25  1  0.63022194  0.73549935  0.09239688  1
  Si  Si26  1  0.53782406  0.40760312  0.14310247  1
  Si  Si27  1  0.03782406  0.64310247  0.90760312  1
  Si  Si28  1  0.73549935  0.09239688  0.63022194  1
  Si  Si29  1  0.36977806  0.26450065  0.90760312  1
  Si  Si30  1  0.40760312  0.14310247  0.53782406  1
  Si  Si31  1  0.73549935  0.14310247  0.10527841  1
  Si  Si32  1  0.89472159  0.26450065  0.85689753  1
  Si  Si33  1  0.13022194  0.03782406  0.89472159  1
  Si  Si34  1  0.35689753  0.09239688  0.96217594  1
  Si  Si35  1  0.39472159  0.53782406  0.63022194  1
  Si  Si36  1  0.64310247  0.23549935  0.60527841  1
  Si  Si37  1  0.86977806  0.40760312  0.76450065  1
  Si  Si38  1  0.39472159  0.35689753  0.76450065  1
  Si  Si39  1  0.90760312  0.03782406  0.64310247  1
  Si  Si40  1  0.59239688  0.23549935  0.13022194  1
  Si  Si41  1  0.03782406  0.89472159  0.13022194  1
  Si  Si42  1  0.53782406  0.63022194  0.39472159  1
  Si  Si43  1  0.96217594  0.35689753  0.09239688  1
  Si  Si44  1  0.46217594  0.36977806  0.60527841  1
  Si  Si45  1  0.64310247  0.90760312  0.03782406  1
  Si  Si46  1  0.60527841  0.64310247  0.23549935  1
  Si  Si47  1  0.26450065  0.90760312  0.36977806  1
  O  O48  1  0.53424188  0.18128132  0.61203727  1
  O  O49  1  0.61679904  0.84087582  0.10036837  1
  O  O50  1  0.22407578  0.84087582  0.24050745  1
  O  O51  1  0.46575812  0.81871868  0.38796273  1
  O  O52  1  0.15912418  0.89963163  0.38319996  1
  O  O53  1  0.84087582  0.10036837  0.61679904  1
  O  O54  1  0.75949255  0.48356933  0.60036837  1
  O  O55  1  0.88796273  0.31871868  0.96575812  1
  O  O56  1  0.03424188  0.42220461  0.35296056  1
  O  O57  1  0.60036837  0.75949255  0.48356933  1
  O  O58  1  0.43075595  0.61203727  0.57779539  1
  O  O59  1  0.65912418  0.88320096  0.39963163  1
  O  O60  1  0.68128132  0.14703944  0.56924405  1
  O  O61  1  0.34087582  0.11679904  0.60036837  1
  O  O62  1  0.65912418  0.27592422  0.25949255  1
  O  O63  1  0.11203727  0.93075595  0.07779539  1
  O  O64  1  0.15912418  0.75949255  0.77592422  1
  O  O65  1  0.18128132  0.06924405  0.64703944  1
  O  O66  1  0.77592422  0.15912418  0.75949255  1
  O  O67  1  0.31871868  0.96575812  0.88796273  1
  O  O68  1  0.42220461  0.56924405  0.38796273  1
  O  O69  1  0.56924405  0.38796273  0.42220461  1
  O  O70  1  0.64703944  0.18128132  0.06924405  1
  O  O71  1  0.07779539  0.46575812  0.14703944  1
  O  O72  1  0.25949255  0.65912418  0.27592422  1
  O  O73  1  0.93075595  0.07779539  0.11203727  1
  O  O74  1  0.42220461  0.35296056  0.03424188  1
  O  O75  1  0.68128132  0.03424188  0.11203727  1
  O  O76  1  0.61203727  0.57779539  0.43075595  1
  O  O77  1  0.88320096  0.98356933  0.22407578  1
  O  O78  1  0.72407578  0.74050745  0.34087582  1
  O  O79  1  0.89963163  0.01643067  0.74050745  1
  O  O80  1  0.14703944  0.07779539  0.46575812  1
  O  O81  1  0.06924405  0.92220461  0.88796273  1
  O  O82  1  0.88796273  0.06924405  0.92220461  1
  O  O83  1  0.01643067  0.77592422  0.11679904  1
  O  O84  1  0.38319996  0.72407578  0.48356933  1
  O  O85  1  0.98356933  0.22407578  0.88320096  1
  O  O86  1  0.35296056  0.03424188  0.42220461  1
  O  O87  1  0.25949255  0.10036837  0.98356933  1
  O  O88  1  0.27592422  0.25949255  0.65912418  1
  O  O89  1  0.64703944  0.96575812  0.57779539  1
  O  O90  1  0.81871868  0.93075595  0.35296056  1
  O  O91  1  0.10036837  0.98356933  0.25949255  1
  O  O92  1  0.27592422  0.51643067  0.61679904  1
  O  O93  1  0.51643067  0.39963163  0.24050745  1
  O  O94  1  0.39963163  0.24050745  0.51643067  1
  O  O95  1  0.06924405  0.64703944  0.18128132  1
  O  O96  1  0.14703944  0.56924405  0.68128132  1
  O  O97  1  0.11679904  0.60036837  0.34087582  1
  O  O98  1  0.11203727  0.68128132  0.03424188  1
  O  O99  1  0.88320096  0.39963163  0.65912418  1
  O  O100  1  0.35296056  0.81871868  0.93075595  1
  O  O101  1  0.01643067  0.74050745  0.89963163  1
  O  O102  1  0.74050745  0.89963163  0.01643067  1
  O  O103  1  0.96575812  0.57779539  0.64703944  1
  O  O104  1  0.72407578  0.48356933  0.38319996  1
  O  O105  1  0.74050745  0.34087582  0.72407578  1
  O  O106  1  0.38796273  0.46575812  0.81871868  1
  O  O107  1  0.38319996  0.15912418  0.89963163  1
  O  O108  1  0.92220461  0.53424188  0.85296056  1
  O  O109  1  0.53424188  0.85296056  0.92220461  1
  O  O110  1  0.77592422  0.11679904  0.01643067  1
  O  O111  1  0.24050745  0.51643067  0.39963163  1
  O  O112  1  0.75949255  0.77592422  0.15912418  1
  O  O113  1  0.48356933  0.38319996  0.72407578  1
  O  O114  1  0.96575812  0.88796273  0.31871868  1
  O  O115  1  0.39963163  0.65912418  0.88320096  1
  O  O116  1  0.38796273  0.42220461  0.56924405  1
  O  O117  1  0.57779539  0.64703944  0.96575812  1
  O  O118  1  0.24050745  0.22407578  0.84087582  1
  O  O119  1  0.31871868  0.85296056  0.43075595  1
  O  O120  1  0.85296056  0.43075595  0.31871868  1
  O  O121  1  0.43075595  0.31871868  0.85296056  1
  O  O122  1  0.92220461  0.88796273  0.06924405  1
  O  O123  1  0.89963163  0.38319996  0.15912418  1
  O  O124  1  0.11679904  0.01643067  0.77592422  1
  O  O125  1  0.84087582  0.24050745  0.22407578  1
  O  O126  1  0.57779539  0.43075595  0.61203727  1
  O  O127  1  0.03424188  0.11203727  0.68128132  1
  O  O128  1  0.93075595  0.35296056  0.81871868  1
  O  O129  1  0.34087582  0.72407578  0.74050745  1
  O  O130  1  0.60036837  0.34087582  0.11679904  1
  O  O131  1  0.51643067  0.61679904  0.27592422  1
  O  O132  1  0.85296056  0.92220461  0.53424188  1
  O  O133  1  0.56924405  0.68128132  0.14703944  1
  O  O134  1  0.48356933  0.60036837  0.75949255  1
  O  O135  1  0.07779539  0.11203727  0.93075595  1
  O  O136  1  0.46575812  0.14703944  0.07779539  1
  O  O137  1  0.61679904  0.27592422  0.51643067  1
  O  O138  1  0.22407578  0.88320096  0.98356933  1
  O  O139  1  0.98356933  0.25949255  0.10036837  1
  O  O140  1  0.10036837  0.61679904  0.84087582  1
  O  O141  1  0.18128132  0.61203727  0.53424188  1
  O  O142  1  0.61203727  0.53424188  0.18128132  1
  O  O143  1  0.81871868  0.38796273  0.46575812  1
