# generated using pymatgen
data_Sr7SiB3NO13
_symmetry_space_group_name_H-M   'P 1'
_cell_length_a   10.85590345
_cell_length_b   10.80284310
_cell_length_c   7.04507128
_cell_angle_alpha   90.27745929
_cell_angle_beta   90.22677963
_cell_angle_gamma   119.91398021
_symmetry_Int_Tables_number   1
_chemical_formula_structural   Sr7SiB3NO13
_chemical_formula_sum   'Sr14 Si2 B6 N2 O26'
_cell_volume   716.10882038
_cell_formula_units_Z   2
loop_
 _symmetry_equiv_pos_site_id
 _symmetry_equiv_pos_as_xyz
  1  'x, y, z'
loop_
 _atom_site_type_symbol
 _atom_site_label
 _atom_site_symmetry_multiplicity
 _atom_site_fract_x
 _atom_site_fract_y
 _atom_site_fract_z
 _atom_site_occupancy
  Sr  Sr0  1  0.13991100  0.86868300  0.17475100  1
  Sr  Sr1  1  0.04096000  0.51135300  0.84896700  1
  Sr  Sr2  1  0.46938700  0.95855000  0.85109900  1
  Sr  Sr3  1  0.13357500  0.27068400  0.16360700  1
  Sr  Sr4  1  0.33297700  0.66658700  0.48654700  1
  Sr  Sr5  1  0.49256200  0.53360300  0.85086300  1
  Sr  Sr6  1  0.26173000  0.12881400  0.65917300  1
  Sr  Sr7  1  0.72849600  0.85937000  0.18805800  1
  Sr  Sr8  1  0.50758400  0.46383600  0.35027200  1
  Sr  Sr9  1  0.66679800  0.33420900  0.98923700  1
  Sr  Sr10  1  0.53371000  0.04365900  0.35101700  1
  Sr  Sr11  1  0.86617000  0.74093600  0.66538500  1
  Sr  Sr12  1  0.95770400  0.48948600  0.34978100  1
  Sr  Sr13  1  0.86831000  0.12964600  0.66397000  1
  Si  Si14  1  0.33278800  0.66670400  0.07580400  1
  Si  Si15  1  0.66859600  0.33445600  0.57636100  1
  B  B16  1  0.18174700  0.81715900  0.64321500  1
  B  B17  1  0.18453700  0.36626400  0.64067000  1
  B  B18  1  0.63188700  0.81548500  0.64579800  1
  B  B19  1  0.36370400  0.18060200  0.13669200  1
  B  B20  1  0.81810100  0.63866600  0.14216600  1
  B  B21  1  0.82134900  0.18341800  0.13944000  1
  N  N22  1  0.99675100  0.99705500  0.93491900  1
  N  N23  1  0.99365100  0.99398000  0.53313900  1
  O  O24  1  0.17938000  0.88058400  0.81329300  1
  O  O25  1  0.07154900  0.68285200  0.59083800  1
  O  O26  1  0.29787500  0.88885700  0.52160700  1
  O  O27  1  0.18355600  0.65070100  0.15918000  1
  O  O28  1  0.11406300  0.41487600  0.52291600  1
  O  O29  1  0.33207300  0.66723800  0.84141200  1
  O  O30  1  0.11982300  0.29282500  0.80496800  1
  O  O31  1  0.46621100  0.81598900  0.16202100  1
  O  O32  1  0.34817800  0.53174300  0.15660000  1
  O  O33  1  0.31924900  0.39279200  0.59121100  1
  O  O34  1  0.61007200  0.92725600  0.59275200  1
  O  O35  1  0.27915300  0.16269900  0.29313800  1
  O  O36  1  0.41312700  0.30200400  0.02548300  1
  O  O37  1  0.58929000  0.70043500  0.51961500  1
  O  O38  1  0.69107600  0.81419400  0.81939900  1
  O  O39  1  0.39971600  0.07748600  0.09233800  1
  O  O40  1  0.67848800  0.59876800  0.09733900  1
  O  O41  1  0.65547100  0.47096900  0.65720900  1
  O  O42  1  0.53327000  0.18510700  0.65573500  1
  O  O43  1  0.88492500  0.72845200  0.29624400  1
  O  O44  1  0.66784600  0.33374400  0.34190000  1
  O  O45  1  0.89020100  0.58799800  0.03245800  1
  O  O46  1  0.81755000  0.34727700  0.65618800  1
  O  O47  1  0.69701400  0.11156600  0.03263000  1
  O  O48  1  0.92485300  0.32053200  0.08812900  1
  O  O49  1  0.84300500  0.11984800  0.29699000  1
