# generated using pymatgen
data_Mg14SiBiO16
_symmetry_space_group_name_H-M   'P 1'
_cell_length_a   8.81114664
_cell_length_b   8.81200895
_cell_length_c   4.39887600
_cell_angle_alpha   90.00000000
_cell_angle_beta   90.00000000
_cell_angle_gamma   91.40126085
_symmetry_Int_Tables_number   1
_chemical_formula_structural   Mg14SiBiO16
_chemical_formula_sum   'Mg14 Si1 Bi1 O16'
_cell_volume   341.44376310
_cell_formula_units_Z   1
loop_
 _symmetry_equiv_pos_site_id
 _symmetry_equiv_pos_as_xyz
  1  'x, y, z'
loop_
 _atom_site_type_symbol
 _atom_site_label
 _atom_site_symmetry_multiplicity
 _atom_site_fract_x
 _atom_site_fract_y
 _atom_site_fract_z
 _atom_site_occupancy
  Mg  Mg0  1  0.00000000  0.50000000  0.00000000  1
  Mg  Mg1  1  0.50000000  0.00000000  0.00000000  1
  Mg  Mg2  1  0.00098600  0.25075300  0.50000000  1
  Mg  Mg3  1  0.99901400  0.74924700  0.50000000  1
  Mg  Mg4  1  0.50408900  0.23547400  0.50000000  1
  Mg  Mg5  1  0.49591100  0.76452600  0.50000000  1
  Mg  Mg6  1  0.25073800  0.00098300  0.50000000  1
  Mg  Mg7  1  0.23549500  0.50407500  0.50000000  1
  Mg  Mg8  1  0.74926200  0.99901700  0.50000000  1
  Mg  Mg9  1  0.76450500  0.49592500  0.50000000  1
  Mg  Mg10  1  0.24671700  0.24666200  0.00000000  1
  Mg  Mg11  1  0.24106100  0.75894000  0.00000000  1
  Mg  Mg12  1  0.75893900  0.24106000  0.00000000  1
  Mg  Mg13  1  0.75328300  0.75333800  0.00000000  1
  Si  Si14  1  0.00000000  0.00000000  0.00000000  1
  Bi  Bi15  1  0.50000000  0.50000000  0.00000000  1
  O  O16  1  0.25684000  0.00545700  0.00000000  1
  O  O17  1  0.22532400  0.51868200  0.00000000  1
  O  O18  1  0.74316000  0.99454300  0.00000000  1
  O  O19  1  0.77467600  0.48131800  0.00000000  1
  O  O20  1  0.25137500  0.25136900  0.50000000  1
  O  O21  1  0.24522400  0.75477300  0.50000000  1
  O  O22  1  0.75477600  0.24522700  0.50000000  1
  O  O23  1  0.74862500  0.74863100  0.50000000  1
  O  O24  1  0.00000000  0.00000000  0.50000000  1
  O  O25  1  0.00000000  0.50000000  0.50000000  1
  O  O26  1  0.50000000  0.00000000  0.50000000  1
  O  O27  1  0.50000000  0.50000000  0.50000000  1
  O  O28  1  0.00548200  0.25684600  0.00000000  1
  O  O29  1  0.99451800  0.74315400  0.00000000  1
  O  O30  1  0.51864200  0.22529500  0.00000000  1
  O  O31  1  0.48135800  0.77470500  0.00000000  1
