# generated using pymatgen
data_Zn3Si4(SnO7)2
_symmetry_space_group_name_H-M   'P 1'
_cell_length_a   9.33958010
_cell_length_b   9.33958010
_cell_length_c   10.24614558
_cell_angle_alpha   60.36662465
_cell_angle_beta   60.36662465
_cell_angle_gamma   55.14084253
_symmetry_Int_Tables_number   1
_chemical_formula_structural   Zn3Si4(SnO7)2
_chemical_formula_sum   'Zn6 Si8 Sn4 O28'
_cell_volume   608.68734018
_cell_formula_units_Z   2
loop_
 _symmetry_equiv_pos_site_id
 _symmetry_equiv_pos_as_xyz
  1  'x, y, z'
loop_
 _atom_site_type_symbol
 _atom_site_label
 _atom_site_symmetry_multiplicity
 _atom_site_fract_x
 _atom_site_fract_y
 _atom_site_fract_z
 _atom_site_occupancy
  Zn  Zn0  1  0.04880700  0.29462900  0.09226000  1
  Zn  Zn1  1  0.70537100  0.95119300  0.40774000  1
  Zn  Zn2  1  0.29462900  0.04880700  0.59226000  1
  Zn  Zn3  1  0.40588400  0.59411600  0.75000000  1
  Zn  Zn4  1  0.95119300  0.70537100  0.90774000  1
  Zn  Zn5  1  0.59411600  0.40588400  0.25000000  1
  Si  Si6  1  0.50795900  0.11769900  0.70432900  1
  Si  Si7  1  0.11769900  0.50795900  0.20432900  1
  Si  Si8  1  0.51208700  0.23877400  0.10842100  1
  Si  Si9  1  0.23877400  0.51208700  0.60842100  1
  Si  Si10  1  0.88230100  0.49204100  0.79567100  1
  Si  Si11  1  0.48791300  0.76122600  0.89157900  1
  Si  Si12  1  0.76122600  0.48791300  0.39157900  1
  Si  Si13  1  0.49204100  0.88230100  0.29567100  1
  Sn  Sn14  1  0.78550500  0.21449500  0.75000000  1
  Sn  Sn15  1  0.21449500  0.78550500  0.25000000  1
  Sn  Sn16  1  0.00000000  0.00000000  0.00000000  1
  Sn  Sn17  1  0.00000000  0.00000000  0.50000000  1
  O  O18  1  0.79620400  0.33913900  0.32195900  1
  O  O19  1  0.94850600  0.86995400  0.39996400  1
  O  O20  1  0.46470400  0.65430700  0.08328900  1
  O  O21  1  0.86995400  0.94850600  0.89996400  1
  O  O22  1  0.30003400  0.88770900  0.32832800  1
  O  O23  1  0.04397400  0.52692300  0.63467100  1
  O  O24  1  0.65430700  0.46470400  0.58328900  1
  O  O25  1  0.11229100  0.69996600  0.17167200  1
  O  O26  1  0.95602600  0.47307700  0.36532900  1
  O  O27  1  0.65972900  0.68496100  0.27225000  1
  O  O28  1  0.05149400  0.13004600  0.60003600  1
  O  O29  1  0.69996600  0.11229100  0.67167200  1
  O  O30  1  0.47307700  0.95602600  0.86532900  1
  O  O31  1  0.33913900  0.79620400  0.82195900  1
  O  O32  1  0.68496100  0.65972900  0.77225000  1
  O  O33  1  0.88770900  0.30003400  0.82832800  1
  O  O34  1  0.90478400  0.50032600  0.94068100  1
  O  O35  1  0.34027100  0.31503900  0.72775000  1
  O  O36  1  0.49967400  0.09521600  0.55931900  1
  O  O37  1  0.31503900  0.34027100  0.22775000  1
  O  O38  1  0.52692300  0.04397400  0.13467100  1
  O  O39  1  0.13004600  0.05149400  0.10003600  1
  O  O40  1  0.50032600  0.90478400  0.44068100  1
  O  O41  1  0.53529600  0.34569300  0.91671100  1
  O  O42  1  0.09521600  0.49967400  0.05931900  1
  O  O43  1  0.34569300  0.53529600  0.41671100  1
  O  O44  1  0.66086100  0.20379600  0.17804100  1
  O  O45  1  0.20379600  0.66086100  0.67804100  1
