# generated using pymatgen
data_Ca16MgAl14Si9O56
_symmetry_space_group_name_H-M   'P 1'
_cell_length_a   6.79390645
_cell_length_b   7.15044301
_cell_length_c   27.78178032
_cell_angle_alpha   92.14718059
_cell_angle_beta   90.13638055
_cell_angle_gamma   89.54210660
_symmetry_Int_Tables_number   1
_chemical_formula_structural   Ca16MgAl14Si9O56
_chemical_formula_sum   'Ca16 Mg1 Al14 Si9 O56'
_cell_volume   1348.62976638
_cell_formula_units_Z   1
loop_
 _symmetry_equiv_pos_site_id
 _symmetry_equiv_pos_as_xyz
  1  'x, y, z'
loop_
 _atom_site_type_symbol
 _atom_site_label
 _atom_site_symmetry_multiplicity
 _atom_site_fract_x
 _atom_site_fract_y
 _atom_site_fract_z
 _atom_site_occupancy
  Ca  Ca0  1  0.20547645  0.08769005  0.16494633  1
  Ca  Ca1  1  0.25644103  0.31576666  0.42537305  1
  Ca  Ca2  1  0.32345609  0.69182606  0.02003636  1
  Ca  Ca3  1  0.30257957  0.66058516  0.77845894  1
  Ca  Ca4  1  0.51646625  0.05899122  0.73212317  1
  Ca  Ca5  1  0.20920700  0.62194159  0.29399985  1
  Ca  Ca6  1  0.53618728  0.07768300  0.97289791  1
  Ca  Ca7  1  0.27942212  0.58194197  0.54060529  1
  Ca  Ca8  1  0.75988344  0.30465749  0.09107972  1
  Ca  Ca9  1  0.60756542  0.04515355  0.34148240  1
  Ca  Ca10  1  0.59554184  0.79571355  0.46673852  1
  Ca  Ca11  1  0.70522792  0.16317777  0.84784204  1
  Ca  Ca12  1  0.49714436  0.55162196  0.65791771  1
  Ca  Ca13  1  0.47316182  0.62316097  0.18415244  1
  Ca  Ca14  1  0.49723728  0.56971640  0.89275987  1
  Ca  Ca15  1  0.71297791  0.18736812  0.60329298  1
  Mg  Mg16  1  0.94328111  0.94352564  0.24146595  1
  Al  Al17  1  0.01609735  0.03971905  0.98799718  1
  Al  Al18  1  0.10231666  0.63692845  0.12221367  1
  Al  Al19  1  0.03187194  0.94510975  0.50550254  1
  Al  Al20  1  0.00292671  0.01138916  0.74875285  1
  Al  Al21  1  0.01089778  0.53181083  0.87727327  1
  Al  Al22  1  0.74723955  0.31133586  0.47896569  1
  Al  Al23  1  0.80922622  0.37162563  0.72851383  1
  Al  Al24  1  0.81365954  0.39679612  0.96577379  1
  Al  Al25  1  0.53471858  0.92539532  0.11070634  1
  Al  Al26  1  0.21452698  0.89478275  0.90053636  1
  Al  Al27  1  0.22223525  0.80484666  0.40810765  1
  Al  Al28  1  0.20773117  0.86435417  0.65982823  1
  Al  Al29  1  0.91170645  0.46607800  0.37415246  1
  Al  Al30  1  0.01742850  0.49454724  0.64584891  1
  Si  Si31  1  0.80164307  0.72533713  0.04001364  1
  Si  Si32  1  0.92830535  0.40545633  0.20220659  1
  Si  Si33  1  0.70616208  0.63609745  0.28420775  1
  Si  Si34  1  0.77979116  0.62590065  0.56134542  1
  Si  Si35  1  0.75946597  0.71588222  0.79789560  1
  Si  Si36  1  0.23047441  0.23549927  0.06718848  1
  Si  Si37  1  0.11201956  0.09708909  0.34267539  1
  Si  Si38  1  0.25181050  0.21666257  0.82843846  1
  Si  Si39  1  0.24614359  0.18304229  0.58915480  1
  O  O40  1  0.69161019  0.56230500  0.00605187  1
  O  O41  1  0.50297704  0.54795250  0.26315073  1
  O  O42  1  0.81901187  0.41679358  0.53620606  1
  O  O43  1  0.67913997  0.56014028  0.75768573  1
  O  O44  1  0.19722878  0.81945134  0.20955548  1
  O  O45  1  0.10964982  0.92835846  0.30229330  1
  O  O46  1  0.14295204  0.59290840  0.37665023  1
  O  O47  1  0.24234605  0.14071469  0.01098274  1
  O  O48  1  0.37611631  0.79598048  0.70535703  1
  O  O49  1  0.21874583  0.46318728  0.06756249  1
  O  O50  1  0.31402339  0.77738815  0.10901086  1
  O  O51  1  0.20330692  0.79261358  0.47225954  1
  O  O52  1  0.31880287  0.21460431  0.34584782  1
  O  O53  1  0.42580015  0.37041487  0.82257182  1
  O  O54  1  0.20070210  0.68775408  0.86232968  1
  O  O55  1  0.22344861  0.10507990  0.77520445  1
  O  O56  1  0.41905458  0.34103009  0.58699301  1
  O  O57  1  0.19682603  0.64830441  0.62552278  1
  O  O58  1  0.18503816  0.11183523  0.53446530  1
  O  O59  1  0.39003600  0.81786486  0.94394295  1
  O  O60  1  0.04534091  0.15151909  0.09562692  1
  O  O61  1  0.01858408  0.81495291  0.17388001  1
  O  O62  1  0.92124352  0.24538820  0.33962545  1
  O  O63  1  0.04511929  0.27514661  0.61409106  1
  O  O64  1  0.08089686  0.00865119  0.39694616  1
  O  O65  1  0.04080900  0.31426889  0.84440767  1
  O  O66  1  0.99838287  0.96074480  0.68714991  1
  O  O67  1  0.99865791  0.98948466  0.92594629  1
  O  O68  1  0.99402710  0.82159404  0.01637500  1
  O  O69  1  0.12947314  0.46166715  0.16944453  1
  O  O70  1  0.90236921  0.40556423  0.43473233  1
  O  O71  1  0.90569694  0.55150207  0.25223372  1
  O  O72  1  0.95583875  0.76831936  0.54560789  1
  O  O73  1  0.03225928  0.46097079  0.70766804  1
  O  O74  1  0.97098803  0.80492777  0.78203333  1
  O  O75  1  0.01537065  0.49551939  0.93867136  1
  O  O76  1  0.82977298  0.20349021  0.00439305  1
  O  O77  1  0.98353740  0.19937336  0.22071559  1
  O  O78  1  0.74722147  0.59756602  0.34084327  1
  O  O79  1  0.87144964  0.62831300  0.08966058  1
  O  O80  1  0.73175595  0.42238823  0.16963861  1
  O  O81  1  0.70163844  0.86234923  0.27556073  1
  O  O82  1  0.81280355  0.17266436  0.76517595  1
  O  O83  1  0.78826296  0.61908297  0.85120430  1
  O  O84  1  0.63727734  0.31461913  0.92294354  1
  O  O85  1  0.58698126  0.87417558  0.80345281  1
  O  O86  1  0.61865261  0.87806856  0.04731596  1
  O  O87  1  0.80667088  0.06002004  0.48666458  1
  O  O88  1  0.79293505  0.58626505  0.62013086  1
  O  O89  1  0.50727919  0.40270937  0.46854502  1
  O  O90  1  0.64716656  0.28917566  0.68181844  1
  O  O91  1  0.57104569  0.72233618  0.54781645  1
  O  O92  1  0.43596806  0.16902651  0.09518277  1
  O  O93  1  0.46863987  0.86530399  0.39700196  1
  O  O94  1  0.33682593  0.01890996  0.62260060  1
  O  O95  1  0.33258367  0.07305780  0.86878396  1
