# generated using pymatgen
data_AlRe(WO4)2
_symmetry_space_group_name_H-M   'P 1'
_cell_length_a   5.03292900
_cell_length_b   5.64577460
_cell_length_c   6.02864456
_cell_angle_alpha   115.65460083
_cell_angle_beta   109.72563776
_cell_angle_gamma   90.77359815
_symmetry_Int_Tables_number   1
_chemical_formula_structural   AlRe(WO4)2
_chemical_formula_sum   'Al1 Re1 W2 O8'
_cell_volume   142.75925029
_cell_formula_units_Z   1
loop_
 _symmetry_equiv_pos_site_id
 _symmetry_equiv_pos_as_xyz
  1  'x, y, z'
loop_
 _atom_site_type_symbol
 _atom_site_label
 _atom_site_symmetry_multiplicity
 _atom_site_fract_x
 _atom_site_fract_y
 _atom_site_fract_z
 _atom_site_occupancy
  Al  Al0  1  0.56767600  0.23286100  0.93327800  1
  Re  Re1  1  0.02234700  0.77725300  0.89706200  1
  W  W2  1  0.26193200  0.59816700  0.38999500  1
  W  W3  1  0.77945300  0.96375700  0.40751700  1
  O  O4  1  0.33270400  0.30890800  0.12062900  1
  O  O5  1  0.21281600  0.53883600  0.66643000  1
  O  O6  1  0.35662300  0.82000400  0.20874800  1
  O  O7  1  0.22115700  0.99021900  0.62082800  1
  O  O8  1  0.79324400  0.03939700  0.10362200  1
  O  O9  1  0.72653000  0.24154900  0.69097500  1
  O  O10  1  0.69288400  0.73917400  0.58614100  1
  O  O11  1  0.83253600  0.57137900  0.17867700  1
