# generated using pymatgen
data_Y4Ti13Si2(SbO14)2
_symmetry_space_group_name_H-M   'P 1'
_cell_length_a   5.59099645
_cell_length_b   9.03951868
_cell_length_c   12.67586933
_cell_angle_alpha   88.35231758
_cell_angle_beta   78.70401780
_cell_angle_gamma   74.01026374
_symmetry_Int_Tables_number   1
_chemical_formula_structural   Y4Ti13Si2(SbO14)2
_chemical_formula_sum   'Y4 Ti13 Si2 Sb2 O28'
_cell_volume   603.70587482
_cell_formula_units_Z   1
loop_
 _symmetry_equiv_pos_site_id
 _symmetry_equiv_pos_as_xyz
  1  'x, y, z'
loop_
 _atom_site_type_symbol
 _atom_site_label
 _atom_site_symmetry_multiplicity
 _atom_site_fract_x
 _atom_site_fract_y
 _atom_site_fract_z
 _atom_site_occupancy
  Y  Y0  1  0.01552000  0.67734100  0.42358900  1
  Y  Y1  1  0.55774600  0.30380500  0.41207900  1
  Y  Y2  1  0.98611000  0.32016600  0.57792500  1
  Y  Y3  1  0.44392300  0.69368600  0.58924400  1
  Ti  Ti4  1  0.87368200  0.62134900  0.73913200  1
  Ti  Ti5  1  0.62349200  0.36406500  0.12459300  1
  Ti  Ti6  1  0.42535900  0.37552200  0.72758700  1
  Ti  Ti7  1  0.12837300  0.37730400  0.26230400  1
  Ti  Ti8  1  0.38113800  0.63324500  0.87642800  1
  Ti  Ti9  1  0.27881700  0.99586500  0.41683600  1
  Ti  Ti10  1  0.18257400  0.70556100  0.16169900  1
  Ti  Ti11  1  0.99852100  0.00360100  0.99635200  1
  Ti  Ti12  1  0.51276300  0.99894800  0.17722400  1
  Ti  Ti13  1  0.82056200  0.29090200  0.83996600  1
  Ti  Ti14  1  0.57615400  0.62062300  0.27359500  1
  Ti  Ti15  1  0.48011500  0.99809900  0.82423600  1
  Ti  Ti16  1  0.72096900  0.00174400  0.58314700  1
  Si  Si17  1  0.21234200  0.31266900  0.98669000  1
  Si  Si18  1  0.79210100  0.68642800  0.01526200  1
  Sb  Sb19  1  0.92447800  0.97005000  0.27807300  1
  Sb  Sb20  1  0.07327200  0.02704000  0.72198700  1
  O  O21  1  0.77728000  0.37039100  0.24692800  1
  O  O22  1  0.11970500  0.41266900  0.41010100  1
  O  O23  1  0.90536700  0.37115000  0.98589600  1
  O  O24  1  0.28027400  0.12771700  0.96029300  1
  O  O25  1  0.88195200  0.58462300  0.59142300  1
  O  O26  1  0.22696100  0.62655700  0.75443900  1
  O  O27  1  0.87790000  0.14204800  0.48881100  1
  O  O28  1  0.12207400  0.85581700  0.51239700  1
  O  O29  1  0.72604900  0.87085000  0.04325800  1
  O  O30  1  0.20824800  0.93142600  0.13258900  1
  O  O31  1  0.27600500  0.34858500  0.10258700  1
  O  O32  1  0.95068400  0.60996700  0.25211500  1
  O  O33  1  0.63310600  0.85653200  0.49290300  1
  O  O34  1  0.71988500  0.14368400  0.10175400  1
  O  O35  1  0.59045700  0.61447400  0.10533200  1
  O  O36  1  0.09931500  0.62686700  0.01609600  1
  O  O37  1  0.27832100  0.85256300  0.90079700  1
  O  O38  1  0.78828400  0.06431600  0.86711800  1
  O  O39  1  0.36861400  0.14030400  0.50776800  1
  O  O40  1  0.30538000  0.15968900  0.28748500  1
  O  O41  1  0.69514200  0.83807600  0.71277900  1
  O  O42  1  0.41327200  0.38376400  0.89593200  1
  O  O43  1  0.51226500  0.14675100  0.70517100  1
  O  O44  1  0.54112600  0.41348400  0.58466900  1
  O  O45  1  0.72793200  0.65177200  0.89916100  1
  O  O46  1  0.48603300  0.84949400  0.29547400  1
  O  O47  1  0.05097400  0.38761300  0.74933600  1
  O  O48  1  0.46036500  0.58355400  0.41681700  1
