# generated using pymatgen
data_AlSn3F15
_symmetry_space_group_name_H-M   'P 1'
_cell_length_a   10.13008500
_cell_length_b   5.84869300
_cell_length_c   10.07130765
_cell_angle_alpha   74.11974778
_cell_angle_beta   90.00000000
_cell_angle_gamma   90.00000000
_symmetry_Int_Tables_number   1
_chemical_formula_structural   AlSn3F15
_chemical_formula_sum   'Al2 Sn6 F30'
_cell_volume   573.92964715
_cell_formula_units_Z   2
loop_
 _symmetry_equiv_pos_site_id
 _symmetry_equiv_pos_as_xyz
  1  'x, y, z'
loop_
 _atom_site_type_symbol
 _atom_site_label
 _atom_site_symmetry_multiplicity
 _atom_site_fract_x
 _atom_site_fract_y
 _atom_site_fract_z
 _atom_site_occupancy
  Al  Al0  1  0.75000000  0.45787500  0.76455800  1
  Al  Al1  1  0.25000000  0.54212500  0.23544200  1
  Sn  Sn2  1  0.50000000  0.00000000  0.50000000  1
  Sn  Sn3  1  0.55118300  0.97906700  0.16771500  1
  Sn  Sn4  1  0.44881700  0.02093300  0.83228500  1
  Sn  Sn5  1  0.00000000  0.00000000  0.50000000  1
  Sn  Sn6  1  0.94881700  0.97906700  0.16771500  1
  Sn  Sn7  1  0.05118300  0.02093300  0.83228500  1
  F  F8  1  0.75000000  0.61459500  0.59916900  1
  F  F9  1  0.75000000  0.86391100  0.17231500  1
  F  F10  1  0.75000000  0.58245600  0.89295500  1
  F  F11  1  0.25000000  0.38540500  0.40083100  1
  F  F12  1  0.25000000  0.41754400  0.10704500  1
  F  F13  1  0.25000000  0.13608900  0.82768500  1
  F  F14  1  0.39656700  0.17356900  0.62605300  1
  F  F15  1  0.41459800  0.09815600  0.30126800  1
  F  F16  1  0.41270800  0.13258200  0.00887400  1
  F  F17  1  0.60343300  0.82643100  0.37394700  1
  F  F18  1  0.58729200  0.86741800  0.99112600  1
  F  F19  1  0.58540200  0.90184400  0.69873200  1
  F  F20  1  0.11168500  0.72686400  0.55398200  1
  F  F21  1  0.10048200  0.71478300  0.21118700  1
  F  F22  1  0.11689200  0.70249700  0.87063100  1
  F  F23  1  0.88831500  0.27313600  0.44601800  1
  F  F24  1  0.88310800  0.29750300  0.12936900  1
  F  F25  1  0.89951800  0.28521700  0.78881300  1
  F  F26  1  0.61168500  0.27313600  0.44601800  1
  F  F27  1  0.61689200  0.29750300  0.12936900  1
  F  F28  1  0.60048200  0.28521700  0.78881300  1
  F  F29  1  0.38831500  0.72686400  0.55398200  1
  F  F30  1  0.39951800  0.71478300  0.21118700  1
  F  F31  1  0.38310800  0.70249700  0.87063100  1
  F  F32  1  0.10343300  0.17356900  0.62605300  1
  F  F33  1  0.08540200  0.09815600  0.30126800  1
  F  F34  1  0.08729200  0.13258200  0.00887400  1
  F  F35  1  0.89656700  0.82643100  0.37394700  1
  F  F36  1  0.91270800  0.86741800  0.99112600  1
  F  F37  1  0.91459800  0.90184400  0.69873200  1
