# generated using pymatgen
data_TiAl(WO4)2
_symmetry_space_group_name_H-M   'P 1'
_cell_length_a   5.57998800
_cell_length_b   5.08225600
_cell_length_c   10.48944196
_cell_angle_alpha   61.79166237
_cell_angle_beta   90.00000000
_cell_angle_gamma   90.00000000
_symmetry_Int_Tables_number   1
_chemical_formula_structural   TiAl(WO4)2
_chemical_formula_sum   'Ti2 Al2 W4 O16'
_cell_volume   262.14028371
_cell_formula_units_Z   2
loop_
 _symmetry_equiv_pos_site_id
 _symmetry_equiv_pos_as_xyz
  1  'x, y, z'
loop_
 _atom_site_type_symbol
 _atom_site_label
 _atom_site_symmetry_multiplicity
 _atom_site_fract_x
 _atom_site_fract_y
 _atom_site_fract_z
 _atom_site_occupancy
  Ti  Ti0  1  0.36487700  0.50000000  0.75000000  1
  Ti  Ti1  1  0.63512300  0.50000000  0.25000000  1
  Al  Al2  1  0.65710400  0.00000000  0.75000000  1
  Al  Al3  1  0.34289600  0.00000000  0.25000000  1
  W  W4  1  0.15475700  0.24289100  0.50167100  1
  W  W5  1  0.15475700  0.75710900  0.99832900  1
  W  W6  1  0.84524300  0.75710900  0.49832900  1
  W  W7  1  0.84524300  0.24289100  0.00167100  1
  O  O8  1  0.38714200  0.72545200  0.86325100  1
  O  O9  1  0.38714200  0.27454800  0.63674900  1
  O  O10  1  0.61285800  0.27454800  0.13674900  1
  O  O11  1  0.61285800  0.72545200  0.36325100  1
  O  O12  1  0.86945100  0.22023700  0.37900100  1
  O  O13  1  0.86945100  0.77976300  0.12099900  1
  O  O14  1  0.13054900  0.77976300  0.62099900  1
  O  O15  1  0.13054900  0.22023700  0.87900100  1
  O  O16  1  0.62857200  0.21198500  0.85605700  1
  O  O17  1  0.62857200  0.78801500  0.64394300  1
  O  O18  1  0.37142800  0.78801500  0.14394300  1
  O  O19  1  0.37142800  0.21198500  0.35605700  1
  O  O20  1  0.87537600  0.70525700  0.88447000  1
  O  O21  1  0.12462400  0.29474300  0.11553000  1
  O  O22  1  0.87537600  0.29474300  0.61553000  1
  O  O23  1  0.12462400  0.70525700  0.38447000  1
