# generated using pymatgen
data_LiFeSiO4
_symmetry_space_group_name_H-M   'P 1'
_cell_length_a   8.79424002
_cell_length_b   8.79024535
_cell_length_c   8.49967111
_cell_angle_alpha   90.00976772
_cell_angle_beta   90.00797603
_cell_angle_gamma   120.01284093
_symmetry_Int_Tables_number   1
_chemical_formula_structural   LiFeSiO4
_chemical_formula_sum   'Li6 Fe6 Si6 O24'
_cell_volume   568.95226939
_cell_formula_units_Z   6
loop_
 _symmetry_equiv_pos_site_id
 _symmetry_equiv_pos_as_xyz
  1  'x, y, z'
loop_
 _atom_site_type_symbol
 _atom_site_label
 _atom_site_symmetry_multiplicity
 _atom_site_fract_x
 _atom_site_fract_y
 _atom_site_fract_z
 _atom_site_occupancy
  Li  Li0  1  0.33331200  0.66669100  0.23454600  1
  Li  Li1  1  0.33336000  0.66665800  0.81043700  1
  Li  Li2  1  0.00011600  0.00010300  0.06822700  1
  Li  Li3  1  0.99994700  0.00001400  0.56826000  1
  Li  Li4  1  0.66665500  0.33326800  0.73449200  1
  Li  Li5  1  0.66668800  0.33339900  0.31042400  1
  Fe  Fe6  1  0.03503200  0.68987600  0.39831100  1
  Fe  Fe7  1  0.30984100  0.34512200  0.39826200  1
  Fe  Fe8  1  0.65457500  0.96469400  0.39836200  1
  Fe  Fe9  1  0.34537900  0.03524500  0.89837700  1
  Fe  Fe10  1  0.69008500  0.65475300  0.89829600  1
  Fe  Fe11  1  0.96482000  0.31008700  0.89835800  1
  Si  Si12  1  0.04025100  0.68386600  0.01952500  1
  Si  Si13  1  0.31625500  0.35639100  0.01948100  1
  Si  Si14  1  0.64366400  0.95982600  0.01955200  1
  Si  Si15  1  0.35632500  0.04012800  0.51949100  1
  Si  Si16  1  0.68371700  0.64356800  0.51948800  1
  Si  Si17  1  0.95984900  0.31624400  0.51954600  1
  O  O18  1  0.14097000  0.90951300  0.50861700  1
  O  O19  1  0.13478400  0.72000600  0.19388700  1
  O  O20  1  0.08477600  0.52537100  0.48488200  1
  O  O21  1  0.20362600  0.78345000  0.89148100  1
  O  O22  1  0.21649900  0.42018100  0.89159300  1
  O  O23  1  0.44051000  0.91519000  0.48497400  1
  O  O24  1  0.09049600  0.23158100  0.50876700  1
  O  O25  1  0.28016300  0.41479400  0.19385000  1
  O  O26  1  0.58500600  0.86530300  0.19386400  1
  O  O27  1  0.47466000  0.55935700  0.48484800  1
  O  O28  1  0.23160100  0.14096500  0.00867900  1
  O  O29  1  0.57989000  0.79621300  0.89163200  1
  O  O30  1  0.42008300  0.20361300  0.39150900  1
  O  O31  1  0.76837400  0.85899900  0.50878100  1
  O  O32  1  0.52533700  0.44060400  0.98500100  1
  O  O33  1  0.41481200  0.13470300  0.69387100  1
  O  O34  1  0.71986200  0.58508900  0.69380000  1
  O  O35  1  0.90958500  0.76851900  0.00865500  1
  O  O36  1  0.55952500  0.08474800  0.98490200  1
  O  O37  1  0.78343100  0.57983700  0.39149800  1
  O  O38  1  0.79619600  0.21648500  0.39171500  1
  O  O39  1  0.91528400  0.47466800  0.98501900  1
  O  O40  1  0.86547400  0.28031600  0.69391200  1
  O  O41  1  0.85899100  0.09056200  0.00882900  1
