# generated using pymatgen
data_Ba2AlV2F11
_symmetry_space_group_name_H-M   'P 1'
_cell_length_a   7.48095605
_cell_length_b   7.48095605
_cell_length_c   14.56996600
_cell_angle_alpha   90.00000000
_cell_angle_beta   90.00000000
_cell_angle_gamma   120.00000045
_symmetry_Int_Tables_number   1
_chemical_formula_structural   Ba2AlV2F11
_chemical_formula_sum   'Ba6 Al3 V6 F33'
_cell_volume   706.16042475
_cell_formula_units_Z   3
loop_
 _symmetry_equiv_pos_site_id
 _symmetry_equiv_pos_as_xyz
  1  'x, y, z'
loop_
 _atom_site_type_symbol
 _atom_site_label
 _atom_site_symmetry_multiplicity
 _atom_site_fract_x
 _atom_site_fract_y
 _atom_site_fract_z
 _atom_site_occupancy
  Ba  Ba0  1  0.87069300  0.85939000  0.66555100  1
  Ba  Ba1  1  0.51878700  0.16432800  0.79794000  1
  Ba  Ba2  1  0.98869600  0.12930700  0.99888400  1
  Ba  Ba3  1  0.83567200  0.35445900  0.46460700  1
  Ba  Ba4  1  0.64554100  0.48121300  0.13127300  1
  Ba  Ba5  1  0.14061000  0.01130400  0.33221700  1
  Al  Al6  1  0.49962200  0.67782500  0.87413300  1
  Al  Al7  1  0.17820300  0.50037800  0.20746600  1
  Al  Al8  1  0.32217500  0.82179700  0.54079900  1
  V  V9  1  0.97854600  0.66498800  0.88379500  1
  V  V10  1  0.14334300  0.43743900  0.72475500  1
  V  V11  1  0.56256100  0.70590400  0.39142100  1
  V  V12  1  0.68644200  0.02145400  0.21712800  1
  V  V13  1  0.29409600  0.85665700  0.05808800  1
  V  V14  1  0.33501200  0.31355800  0.55046100  1
  F  F15  1  0.98488200  0.74079800  0.02271000  1
  F  F16  1  0.83829200  0.35762100  0.92343200  1
  F  F17  1  0.75591600  0.01511800  0.35604300  1
  F  F18  1  0.42038500  0.09011400  0.49979000  1
  F  F19  1  0.87069900  0.90093000  0.17772600  1
  F  F20  1  0.24219400  0.29917300  0.19410200  1
  F  F21  1  0.90988600  0.33027000  0.16645600  1
  F  F22  1  0.70082700  0.94302000  0.86076800  1
  F  F23  1  0.03023100  0.12930100  0.51106000  1
  F  F24  1  0.60785800  0.00720900  0.08059500  1
  F  F25  1  0.66973000  0.57961500  0.83312300  1
  F  F26  1  0.25920200  0.24408400  0.68937700  1
  F  F27  1  0.58279000  0.66711000  0.98632300  1
  F  F28  1  0.35632800  0.15485700  0.02354100  1
  F  F29  1  0.08431900  0.41721000  0.31965600  1
  F  F30  1  0.64237900  0.48067100  0.59009900  1
  F  F31  1  0.32220400  0.78368400  0.91262800  1
  F  F32  1  0.39935100  0.39214200  0.41392900  1
  F  F33  1  0.30963100  0.75102800  0.42019400  1
  F  F34  1  0.33289000  0.91568100  0.65299000  1
  F  F35  1  0.44139600  0.69036900  0.75352800  1
  F  F36  1  0.84514300  0.20147100  0.69020700  1
  F  F37  1  0.79852900  0.64367200  0.35687400  1
  F  F38  1  0.46148000  0.67779600  0.24596100  1
  F  F39  1  0.99279100  0.60064900  0.74726200  1
  F  F40  1  0.09907000  0.96976900  0.84439300  1
  F  F41  1  0.51932900  0.16170800  0.25676500  1
  F  F42  1  0.26520600  0.42498000  0.87075600  1
  F  F43  1  0.15977400  0.73479400  0.20408900  1
  F  F44  1  0.24897200  0.55860400  0.08686100  1
  F  F45  1  0.05698000  0.75780600  0.52743500  1
  F  F46  1  0.21631600  0.53852000  0.57929400  1
  F  F47  1  0.57502000  0.84022600  0.53742300  1
