# generated using pymatgen
data_MgCu(SiO3)2
_symmetry_space_group_name_H-M   'P 1'
_cell_length_a   5.28266400
_cell_length_b   9.03880600
_cell_length_c   18.42246400
_cell_angle_alpha   90.00000000
_cell_angle_beta   90.00000000
_cell_angle_gamma   90.00000000
_symmetry_Int_Tables_number   1
_chemical_formula_structural   MgCu(SiO3)2
_chemical_formula_sum   'Mg8 Cu8 Si16 O48'
_cell_volume   879.65377406
_cell_formula_units_Z   8
loop_
 _symmetry_equiv_pos_site_id
 _symmetry_equiv_pos_as_xyz
  1  'x, y, z'
loop_
 _atom_site_type_symbol
 _atom_site_label
 _atom_site_symmetry_multiplicity
 _atom_site_fract_x
 _atom_site_fract_y
 _atom_site_fract_z
 _atom_site_occupancy
  Mg  Mg0  1  0.61377100  0.15208400  0.37578600  1
  Mg  Mg1  1  0.38622900  0.84791600  0.62421400  1
  Mg  Mg2  1  0.61377100  0.65208400  0.12421400  1
  Mg  Mg3  1  0.11377100  0.84791600  0.12421400  1
  Mg  Mg4  1  0.88622900  0.15208400  0.87578600  1
  Mg  Mg5  1  0.38622900  0.34791600  0.87578600  1
  Mg  Mg6  1  0.11377100  0.34791600  0.37578600  1
  Mg  Mg7  1  0.88622900  0.65208400  0.62421400  1
  Cu  Cu8  1  0.38036100  0.99252200  0.87551500  1
  Cu  Cu9  1  0.61963900  0.00747800  0.12448500  1
  Cu  Cu10  1  0.88036100  0.00747800  0.62448500  1
  Cu  Cu11  1  0.11963900  0.99252200  0.37551500  1
  Cu  Cu12  1  0.38036100  0.49252200  0.62448500  1
  Cu  Cu13  1  0.61963900  0.50747800  0.37551500  1
  Cu  Cu14  1  0.88036100  0.50747800  0.87551500  1
  Cu  Cu15  1  0.11963900  0.49252200  0.12448500  1
  Si  Si16  1  0.57449500  0.66185800  0.77425800  1
  Si  Si17  1  0.72700400  0.83620700  0.47390800  1
  Si  Si18  1  0.77299600  0.83620700  0.97390800  1
  Si  Si19  1  0.92550500  0.16185800  0.22574200  1
  Si  Si20  1  0.07449500  0.33814200  0.72574200  1
  Si  Si21  1  0.42550500  0.83814200  0.27425800  1
  Si  Si22  1  0.22700400  0.66379300  0.47390800  1
  Si  Si23  1  0.72700400  0.33620700  0.02609200  1
  Si  Si24  1  0.77299600  0.33620700  0.52609200  1
  Si  Si25  1  0.92550500  0.66185800  0.27425800  1
  Si  Si26  1  0.42550500  0.33814200  0.22574200  1
  Si  Si27  1  0.57449500  0.16185800  0.72574200  1
  Si  Si28  1  0.27299600  0.16379300  0.52609200  1
  Si  Si29  1  0.07449500  0.83814200  0.77425800  1
  Si  Si30  1  0.27299600  0.66379300  0.97390800  1
  Si  Si31  1  0.22700400  0.16379300  0.02609200  1
  O  O32  1  0.91910600  0.50047200  0.31370000  1
  O  O33  1  0.30956600  0.01352000  0.06856000  1
  O  O34  1  0.08089400  0.49952800  0.68630000  1
  O  O35  1  0.71697000  0.33946600  0.93678200  1
  O  O36  1  0.21697000  0.16053400  0.93678200  1
  O  O37  1  0.93329400  0.20721000  0.05065600  1
  O  O38  1  0.93297100  0.66626600  0.18627000  1
  O  O39  1  0.06702900  0.83373400  0.68627000  1
  O  O40  1  0.71697000  0.83946600  0.56321800  1
  O  O41  1  0.93297100  0.16626600  0.31373000  1
  O  O42  1  0.41910600  0.49952800  0.18630000  1
  O  O43  1  0.78303000  0.33946600  0.43678200  1
  O  O44  1  0.69043400  0.98648000  0.93144000  1
  O  O45  1  0.43297100  0.83373400  0.18627000  1
  O  O46  1  0.58089400  0.00047200  0.68630000  1
  O  O47  1  0.30956600  0.51352000  0.43144000  1
  O  O48  1  0.41910600  0.99952800  0.31370000  1
  O  O49  1  0.15885300  0.76498800  0.30563800  1
  O  O50  1  0.34114700  0.76498800  0.80563800  1
  O  O51  1  0.56670600  0.70721000  0.94934400  1
  O  O52  1  0.78303000  0.83946600  0.06321800  1
  O  O53  1  0.56702900  0.66626600  0.68627000  1
  O  O54  1  0.80956600  0.48648000  0.06856000  1
  O  O55  1  0.15885300  0.26498800  0.19436200  1
  O  O56  1  0.28303000  0.16053400  0.43678200  1
  O  O57  1  0.56702900  0.16626600  0.81373000  1
  O  O58  1  0.69043400  0.48648000  0.56856000  1
  O  O59  1  0.21697000  0.66053400  0.56321800  1
  O  O60  1  0.19043400  0.51352000  0.93144000  1
  O  O61  1  0.65885300  0.73501200  0.30563800  1
  O  O62  1  0.08089400  0.99952800  0.81370000  1
  O  O63  1  0.84114700  0.73501200  0.80563800  1
  O  O64  1  0.84114700  0.23501200  0.69436200  1
  O  O65  1  0.80956600  0.98648000  0.43144000  1
  O  O66  1  0.28303000  0.66053400  0.06321800  1
  O  O67  1  0.19043400  0.01352000  0.56856000  1
  O  O68  1  0.34114700  0.26498800  0.69436200  1
  O  O69  1  0.06670600  0.79279000  0.94934400  1
  O  O70  1  0.43329400  0.79279000  0.44934400  1
  O  O71  1  0.65885300  0.23501200  0.19436200  1
  O  O72  1  0.43329400  0.29279000  0.05065600  1
  O  O73  1  0.56670600  0.20721000  0.55065600  1
  O  O74  1  0.06670600  0.29279000  0.55065600  1
  O  O75  1  0.43297100  0.33373400  0.31373000  1
  O  O76  1  0.58089400  0.50047200  0.81370000  1
  O  O77  1  0.93329400  0.70721000  0.44934400  1
  O  O78  1  0.06702900  0.33373400  0.81373000  1
  O  O79  1  0.91910600  0.00047200  0.18630000  1
