# generated using pymatgen
data_K3Ca2Mg10Si16(HO12)4
_symmetry_space_group_name_H-M   'P 1'
_cell_length_a   16.55170896
_cell_length_b   9.02645635
_cell_length_c   8.54062136
_cell_angle_alpha   121.43239087
_cell_angle_beta   95.43811811
_cell_angle_gamma   106.78382337
_symmetry_Int_Tables_number   1
_chemical_formula_structural   K3Ca2Mg10Si16(HO12)4
_chemical_formula_sum   'K3 Ca2 Mg10 Si16 H4 O48'
_cell_volume   994.24549010
_cell_formula_units_Z   1
loop_
 _symmetry_equiv_pos_site_id
 _symmetry_equiv_pos_as_xyz
  1  'x, y, z'
loop_
 _atom_site_type_symbol
 _atom_site_label
 _atom_site_symmetry_multiplicity
 _atom_site_fract_x
 _atom_site_fract_y
 _atom_site_fract_z
 _atom_site_occupancy
  K  K0  1  0.35128600  0.38984800  0.10752500  1
  K  K1  1  0.75000000  0.50000000  0.00000000  1
  K  K2  1  0.14871400  0.61015200  0.89247500  1
  Ca  Ca3  1  0.93044200  0.16541200  0.97033700  1
  Ca  Ca4  1  0.56955800  0.83458800  0.02966300  1
  Mg  Mg5  1  0.12068300  0.16483100  0.06633800  1
  Mg  Mg6  1  0.22786900  0.96234500  0.69493300  1
  Mg  Mg7  1  0.03671300  0.25910600  0.42254000  1
  Mg  Mg8  1  0.46328700  0.74089400  0.57746000  1
  Mg  Mg9  1  0.27213100  0.03765500  0.30506700  1
  Mg  Mg10  1  0.37931700  0.83516900  0.93366200  1
  Mg  Mg11  1  0.68577000  0.87070400  0.62218900  1
  Mg  Mg12  1  0.39415300  0.83621500  0.29704000  1
  Mg  Mg13  1  0.10584700  0.16378500  0.70296000  1
  Mg  Mg14  1  0.81423000  0.12929600  0.37781100  1
  Si  Si15  1  0.05245900  0.82716700  0.14970700  1
  Si  Si16  1  0.85287400  0.83060100  0.46878900  1
  Si  Si17  1  0.25111900  0.61820600  0.32423800  1
  Si  Si18  1  0.62081800  0.10813000  0.87617400  1
  Si  Si19  1  0.87918200  0.89187000  0.12382600  1
  Si  Si20  1  0.24888100  0.38179400  0.67576200  1
  Si  Si21  1  0.64712600  0.16939900  0.53121100  1
  Si  Si22  1  0.44754100  0.17283300  0.85029300  1
  Si  Si23  1  0.56419900  0.57707600  0.23640700  1
  Si  Si24  1  0.06821600  0.57052500  0.31961900  1
  Si  Si25  1  0.69710400  0.45277100  0.35113000  1
  Si  Si26  1  0.99880500  0.81869000  0.66391800  1
  Si  Si27  1  0.50119500  0.18131000  0.33608200  1
  Si  Si28  1  0.80289600  0.54722900  0.64887000  1
  Si  Si29  1  0.43178400  0.42947500  0.68038100  1
  Si  Si30  1  0.93580100  0.42292400  0.76359300  1
  H  H31  1  0.00064000  0.95155900  0.89110200  1
  H  H32  1  0.49936000  0.04844100  0.10889800  1
  H  H33  1  0.66077000  0.80764400  0.24308300  1
  H  H34  1  0.83923000  0.19235600  0.75691700  1
  O  O35  1  0.48525700  0.36774400  0.50842300  1
  O  O36  1  0.51254300  0.04684700  0.79462600  1
  O  O37  1  0.06035800  0.46298900  0.06195800  1
  O  O38  1  0.44664200  0.25632500  0.72130100  1
  O  O39  1  0.11309000  0.97507100  0.76806100  1
  O  O40  1  0.98122700  0.29470000  0.62385200  1
  O  O41  1  0.66981500  0.29173400  0.09535700  1
  O  O42  1  0.25853800  0.69847800  0.18946800  1
  O  O43  1  0.68891200  0.03931600  0.36818100  1
  O  O44  1  0.29194300  0.00091100  0.51946800  1
  O  O45  1  0.22315500  0.39562900  0.23063800  1
  O  O46  1  0.78932900  0.60710400  0.33300700  1
  O  O47  1  0.71067100  0.39289600  0.66699300  1
  O  O48  1  0.27684500  0.60437100  0.76936200  1
  O  O49  1  0.20805700  0.99908900  0.48053200  1
  O  O50  1  0.81108800  0.96068400  0.63181900  1
  O  O51  1  0.24146200  0.30152200  0.81053200  1
  O  O52  1  0.83018500  0.70826600  0.90464300  1
  O  O53  1  0.51877300  0.70530000  0.37614800  1
  O  O54  1  0.05335800  0.74367500  0.27869900  1
  O  O55  1  0.43964200  0.53701100  0.93804200  1
  O  O56  1  0.03891900  0.34577800  0.26156500  1
  O  O57  1  0.98745700  0.95315300  0.20537400  1
  O  O58  1  0.38691000  0.02492900  0.23193900  1
  O  O59  1  0.06459400  0.27294200  0.94009700  1
  O  O60  1  0.01474300  0.63225600  0.49157700  1
  O  O61  1  0.62211000  0.67128300  0.13564600  1
  O  O62  1  0.99520800  0.64639600  0.92166500  1
  O  O63  1  0.86307800  0.07462300  0.15900200  1
  O  O64  1  0.53692400  0.07977100  0.43860200  1
  O  O65  1  0.32244000  0.31986100  0.55116600  1
  O  O66  1  0.84077200  0.88210700  0.29737900  1
  O  O67  1  0.14272400  0.95783600  0.14310200  1
  O  O68  1  0.85555700  0.39546400  0.60479700  1
  O  O69  1  0.60972200  0.29617000  0.35543000  1
  O  O70  1  0.35737200  0.73197000  0.45558900  1
  O  O71  1  0.14262800  0.26803000  0.54441100  1
  O  O72  1  0.89027800  0.70383000  0.64457000  1
  O  O73  1  0.64444300  0.60453600  0.39520300  1
  O  O74  1  0.35727600  0.04216400  0.85689800  1
  O  O75  1  0.65922800  0.11789300  0.70262100  1
  O  O76  1  0.17756000  0.68013900  0.44883400  1
  O  O77  1  0.96307600  0.92022900  0.56139800  1
  O  O78  1  0.50479200  0.35360400  0.07833500  1
  O  O79  1  0.87789000  0.32871700  0.86435400  1
  O  O80  1  0.43540600  0.72705800  0.05990300  1
  O  O81  1  0.63692200  0.92537700  0.84099800  1
  O  O82  1  0.46108100  0.65422200  0.73843500  1
