# generated using pymatgen
data_Ca2AlCrO5
_symmetry_space_group_name_H-M   'P 1'
_cell_length_a   5.41876084
_cell_length_b   5.69567226
_cell_length_c   8.14247781
_cell_angle_alpha   69.53226700
_cell_angle_beta   70.58380602
_cell_angle_gamma   90.01792919
_symmetry_Int_Tables_number   1
_chemical_formula_structural   Ca2AlCrO5
_chemical_formula_sum   'Ca4 Al2 Cr2 O10'
_cell_volume   220.10997240
_cell_formula_units_Z   2
loop_
 _symmetry_equiv_pos_site_id
 _symmetry_equiv_pos_as_xyz
  1  'x, y, z'
loop_
 _atom_site_type_symbol
 _atom_site_label
 _atom_site_symmetry_multiplicity
 _atom_site_fract_x
 _atom_site_fract_y
 _atom_site_fract_z
 _atom_site_occupancy
  Ca  Ca0  1  0.89810600  0.42309300  0.21699900  1
  Ca  Ca1  1  0.61460600  0.14038400  0.78283600  1
  Ca  Ca2  1  0.11505700  0.57689500  0.78272300  1
  Ca  Ca3  1  0.39847800  0.85958600  0.21706200  1
  Al  Al4  1  0.79119300  0.82808400  0.49984100  1
  Al  Al5  1  0.29149300  0.17183100  0.49982500  1
  Cr  Cr6  1  0.99522300  0.99993000  0.99981900  1
  Cr  Cr7  1  0.49532300  0.50002300  0.99982200  1
  O  O8  1  0.11968000  0.89911200  0.49973600  1
  O  O9  1  0.61982500  0.10089200  0.49988500  1
  O  O10  1  0.33080000  0.42619200  0.28962000  1
  O  O11  1  0.61965300  0.57389100  0.71004700  1
  O  O12  1  0.82924700  0.78383600  0.28972000  1
  O  O13  1  0.12047100  0.21608100  0.71004400  1
  O  O14  1  0.26364100  0.76883700  0.96882000  1
  O  O15  1  0.23232600  0.23079800  0.03155600  1
  O  O16  1  0.73264500  0.23781500  0.03099200  1
  O  O17  1  0.76404900  0.76266100  0.96797600  1
