# generated using pymatgen
data_MgV2(SiO4)3
_symmetry_space_group_name_H-M   'P 1'
_cell_length_a   10.14218524
_cell_length_b   10.14218524
_cell_length_c   10.14218524
_cell_angle_alpha   109.76077230
_cell_angle_beta   109.76077230
_cell_angle_gamma   108.89365653
_symmetry_Int_Tables_number   1
_chemical_formula_structural   MgV2(SiO4)3
_chemical_formula_sum   'Mg4 V8 Si12 O48'
_cell_volume   803.04459735
_cell_formula_units_Z   4
loop_
 _symmetry_equiv_pos_site_id
 _symmetry_equiv_pos_as_xyz
  1  'x, y, z'
loop_
 _atom_site_type_symbol
 _atom_site_label
 _atom_site_symmetry_multiplicity
 _atom_site_fract_x
 _atom_site_fract_y
 _atom_site_fract_z
 _atom_site_occupancy
  Mg  Mg0  1  0.75000000  0.75000000  0.00000000  1
  Mg  Mg1  1  0.50000000  0.00000000  0.50000000  1
  Mg  Mg2  1  0.00000000  0.50000000  0.50000000  1
  Mg  Mg3  1  0.25000000  0.25000000  0.00000000  1
  V  V4  1  0.87500000  0.12500000  0.25000000  1
  V  V5  1  0.87500000  0.62500000  0.25000000  1
  V  V6  1  0.37500000  0.12500000  0.25000000  1
  V  V7  1  0.37500000  0.62500000  0.25000000  1
  V  V8  1  0.37500000  0.12500000  0.75000000  1
  V  V9  1  0.87500000  0.62500000  0.75000000  1
  V  V10  1  0.37500000  0.62500000  0.75000000  1
  V  V11  1  0.87500000  0.12500000  0.75000000  1
  Si  Si12  1  0.25000000  0.75000000  0.50000000  1
  Si  Si13  1  0.62500000  0.24973100  0.12473100  1
  Si  Si14  1  0.75026900  0.87500000  0.37526900  1
  Si  Si15  1  0.12500000  0.50026900  0.87526900  1
  Si  Si16  1  0.25026900  0.87500000  0.87526900  1
  Si  Si17  1  0.49973100  0.37500000  0.62473100  1
  Si  Si18  1  0.75000000  0.25000000  0.50000000  1
  Si  Si19  1  0.99973100  0.37500000  0.12473100  1
  Si  Si20  1  0.00000000  0.00000000  0.00000000  1
  Si  Si21  1  0.12500000  0.00026900  0.37526900  1
  Si  Si22  1  0.62500000  0.74973100  0.62473100  1
  Si  Si23  1  0.50000000  0.50000000  0.00000000  1
  O  O24  1  0.06191200  0.70294800  0.45014900  1
  O  O25  1  0.47622600  0.62095700  0.43808000  1
  O  O26  1  0.06712300  0.12904300  0.35527000  1
  O  O27  1  0.98466000  0.32345600  0.25980100  1
  O  O28  1  0.26534000  0.02514000  0.83879600  1
  O  O29  1  0.45294800  0.50279900  0.14103600  1
  O  O30  1  0.36176300  0.31191200  0.85896400  1
  O  O31  1  0.78814600  0.72622600  0.35527000  1
  O  O32  1  0.77514000  0.43634500  0.25980100  1
  O  O33  1  0.37095700  0.43287700  0.64473000  1
  O  O34  1  0.47486000  0.23466000  0.16120400  1
  O  O35  1  0.87904300  0.02377400  0.56192000  1
  O  O36  1  0.17654400  0.51534000  0.74019900  1
  O  O37  1  0.07345600  0.31365500  0.83879600  1
  O  O38  1  0.46185400  0.31712300  0.43808000  1
  O  O39  1  0.99720100  0.04705200  0.85896400  1
  O  O40  1  0.18287700  0.03814600  0.56192000  1
  O  O41  1  0.18808800  0.13823700  0.14103600  1
  O  O42  1  0.18634500  0.42654400  0.16120400  1
  O  O43  1  0.25279900  0.61176300  0.54985100  1
  O  O44  1  0.79705200  0.43808800  0.54985100  1
  O  O45  1  0.77377400  0.71185400  0.64473000  1
  O  O46  1  0.06365500  0.72486000  0.74019900  1
  O  O47  1  0.88823700  0.24720100  0.45014900  1
  O  O48  1  0.68808800  0.54705200  0.04985100  1
  O  O49  1  0.27377400  0.62904300  0.06192000  1
  O  O50  1  0.68287700  0.12095700  0.14473000  1
  O  O51  1  0.76534000  0.92654400  0.24019900  1
  O  O52  1  0.48466000  0.22486000  0.66120400  1
  O  O53  1  0.29705200  0.74720100  0.35896400  1
  O  O54  1  0.38823700  0.93808800  0.64103600  1
  O  O55  1  0.96185400  0.52377400  0.14473000  1
  O  O56  1  0.97486000  0.81365500  0.24019900  1
  O  O57  1  0.37904300  0.81712300  0.85527000  1
  O  O58  1  0.27514000  0.01534000  0.33879600  1
  O  O59  1  0.87095700  0.22622600  0.93808000  1
  O  O60  1  0.57345600  0.73466000  0.75980100  1
  O  O61  1  0.67654400  0.93634500  0.66120400  1
  O  O62  1  0.28814600  0.93287700  0.06192000  1
  O  O63  1  0.75279900  0.20294800  0.64103600  1
  O  O64  1  0.56712300  0.21185400  0.93808000  1
  O  O65  1  0.56191200  0.11176300  0.35896400  1
  O  O66  1  0.56365500  0.82345600  0.33879600  1
  O  O67  1  0.49720100  0.63823700  0.95014900  1
  O  O68  1  0.95294800  0.81191200  0.95014900  1
  O  O69  1  0.97622600  0.53814600  0.85527000  1
  O  O70  1  0.68634500  0.52514000  0.75980100  1
  O  O71  1  0.86176300  0.00279900  0.04985100  1
