# generated using pymatgen
data_Al2H18SO15
_symmetry_space_group_name_H-M   'P 1'
_cell_length_a   8.14037350
_cell_length_b   16.88169804
_cell_length_c   12.85387205
_cell_angle_alpha   90.00000000
_cell_angle_beta   113.21089620
_cell_angle_gamma   90.00000000
_symmetry_Int_Tables_number   1
_chemical_formula_structural   Al2H18SO15
_chemical_formula_sum   'Al8 H72 S4 O60'
_cell_volume   1623.44839489
_cell_formula_units_Z   4
loop_
 _symmetry_equiv_pos_site_id
 _symmetry_equiv_pos_as_xyz
  1  'x, y, z'
loop_
 _atom_site_type_symbol
 _atom_site_label
 _atom_site_symmetry_multiplicity
 _atom_site_fract_x
 _atom_site_fract_y
 _atom_site_fract_z
 _atom_site_occupancy
  Al  Al0  1  0.79489314  0.09650273  0.95172592  1
  Al  Al1  1  0.20510686  0.59650273  0.54827408  1
  Al  Al2  1  0.20510686  0.90349727  0.04827408  1
  Al  Al3  1  0.79489314  0.40349727  0.45172592  1
  Al  Al4  1  0.09543543  0.03823133  0.19059452  1
  Al  Al5  1  0.90456457  0.53823133  0.30940548  1
  Al  Al6  1  0.90456457  0.96176867  0.80940548  1
  Al  Al7  1  0.09543543  0.46176867  0.69059452  1
  H  H8  1  0.78097410  0.84760066  0.13597113  1
  H  H9  1  0.21902590  0.34760066  0.36402887  1
  H  H10  1  0.21902590  0.15239934  0.86402887  1
  H  H11  1  0.78097410  0.65239934  0.63597113  1
  H  H12  1  0.44861728  0.10412895  0.67804922  1
  H  H13  1  0.55138272  0.60412895  0.82195078  1
  H  H14  1  0.55138272  0.89587105  0.32195078  1
  H  H15  1  0.44861728  0.39587105  0.17804922  1
  H  H16  1  0.94812112  0.19785250  0.20907684  1
  H  H17  1  0.05187888  0.69785250  0.29092316  1
  H  H18  1  0.05187888  0.80214750  0.79092316  1
  H  H19  1  0.94812112  0.30214750  0.70907684  1
  H  H20  1  0.31576530  0.92499519  0.75667771  1
  H  H21  1  0.68423470  0.42499519  0.74332229  1
  H  H22  1  0.68423470  0.07500481  0.24332229  1
  H  H23  1  0.31576530  0.57500481  0.25667771  1
  H  H24  1  0.52168695  0.18173049  0.90711021  1
  H  H25  1  0.47831305  0.68173049  0.59288979  1
  H  H26  1  0.47831305  0.81826951  0.09288979  1
  H  H27  1  0.52168695  0.31826951  0.40711021  1
  H  H28  1  0.71474437  0.24738145  0.91114644  1
  H  H29  1  0.28525563  0.74738145  0.58885356  1
  H  H30  1  0.28525563  0.75261855  0.08885356  1
  H  H31  1  0.71474437  0.25261855  0.41114644  1
  H  H32  1  0.27372564  0.15509329  0.17922589  1
  H  H33  1  0.72627436  0.65509329  0.32077411  1
  H  H34  1  0.72627436  0.84490671  0.82077411  1
  H  H35  1  0.27372564  0.34490671  0.67922589  1
  H  H36  1  0.39381837  0.10912894  0.30235770  1
  H  H37  1  0.60618163  0.60912894  0.19764230  1
  H  H38  1  0.60618163  0.89087106  0.69764230  1
  H  H39  1  0.39381837  0.39087106  0.80235770  1
  H  H40  1  0.98178759  0.04050434  0.35067782  1
  H  H41  1  0.01821241  0.54050434  0.14932218  1
  H  H42  1  0.01821241  0.95949566  0.64932218  1
  H  H43  1  0.98178759  0.45949566  0.85067782  1
  H  H44  1  0.10272250  0.96054100  0.36158203  1
  H  H45  1  0.89727750  0.46054100  0.13841797  1
  H  H46  1  0.89727750  0.03945900  0.63841797  1
  H  H47  1  0.10272250  0.53945900  0.86158203  1
  H  H48  1  0.92405559  0.20293219  0.32512626  1
  H  H49  1  0.07594441  0.70293219  0.17487374  1
  H  H50  1  0.07594441  0.79706781  0.67487374  1
  H  H51  1  0.92405559  0.29706781  0.82512626  1
  H  H52  1  0.63316263  0.28960011  0.13916845  1
  H  H53  1  0.36683737  0.78960011  0.36083155  1
  H  H54  1  0.36683737  0.71039989  0.86083155  1
  H  H55  1  0.63316263  0.21039989  0.63916845  1
  H  H56  1  0.60664115  0.24845043  0.14894003  1
  H  H57  1  0.39335885  0.74845043  0.35105997  1
  H  H58  1  0.39335885  0.75154957  0.85105997  1
  H  H59  1  0.60664115  0.25154957  0.64894003  1
  H  H60  1  0.27376129  0.27846444  0.12338395  1
  H  H61  1  0.72623871  0.77846444  0.37661605  1
  H  H62  1  0.72623871  0.72153556  0.87661605  1
  H  H63  1  0.27376129  0.22153556  0.62338395  1
  H  H64  1  0.18853304  0.24304549  0.84759681  1
  H  H65  1  0.81146696  0.74304549  0.65240319  1
  H  H66  1  0.81146696  0.75695451  0.15240319  1
  H  H67  1  0.18853304  0.25695451  0.34759681  1
  H  H68  1  0.26834767  0.21874605  0.02794236  1
  H  H69  1  0.73165233  0.71874605  0.47205764  1
  H  H70  1  0.73165233  0.78125395  0.97205764  1
  H  H71  1  0.26834767  0.28125395  0.52794236  1
  H  H72  1  0.74562028  0.09329007  0.14503040  1
  H  H73  1  0.25437972  0.59329007  0.35496960  1
  H  H74  1  0.25437972  0.90670993  0.85496960  1
  H  H75  1  0.74562028  0.40670993  0.64503040  1
  H  H76  1  0.37027985  0.07668677  0.65117360  1
  H  H77  1  0.62972015  0.57668677  0.84882640  1
  H  H78  1  0.62972015  0.92331323  0.34882640  1
  H  H79  1  0.37027985  0.42331323  0.15117360  1
  S  S80  1  0.74678916  0.11909599  0.45202447  1
  S  S81  1  0.25321084  0.61909599  0.04797553  1
  S  S82  1  0.25321084  0.88090401  0.54797553  1
  S  S83  1  0.74678916  0.38090401  0.95202447  1
  O  O84  1  0.79368936  0.19930957  0.40905116  1
  O  O85  1  0.20631064  0.69930957  0.09094884  1
  O  O86  1  0.20631064  0.80069043  0.59094884  1
  O  O87  1  0.79368936  0.30069043  0.90905116  1
  O  O88  1  0.55276975  0.11754745  0.42097337  1
  O  O89  1  0.44723025  0.61754745  0.07902663  1
  O  O90  1  0.44723025  0.88245255  0.57902663  1
  O  O91  1  0.55276975  0.38245255  0.92097337  1
  O  O92  1  0.80751108  0.05748091  0.39325930  1
  O  O93  1  0.19248892  0.55748091  0.10674070  1
  O  O94  1  0.19248892  0.94251909  0.60674070  1
  O  O95  1  0.80751108  0.44251909  0.89325930  1
  O  O96  1  0.84730108  0.11660262  0.57572856  1
  O  O97  1  0.15269892  0.61660262  0.92427144  1
  O  O98  1  0.15269892  0.88339738  0.42427144  1
  O  O99  1  0.84730108  0.38339738  0.07572856  1
  O  O100  1  0.70108398  0.94142116  0.00268266  1
  O  O101  1  0.29891602  0.44142116  0.49731734  1
  O  O102  1  0.29891602  0.05857884  0.99731734  1
  O  O103  1  0.70108398  0.55857884  0.50268266  1
  O  O104  1  0.86149875  0.05195026  0.85664328  1
  O  O105  1  0.13850125  0.55195026  0.64335672  1
  O  O106  1  0.13850125  0.94804974  0.14335672  1
  O  O107  1  0.86149875  0.44804974  0.35664328  1
  O  O108  1  0.91946095  0.09283731  0.09476007  1
  O  O109  1  0.08053905  0.59283731  0.40523993  1
  O  O110  1  0.08053905  0.90716269  0.90523993  1
  O  O111  1  0.91946095  0.40716269  0.59476007  1
  O  O112  1  0.63798060  0.09000973  0.16279219  1
  O  O113  1  0.36201940  0.59000973  0.33720781  1
  O  O114  1  0.36201940  0.90999027  0.83720781  1
  O  O115  1  0.63798060  0.40999027  0.66279219  1
  O  O116  1  0.64333220  0.17571812  0.90867224  1
  O  O117  1  0.35666780  0.67571812  0.59132776  1
  O  O118  1  0.35666780  0.82428188  0.09132776  1
  O  O119  1  0.64333220  0.32428188  0.40867224  1
  O  O120  1  0.28424352  0.10577943  0.22834679  1
  O  O121  1  0.71575648  0.60577943  0.27165421  1
  O  O122  1  0.71575648  0.89422057  0.77165421  1
  O  O123  1  0.28424352  0.39422057  0.72834579  1
  O  O124  1  0.06119601  0.01373506  0.31887713  1
  O  O125  1  0.93880399  0.51373506  0.18112287  1
  O  O126  1  0.93880399  0.98626494  0.68112287  1
  O  O127  1  0.06119601  0.48626494  0.81887713  1
  O  O128  1  0.01357240  0.19967543  0.29107726  1
  O  O129  1  0.98642760  0.69967543  0.20892274  1
  O  O130  1  0.98642760  0.80032457  0.70892274  1
  O  O131  1  0.01357240  0.30032457  0.79107726  1
  O  O132  1  0.23463659  0.22557217  0.09384174  1
  O  O133  1  0.76536341  0.72557217  0.40615826  1
  O  O134  1  0.76536341  0.77442783  0.90615826  1
  O  O135  1  0.23463659  0.27442783  0.59384174  1
  O  O136  1  0.28219892  0.20224167  0.89009485  1
  O  O137  1  0.71780108  0.70224167  0.60990515  1
  O  O138  1  0.71780108  0.79775833  0.10990515  1
  O  O139  1  0.28219892  0.29775833  0.39009485  1
  O  O140  1  0.37593359  0.99880710  0.05026544  1
  O  O141  1  0.62406641  0.49880710  0.44973456  1
  O  O142  1  0.62406641  0.00119290  0.94973456  1
  O  O143  1  0.37593359  0.50119290  0.55026544  1
