# generated using pymatgen
data_AlSbO3
_symmetry_space_group_name_H-M   'P 1'
_cell_length_a   5.50321717
_cell_length_b   5.11810450
_cell_length_c   11.53031070
_cell_angle_alpha   90.04020737
_cell_angle_beta   89.91727264
_cell_angle_gamma   90.07938599
_symmetry_Int_Tables_number   1
_chemical_formula_structural   AlSbO3
_chemical_formula_sum   'Al4 Sb4 O12'
_cell_volume   324.76246933
_cell_formula_units_Z   4
loop_
 _symmetry_equiv_pos_site_id
 _symmetry_equiv_pos_as_xyz
  1  'x, y, z'
loop_
 _atom_site_type_symbol
 _atom_site_label
 _atom_site_symmetry_multiplicity
 _atom_site_fract_x
 _atom_site_fract_y
 _atom_site_fract_z
 _atom_site_occupancy
  Al  Al0  1  0.90202500  0.00249300  0.73764200  1
  Al  Al1  1  0.42824800  0.49869500  0.26274700  1
  Al  Al2  1  0.57179200  0.50166400  0.76151500  1
  Al  Al3  1  0.09819400  0.99743500  0.23896700  1
  Sb  Sb4  1  0.05698100  0.51001700  0.56551400  1
  Sb  Sb5  1  0.58131500  0.99166600  0.43518000  1
  Sb  Sb6  1  0.41800600  0.00905500  0.93375000  1
  Sb  Sb7  1  0.94456900  0.48956700  0.06693300  1
  O  O8  1  0.47356300  0.34880100  0.39882500  1
  O  O9  1  0.94399000  0.15275500  0.60058100  1
  O  O10  1  0.05764100  0.84678200  0.10184100  1
  O  O11  1  0.52601600  0.65179800  0.89764800  1
  O  O12  1  0.33810500  0.52294100  0.66285600  1
  O  O13  1  0.86357100  0.97469200  0.33723100  1
  O  O14  1  0.13507100  0.02437600  0.83653300  1
  O  O15  1  0.66162700  0.47693900  0.16353100  1
  O  O16  1  0.16611400  0.33369800  0.20163500  1
  O  O17  1  0.64030400  0.16615500  0.79775100  1
  O  O18  1  0.35918100  0.83404500  0.29931900  1
  O  O19  1  0.83368800  0.66642900  0.70000300  1
