# generated using pymatgen
data_Li2Fe2Si2O9
_symmetry_space_group_name_H-M   'P 1'
_cell_length_a   14.07450401
_cell_length_b   8.62275300
_cell_length_c   5.05715001
_cell_angle_alpha   90.00356501
_cell_angle_beta   90.00398117
_cell_angle_gamma   89.99897261
_symmetry_Int_Tables_number   1
_chemical_formula_structural   Li2Fe2Si2O9
_chemical_formula_sum   'Li8 Fe8 Si8 O36'
_cell_volume   613.74063609
_cell_formula_units_Z   4
loop_
 _symmetry_equiv_pos_site_id
 _symmetry_equiv_pos_as_xyz
  1  'x, y, z'
loop_
 _atom_site_type_symbol
 _atom_site_label
 _atom_site_symmetry_multiplicity
 _atom_site_fract_x
 _atom_site_fract_y
 _atom_site_fract_z
 _atom_site_occupancy
  Li  Li0  1  0.15576500  0.03098700  0.63476300  1
  Li  Li1  1  0.15620900  0.46682300  0.14242900  1
  Li  Li2  1  0.34427500  0.53104300  0.13469000  1
  Li  Li3  1  0.34386900  0.96691800  0.64243300  1
  Li  Li4  1  0.65581800  0.03088400  0.36530900  1
  Li  Li5  1  0.65611400  0.46675300  0.85751500  1
  Li  Li6  1  0.84413100  0.53087400  0.86532300  1
  Li  Li7  1  0.84383700  0.96671900  0.35756400  1
  Fe  Fe8  1  0.16956600  0.65161900  0.63309600  1
  Fe  Fe9  1  0.16915100  0.84766400  0.13539500  1
  Fe  Fe10  1  0.33044100  0.15165500  0.13305800  1
  Fe  Fe11  1  0.33086400  0.34768800  0.63530000  1
  Fe  Fe12  1  0.66956200  0.65158900  0.36688500  1
  Fe  Fe13  1  0.66910800  0.84760800  0.86463400  1
  Fe  Fe14  1  0.83041600  0.15155100  0.86695500  1
  Fe  Fe15  1  0.83089400  0.34761300  0.36463000  1
  Si  Si16  1  0.03574400  0.16078500  0.17823300  1
  Si  Si17  1  0.03551800  0.34176400  0.67873300  1
  Si  Si18  1  0.46426400  0.66079600  0.67820000  1
  Si  Si19  1  0.46448500  0.84175600  0.17873000  1
  Si  Si20  1  0.53572700  0.16073800  0.82177600  1
  Si  Si21  1  0.53552000  0.34167800  0.32126700  1
  Si  Si22  1  0.96426600  0.66073500  0.32182300  1
  Si  Si23  1  0.96447700  0.84168100  0.82134200  1
  O  O24  1  0.07147800  0.30398600  0.37440700  1
  O  O25  1  0.07261200  0.19986600  0.87467800  1
  O  O26  1  0.08401500  0.49970300  0.78805200  1
  O  O27  1  0.08447000  0.00479100  0.28830900  1
  O  O28  1  0.08184400  0.66203400  0.31813100  1
  O  O29  1  0.08162600  0.83944300  0.81330400  1
  O  O30  1  0.23118900  0.81897200  0.47396100  1
  O  O31  1  0.23052600  0.67160200  0.95609100  1
  O  O32  1  0.25393800  0.00032900  0.97117000  1
  O  O33  1  0.24607400  0.50032200  0.47109500  1
  O  O34  1  0.26950000  0.17157900  0.45599200  1
  O  O35  1  0.26880600  0.31897800  0.97382900  1
  O  O36  1  0.41814900  0.16204500  0.81809900  1
  O  O37  1  0.41836800  0.33942800  0.31316100  1
  O  O38  1  0.41602100  0.99971600  0.28802600  1
  O  O39  1  0.41555900  0.50478600  0.78824800  1
  O  O40  1  0.42736500  0.69986500  0.37464600  1
  O  O41  1  0.42853800  0.80398500  0.87438600  1
  O  O42  1  0.57263000  0.19978800  0.12532300  1
  O  O43  1  0.57145700  0.30391200  0.62560900  1
  O  O44  1  0.58398800  0.49963900  0.21196800  1
  O  O45  1  0.58442200  0.00470200  0.71168200  1
  O  O46  1  0.58183900  0.66203300  0.68187000  1
  O  O47  1  0.58163100  0.83941100  0.18679800  1
  O  O48  1  0.73049300  0.67154700  0.04388400  1
  O  O49  1  0.73119000  0.81893700  0.52614500  1
  O  O50  1  0.75388900  0.00025200  0.02886600  1
  O  O51  1  0.74608900  0.50028700  0.52875700  1
  O  O52  1  0.76948400  0.17162900  0.54388600  1
  O  O53  1  0.76881300  0.31894200  0.02614100  1
  O  O54  1  0.91816600  0.16202100  0.18194000  1
  O  O55  1  0.91837400  0.33947600  0.68673500  1
  O  O56  1  0.91597700  0.99962900  0.71202300  1
  O  O57  1  0.91555300  0.50472400  0.21167300  1
  O  O58  1  0.92738400  0.69978900  0.62536300  1
  O  O59  1  0.92852700  0.80392500  0.12567200  1
