# generated using pymatgen
data_AlWF5
_symmetry_space_group_name_H-M   'P 1'
_cell_length_a   5.47622014
_cell_length_b   5.47622014
_cell_length_c   5.47622014
_cell_angle_alpha   139.32399923
_cell_angle_beta   106.28547211
_cell_angle_gamma   87.77460279
_symmetry_Int_Tables_number   1
_chemical_formula_structural   AlWF5
_chemical_formula_sum   'Al1 W1 F5'
_cell_volume   98.69847200
_cell_formula_units_Z   1
loop_
 _symmetry_equiv_pos_site_id
 _symmetry_equiv_pos_as_xyz
  1  'x, y, z'
loop_
 _atom_site_type_symbol
 _atom_site_label
 _atom_site_symmetry_multiplicity
 _atom_site_fract_x
 _atom_site_fract_y
 _atom_site_fract_z
 _atom_site_occupancy
  Al  Al0  1  0.50000000  0.50000000  0.00000000  1
  W  W1  1  0.00000000  0.00000000  0.00000000  1
  F  F2  1  0.77831100  0.50000000  0.27831100  1
  F  F3  1  0.22168900  0.50000000  0.72168900  1
  F  F4  1  0.27335300  0.27335300  0.00000000  1
  F  F5  1  0.72664700  0.72664700  0.00000000  1
  F  F6  1  0.50000000  0.00000000  0.50000000  1
