# generated using pymatgen
data_Rb9Na2Al11Si13O48
_symmetry_space_group_name_H-M   'P 1'
_cell_length_a   12.61612914
_cell_length_b   12.23334563
_cell_length_c   12.22318463
_cell_angle_alpha   90.66905654
_cell_angle_beta   90.15708439
_cell_angle_gamma   89.16844108
_symmetry_Int_Tables_number   1
_chemical_formula_structural   Rb9Na2Al11Si13O48
_chemical_formula_sum   'Rb9 Na2 Al11 Si13 O48'
_cell_volume   1886.16184116
_cell_formula_units_Z   1
loop_
 _symmetry_equiv_pos_site_id
 _symmetry_equiv_pos_as_xyz
  1  'x, y, z'
loop_
 _atom_site_type_symbol
 _atom_site_label
 _atom_site_symmetry_multiplicity
 _atom_site_fract_x
 _atom_site_fract_y
 _atom_site_fract_z
 _atom_site_occupancy
  Rb  Rb0  1  0.01711464  0.54138060  0.49604184  1
  Rb  Rb1  1  0.25345961  0.73347749  0.24823865  1
  Rb  Rb2  1  0.54192236  0.48337935  0.98440947  1
  Rb  Rb3  1  0.57435826  0.00590238  0.48927988  1
  Rb  Rb4  1  0.73598382  0.23633093  0.24692431  1
  Rb  Rb5  1  0.73133726  0.25230975  0.74203222  1
  Rb  Rb6  1  0.68732457  0.66142529  0.20909610  1
  Rb  Rb7  1  0.49408532  0.75941827  0.75374801  1
  Rb  Rb8  1  0.11069770  0.09120869  0.89326950  1
  Na  Na9  1  0.83228002  0.86523478  0.14541989  1
  Na  Na10  1  0.80124502  0.80937457  0.82577087  1
  Al  Al11  1  0.99977879  0.62688413  0.18561612  1
  Al  Al12  1  0.37074432  0.80406685  0.99728809  1
  Al  Al13  1  0.61717834  0.99220671  0.18807924  1
  Al  Al14  1  0.60391827  0.19453755  0.00108815  1
  Al  Al15  1  0.61075883  0.01246779  0.80292177  1
  Al  Al16  1  0.62189533  0.81227266  0.98939078  1
  Al  Al17  1  0.82992975  0.99296725  0.36668619  1
  Al  Al18  1  0.82071019  0.99448063  0.63553826  1
  Al  Al19  1  0.81476860  0.36744919  0.00797709  1
  Al  Al20  1  0.83358189  0.63554613  0.99759238  1
  Al  Al21  1  0.00215416  0.81592341  0.63614977  1
  Si  Si22  1  0.99559902  0.36943537  0.19036479  1
  Si  Si23  1  0.99990594  0.18500738  0.62642171  1
  Si  Si24  1  0.00814715  0.81528469  0.37168387  1
  Si  Si25  1  0.18720164  0.00176411  0.38040532  1
  Si  Si26  1  0.18298922  0.00200036  0.62867808  1
  Si  Si27  1  0.17443510  0.36216437  0.00632364  1
  Si  Si28  1  0.18883268  0.60889792  0.99571827  1
  Si  Si29  1  0.37218178  0.99288280  0.19264650  1
  Si  Si30  1  0.36431664  0.17977600  0.01213712  1
  Si  Si31  1  0.36575444  0.99667358  0.81584659  1
  Si  Si32  1  0.00669571  0.18499971  0.37522335  1
  Si  Si33  1  0.99509099  0.36628105  0.82069090  1
  Si  Si34  1  0.01646396  0.62118822  0.81059178  1
  O  O35  1  0.01376303  0.29322440  0.29931927  1
  O  O36  1  0.00327309  0.23509726  0.50194717  1
  O  O37  1  0.00772516  0.29067000  0.70980111  1
  O  O38  1  0.03794591  0.70335087  0.30317587  1
  O  O39  1  0.98596369  0.77907536  0.49629969  1
  O  O40  1  0.00062164  0.49082573  0.77497782  1
  O  O41  1  0.02326119  0.68603426  0.69659013  1
  O  O42  1  0.11592937  0.11167857  0.35937022  1
  O  O43  1  0.10593186  0.35978555  0.11834183  1
  O  O44  1  0.10778197  0.11207465  0.64709035  1
  O  O45  1  0.11171638  0.62378065  0.10034561  1
  O  O46  1  0.09815422  0.33765376  0.89941572  1
  O  O47  1  0.11806820  0.89046823  0.36584965  1
  O  O48  1  0.12889337  0.62886851  0.87841966  1
  O  O49  1  0.11932073  0.89206290  0.64655068  1
  O  O50  1  0.23714420  0.00652653  0.50539488  1
  O  O51  1  0.23466319  0.47904388  0.99347130  1
  O  O52  1  0.28386746  0.99247881  0.29359743  1
  O  O53  1  0.25823372  0.26039567  0.00755798  1
  O  O54  1  0.27297171  0.01722663  0.72296642  1
  O  O55  1  0.28808969  0.68927777  0.00914769  1
  O  O56  1  0.35088626  0.10517442  0.12205532  1
  O  O57  1  0.34975513  0.09959817  0.90339618  1
  O  O58  1  0.34835907  0.88587121  0.11613048  1
  O  O59  1  0.34247844  0.88256513  0.87847168  1
  O  O60  1  0.48774722  0.98684673  0.25079369  1
  O  O61  1  0.46962816  0.25257597  0.01109790  1
  O  O62  1  0.47722697  0.99222020  0.75045678  1
  O  O63  1  0.49769022  0.74619589  0.98425405  1
  O  O64  1  0.62217793  0.10919662  0.11098100  1
  O  O65  1  0.61344016  0.13560055  0.87256553  1
  O  O66  1  0.64849675  0.86854441  0.11973553  1
  O  O67  1  0.63853850  0.89125257  0.87213484  1
  O  O68  1  0.71408492  0.00477222  0.29056239  1
  O  O69  1  0.69533042  0.02172488  0.69083753  1
  O  O70  1  0.69113673  0.30570322  0.01014214  1
  O  O71  1  0.72096478  0.71292119  0.97118860  1
  O  O72  1  0.79493611  0.97108428  0.49890974  1
  O  O73  1  0.78806335  0.50548089  0.02036401  1
  O  O74  1  0.90265167  0.11595806  0.34736793  1
  O  O75  1  0.89698525  0.32313428  0.11926025  1
  O  O76  1  0.88673239  0.33806800  0.88335101  1
  O  O77  1  0.91156018  0.88311647  0.31349707  1
  O  O78  1  0.89428854  0.11962195  0.65286423  1
  O  O79  1  0.88967992  0.68643822  0.12200608  1
  O  O80  1  0.91762685  0.66242884  0.88494378  1
  O  O81  1  0.89500022  0.88685317  0.69471204  1
  O  O82  1  0.97837376  0.49365155  0.23679825  1
