# generated using pymatgen
data_ZnCr(SiO3)2
_symmetry_space_group_name_H-M   'P 1'
_cell_length_a   5.32678500
_cell_length_b   9.18934900
_cell_length_c   18.72667900
_cell_angle_alpha   90.00000000
_cell_angle_beta   90.00000000
_cell_angle_gamma   90.00000000
_symmetry_Int_Tables_number   1
_chemical_formula_structural   ZnCr(SiO3)2
_chemical_formula_sum   'Zn8 Cr8 Si16 O48'
_cell_volume   916.66506461
_cell_formula_units_Z   8
loop_
 _symmetry_equiv_pos_site_id
 _symmetry_equiv_pos_as_xyz
  1  'x, y, z'
loop_
 _atom_site_type_symbol
 _atom_site_label
 _atom_site_symmetry_multiplicity
 _atom_site_fract_x
 _atom_site_fract_y
 _atom_site_fract_z
 _atom_site_occupancy
  Zn  Zn0  1  0.61793200  0.15010100  0.37569800  1
  Zn  Zn1  1  0.38206800  0.84989900  0.62430200  1
  Zn  Zn2  1  0.61793200  0.65010100  0.12430200  1
  Zn  Zn3  1  0.11793200  0.84989900  0.12430200  1
  Zn  Zn4  1  0.88206800  0.15010100  0.87569800  1
  Zn  Zn5  1  0.38206800  0.34989900  0.87569800  1
  Zn  Zn6  1  0.11793200  0.34989900  0.37569800  1
  Zn  Zn7  1  0.88206800  0.65010100  0.62430200  1
  Cr  Cr8  1  0.37604100  0.98262200  0.87629200  1
  Cr  Cr9  1  0.62395900  0.01737800  0.12370800  1
  Cr  Cr10  1  0.87604100  0.01737800  0.62370800  1
  Cr  Cr11  1  0.12395900  0.98262200  0.37629200  1
  Cr  Cr12  1  0.37604100  0.48262200  0.62370800  1
  Cr  Cr13  1  0.62395900  0.51737800  0.37629200  1
  Cr  Cr14  1  0.87604100  0.51737800  0.87629200  1
  Cr  Cr15  1  0.12395900  0.48262200  0.12370800  1
  Si  Si16  1  0.56462600  0.66234900  0.77185700  1
  Si  Si17  1  0.71231800  0.83570400  0.47525500  1
  Si  Si18  1  0.78768200  0.83570400  0.97525500  1
  Si  Si19  1  0.93537400  0.16234900  0.22814300  1
  Si  Si20  1  0.06462600  0.33765100  0.72814300  1
  Si  Si21  1  0.43537400  0.83765100  0.27185700  1
  Si  Si22  1  0.21231800  0.66429600  0.47525500  1
  Si  Si23  1  0.71231800  0.33570400  0.02474500  1
  Si  Si24  1  0.78768200  0.33570400  0.52474500  1
  Si  Si25  1  0.93537400  0.66234900  0.27185700  1
  Si  Si26  1  0.43537400  0.33765100  0.22814300  1
  Si  Si27  1  0.56462600  0.16234900  0.72814300  1
  Si  Si28  1  0.28768200  0.16429600  0.52474500  1
  Si  Si29  1  0.06462600  0.83765100  0.77185700  1
  Si  Si30  1  0.28768200  0.66429600  0.97525500  1
  Si  Si31  1  0.21231800  0.16429600  0.02474500  1
  O  O32  1  0.93228100  0.50480300  0.31090600  1
  O  O33  1  0.29711100  0.01671800  0.06562800  1
  O  O34  1  0.06771900  0.49519700  0.68909400  1
  O  O35  1  0.71065600  0.33946000  0.93696200  1
  O  O36  1  0.21065600  0.16054000  0.93696200  1
  O  O37  1  0.92271100  0.21028000  0.05080600  1
  O  O38  1  0.94170700  0.66440700  0.18477300  1
  O  O39  1  0.05829300  0.83559300  0.68477300  1
  O  O40  1  0.71065600  0.83946000  0.56303800  1
  O  O41  1  0.94170700  0.16440700  0.31522700  1
  O  O42  1  0.43228100  0.49519700  0.18909400  1
  O  O43  1  0.78934400  0.33946000  0.43696200  1
  O  O44  1  0.70288900  0.98328200  0.93437200  1
  O  O45  1  0.44170700  0.83559300  0.18477300  1
  O  O46  1  0.56771900  0.00480300  0.68909400  1
  O  O47  1  0.29711100  0.51671800  0.43437200  1
  O  O48  1  0.43228100  0.99519700  0.31090600  1
  O  O49  1  0.16523000  0.76749600  0.30259100  1
  O  O50  1  0.33477000  0.76749600  0.80259100  1
  O  O51  1  0.57728900  0.71028000  0.94919400  1
  O  O52  1  0.78934400  0.83946000  0.06303800  1
  O  O53  1  0.55829300  0.66440700  0.68477300  1
  O  O54  1  0.79711100  0.48328200  0.06562800  1
  O  O55  1  0.16523000  0.26749600  0.19740900  1
  O  O56  1  0.28934400  0.16054000  0.43696200  1
  O  O57  1  0.55829300  0.16440700  0.81522700  1
  O  O58  1  0.70288900  0.48328200  0.56562800  1
  O  O59  1  0.21065600  0.66054000  0.56303800  1
  O  O60  1  0.20288900  0.51671800  0.93437200  1
  O  O61  1  0.66523000  0.73250400  0.30259100  1
  O  O62  1  0.06771900  0.99519700  0.81090600  1
  O  O63  1  0.83477000  0.73250400  0.80259100  1
  O  O64  1  0.83477000  0.23250400  0.69740900  1
  O  O65  1  0.79711100  0.98328200  0.43437200  1
  O  O66  1  0.28934400  0.66054000  0.06303800  1
  O  O67  1  0.20288900  0.01671800  0.56562800  1
  O  O68  1  0.33477000  0.26749600  0.69740900  1
  O  O69  1  0.07728900  0.78972000  0.94919400  1
  O  O70  1  0.42271100  0.78972000  0.44919400  1
  O  O71  1  0.66523000  0.23250400  0.19740900  1
  O  O72  1  0.42271100  0.28972000  0.05080600  1
  O  O73  1  0.57728900  0.21028000  0.55080600  1
  O  O74  1  0.07728900  0.28972000  0.55080600  1
  O  O75  1  0.44170700  0.33559300  0.31522700  1
  O  O76  1  0.56771900  0.50480300  0.81090600  1
  O  O77  1  0.92271100  0.71028000  0.44919400  1
  O  O78  1  0.05829300  0.33559300  0.81522700  1
  O  O79  1  0.93228100  0.00480300  0.18909400  1
