# generated using pymatgen
data_Ti3AlO6
_symmetry_space_group_name_H-M   'P 1'
_cell_length_a   5.95064994
_cell_length_b   5.95064994
_cell_length_c   14.53785600
_cell_angle_alpha   90.00000000
_cell_angle_beta   90.00000000
_cell_angle_gamma   119.99999934
_symmetry_Int_Tables_number   1
_chemical_formula_structural   Ti3AlO6
_chemical_formula_sum   'Ti12 Al4 O24'
_cell_volume   445.82026204
_cell_formula_units_Z   4
loop_
 _symmetry_equiv_pos_site_id
 _symmetry_equiv_pos_as_xyz
  1  'x, y, z'
loop_
 _atom_site_type_symbol
 _atom_site_label
 _atom_site_symmetry_multiplicity
 _atom_site_fract_x
 _atom_site_fract_y
 _atom_site_fract_z
 _atom_site_occupancy
  Ti  Ti0  1  0.15888600  0.84111400  0.66304500  1
  Ti  Ti1  1  0.84111400  0.15888600  0.33695500  1
  Ti  Ti2  1  0.50000000  0.50000000  0.00000000  1
  Ti  Ti3  1  0.15888600  0.31777100  0.66304500  1
  Ti  Ti4  1  0.84111400  0.68222900  0.33695500  1
  Ti  Ti5  1  0.50000000  0.00000000  0.00000000  1
  Ti  Ti6  1  0.00000000  0.00000000  0.50000000  1
  Ti  Ti7  1  0.66666700  0.33333300  0.17992100  1
  Ti  Ti8  1  0.33333300  0.66666700  0.82007900  1
  Ti  Ti9  1  0.68222900  0.84111400  0.66304500  1
  Ti  Ti10  1  0.31777100  0.15888600  0.33695500  1
  Ti  Ti11  1  0.00000000  0.50000000  0.00000000  1
  Al  Al12  1  0.33333300  0.66666700  0.45933700  1
  Al  Al13  1  0.00000000  0.00000000  0.12462100  1
  Al  Al14  1  0.66666700  0.33333300  0.54066300  1
  Al  Al15  1  0.00000000  0.00000000  0.87537900  1
  O  O16  1  0.33333300  0.66666700  0.58211600  1
  O  O17  1  0.00000000  0.00000000  0.24695100  1
  O  O18  1  0.66666700  0.33333300  0.93515000  1
  O  O19  1  0.34007400  0.17003700  0.58008700  1
  O  O20  1  0.96107500  0.48053800  0.26000700  1
  O  O21  1  0.66607600  0.83303800  0.91527500  1
  O  O22  1  0.82996300  0.17003700  0.58008700  1
  O  O23  1  0.51946200  0.48053800  0.26000700  1
  O  O24  1  0.16696200  0.83303800  0.91527500  1
  O  O25  1  0.82996300  0.65992600  0.58008700  1
  O  O26  1  0.51946200  0.03892500  0.26000700  1
  O  O27  1  0.16696200  0.33392400  0.91527500  1
  O  O28  1  0.65992600  0.82996300  0.41991300  1
  O  O29  1  0.33392400  0.16696200  0.08472500  1
  O  O30  1  0.03892500  0.51946200  0.73999300  1
  O  O31  1  0.66666700  0.33333300  0.41788400  1
  O  O32  1  0.33333300  0.66666700  0.06485000  1
  O  O33  1  0.00000000  0.00000000  0.75304900  1
  O  O34  1  0.17003700  0.82996300  0.41991300  1
  O  O35  1  0.83303800  0.16696200  0.08472500  1
  O  O36  1  0.48053800  0.51946200  0.73999300  1
  O  O37  1  0.17003700  0.34007400  0.41991300  1
  O  O38  1  0.83303800  0.66607600  0.08472500  1
  O  O39  1  0.48053800  0.96107500  0.73999300  1
