# generated using pymatgen
data_MgSeO4
_symmetry_space_group_name_H-M   'P 1'
_cell_length_a   4.99999920
_cell_length_b   4.99999920
_cell_length_c   6.67071300
_cell_angle_alpha   90.00000000
_cell_angle_beta   90.00000000
_cell_angle_gamma   113.21787750
_symmetry_Int_Tables_number   1
_chemical_formula_structural   MgSeO4
_chemical_formula_sum   'Mg2 Se2 O8'
_cell_volume   153.26164597
_cell_formula_units_Z   2
loop_
 _symmetry_equiv_pos_site_id
 _symmetry_equiv_pos_as_xyz
  1  'x, y, z'
loop_
 _atom_site_type_symbol
 _atom_site_label
 _atom_site_symmetry_multiplicity
 _atom_site_fract_x
 _atom_site_fract_y
 _atom_site_fract_z
 _atom_site_occupancy
  Mg  Mg0  1  0.00000000  0.00000000  0.00000000  1
  Mg  Mg1  1  0.00000000  0.00000000  0.50000000  1
  Se  Se2  1  0.34935600  0.65064400  0.75000000  1
  Se  Se3  1  0.65064400  0.34935600  0.25000000  1
  O  O4  1  0.22083600  0.28177100  0.75000000  1
  O  O5  1  0.77916400  0.71822900  0.25000000  1
  O  O6  1  0.28177100  0.22083600  0.25000000  1
  O  O7  1  0.71822900  0.77916400  0.75000000  1
  O  O8  1  0.24248100  0.75751900  0.95786600  1
  O  O9  1  0.75751900  0.24248100  0.45786600  1
  O  O10  1  0.75751900  0.24248100  0.04213400  1
  O  O11  1  0.24248100  0.75751900  0.54213400  1
