# generated using pymatgen
data_CaTi(Si2O5)2
_symmetry_space_group_name_H-M   'P 1'
_cell_length_a   7.48449600
_cell_length_b   7.48449600
_cell_length_c   15.53227900
_cell_angle_alpha   90.00000000
_cell_angle_beta   90.00000000
_cell_angle_gamma   90.00000000
_symmetry_Int_Tables_number   1
_chemical_formula_structural   CaTi(Si2O5)2
_chemical_formula_sum   'Ca4 Ti4 Si16 O40'
_cell_volume   870.08224050
_cell_formula_units_Z   4
loop_
 _symmetry_equiv_pos_site_id
 _symmetry_equiv_pos_as_xyz
  1  'x, y, z'
loop_
 _atom_site_type_symbol
 _atom_site_label
 _atom_site_symmetry_multiplicity
 _atom_site_fract_x
 _atom_site_fract_y
 _atom_site_fract_z
 _atom_site_occupancy
  Ca  Ca0  1  0.50000000  0.50000000  0.50000000  1
  Ca  Ca1  1  0.00000000  0.00000000  0.50000000  1
  Ca  Ca2  1  0.00000000  0.00000000  0.00000000  1
  Ca  Ca3  1  0.50000000  0.50000000  0.00000000  1
  Ti  Ti4  1  0.50000000  0.00000000  0.58047900  1
  Ti  Ti5  1  0.00000000  0.50000000  0.91952100  1
  Ti  Ti6  1  0.00000000  0.50000000  0.41952100  1
  Ti  Ti7  1  0.50000000  0.00000000  0.08047900  1
  Si  Si8  1  0.17019000  0.25289900  0.64954200  1
  Si  Si9  1  0.82981000  0.74710100  0.64954200  1
  Si  Si10  1  0.25289900  0.17019000  0.85045800  1
  Si  Si11  1  0.75289900  0.32981000  0.64954200  1
  Si  Si12  1  0.24710100  0.67019000  0.64954200  1
  Si  Si13  1  0.32981000  0.75289900  0.85045800  1
  Si  Si14  1  0.67019000  0.24710100  0.85045800  1
  Si  Si15  1  0.74710100  0.82981000  0.85045800  1
  Si  Si16  1  0.32981000  0.24710100  0.35045800  1
  Si  Si17  1  0.67019000  0.75289900  0.35045800  1
  Si  Si18  1  0.24710100  0.32981000  0.14954200  1
  Si  Si19  1  0.74710100  0.17019000  0.35045800  1
  Si  Si20  1  0.25289900  0.82981000  0.35045800  1
  Si  Si21  1  0.17019000  0.74710100  0.14954200  1
  Si  Si22  1  0.82981000  0.25289900  0.14954200  1
  Si  Si23  1  0.75289900  0.67019000  0.14954200  1
  O  O24  1  0.24875600  0.10695100  0.58295900  1
  O  O25  1  0.75124400  0.89304900  0.58295900  1
  O  O26  1  0.10695100  0.24875600  0.91704100  1
  O  O27  1  0.60695100  0.25124400  0.58295900  1
  O  O28  1  0.39304900  0.74875600  0.58295900  1
  O  O29  1  0.25124400  0.60695100  0.91704100  1
  O  O30  1  0.74875600  0.39304900  0.91704100  1
  O  O31  1  0.89304900  0.75124400  0.91704100  1
  O  O32  1  0.25124400  0.39304900  0.41704100  1
  O  O33  1  0.74875600  0.60695100  0.41704100  1
  O  O34  1  0.39304900  0.25124400  0.08295900  1
  O  O35  1  0.89304900  0.24875600  0.41704100  1
  O  O36  1  0.10695100  0.75124400  0.41704100  1
  O  O37  1  0.24875600  0.89304900  0.08295900  1
  O  O38  1  0.75124400  0.10695100  0.08295900  1
  O  O39  1  0.25025900  0.04657600  0.37017100  1
  O  O40  1  0.60695100  0.74875600  0.08295900  1
  O  O41  1  0.75025900  0.54657600  0.62982900  1
  O  O42  1  0.45342400  0.24974100  0.87017100  1
  O  O43  1  0.95342400  0.25025900  0.62982900  1
  O  O44  1  0.04657600  0.74974100  0.62982900  1
  O  O45  1  0.25025900  0.95342400  0.87017100  1
  O  O46  1  0.74974100  0.04657600  0.87017100  1
  O  O47  1  0.54657600  0.75025900  0.87017100  1
  O  O48  1  0.70611300  0.70611300  0.25000000  1
  O  O49  1  0.79388700  0.20611300  0.25000000  1
  O  O50  1  0.20611300  0.79388700  0.25000000  1
  O  O51  1  0.29388700  0.29388700  0.25000000  1
  O  O52  1  0.79388700  0.79388700  0.75000000  1
  O  O53  1  0.70611300  0.29388700  0.75000000  1
  O  O54  1  0.29388700  0.70611300  0.75000000  1
  O  O55  1  0.20611300  0.20611300  0.75000000  1
  O  O56  1  0.95342400  0.74974100  0.12982900  1
  O  O57  1  0.75025900  0.45342400  0.12982900  1
  O  O58  1  0.24974100  0.54657600  0.12982900  1
  O  O59  1  0.45342400  0.75025900  0.37017100  1
  O  O60  1  0.54657600  0.24974100  0.37017100  1
  O  O61  1  0.04657600  0.25025900  0.12982900  1
  O  O62  1  0.74974100  0.95342400  0.37017100  1
  O  O63  1  0.24974100  0.45342400  0.62982900  1
