# generated using pymatgen
data_ZnCo(Si2O5)2
_symmetry_space_group_name_H-M   'P 1'
_cell_length_a   7.30577500
_cell_length_b   7.30577500
_cell_length_c   14.94198100
_cell_angle_alpha   90.00000000
_cell_angle_beta   90.00000000
_cell_angle_gamma   90.00000000
_symmetry_Int_Tables_number   1
_chemical_formula_structural   ZnCo(Si2O5)2
_chemical_formula_sum   'Zn4 Co4 Si16 O40'
_cell_volume   797.51849894
_cell_formula_units_Z   4
loop_
 _symmetry_equiv_pos_site_id
 _symmetry_equiv_pos_as_xyz
  1  'x, y, z'
loop_
 _atom_site_type_symbol
 _atom_site_label
 _atom_site_symmetry_multiplicity
 _atom_site_fract_x
 _atom_site_fract_y
 _atom_site_fract_z
 _atom_site_occupancy
  Zn  Zn0  1  0.50000000  0.50000000  0.50000000  1
  Zn  Zn1  1  0.00000000  0.00000000  0.50000000  1
  Zn  Zn2  1  0.00000000  0.00000000  0.00000000  1
  Zn  Zn3  1  0.50000000  0.50000000  0.00000000  1
  Co  Co4  1  0.50000000  0.00000000  0.57052700  1
  Co  Co5  1  0.00000000  0.50000000  0.92947300  1
  Co  Co6  1  0.00000000  0.50000000  0.42947300  1
  Co  Co7  1  0.50000000  0.00000000  0.07052700  1
  Si  Si8  1  0.16085200  0.24018400  0.64500100  1
  Si  Si9  1  0.83914800  0.75981600  0.64500100  1
  Si  Si10  1  0.24018400  0.16085200  0.85499900  1
  Si  Si11  1  0.74018400  0.33914800  0.64500100  1
  Si  Si12  1  0.25981600  0.66085200  0.64500100  1
  Si  Si13  1  0.33914800  0.74018400  0.85499900  1
  Si  Si14  1  0.66085200  0.25981600  0.85499900  1
  Si  Si15  1  0.75981600  0.83914800  0.85499900  1
  Si  Si16  1  0.33914800  0.25981600  0.35499900  1
  Si  Si17  1  0.66085200  0.74018400  0.35499900  1
  Si  Si18  1  0.25981600  0.33914800  0.14500100  1
  Si  Si19  1  0.75981600  0.16085200  0.35499900  1
  Si  Si20  1  0.24018400  0.83914800  0.35499900  1
  Si  Si21  1  0.16085200  0.75981600  0.14500100  1
  Si  Si22  1  0.83914800  0.24018400  0.14500100  1
  Si  Si23  1  0.74018400  0.66085200  0.14500100  1
  O  O24  1  0.23307900  0.08570600  0.57577900  1
  O  O25  1  0.76692100  0.91429400  0.57577900  1
  O  O26  1  0.08570600  0.23307900  0.92422100  1
  O  O27  1  0.58570600  0.26692100  0.57577900  1
  O  O28  1  0.41429400  0.73307900  0.57577900  1
  O  O29  1  0.26692100  0.58570600  0.92422100  1
  O  O30  1  0.73307900  0.41429400  0.92422100  1
  O  O31  1  0.91429400  0.76692100  0.92422100  1
  O  O32  1  0.26692100  0.41429400  0.42422100  1
  O  O33  1  0.73307900  0.58570600  0.42422100  1
  O  O34  1  0.41429400  0.26692100  0.07577900  1
  O  O35  1  0.91429400  0.23307900  0.42422100  1
  O  O36  1  0.08570600  0.76692100  0.42422100  1
  O  O37  1  0.23307900  0.91429400  0.07577900  1
  O  O38  1  0.76692100  0.08570600  0.07577900  1
  O  O39  1  0.25220400  0.05844400  0.37408000  1
  O  O40  1  0.58570600  0.73307900  0.07577900  1
  O  O41  1  0.75220400  0.55844400  0.62592000  1
  O  O42  1  0.44155600  0.24779600  0.87408000  1
  O  O43  1  0.94155600  0.25220400  0.62592000  1
  O  O44  1  0.05844400  0.74779600  0.62592000  1
  O  O45  1  0.25220400  0.94155600  0.87408000  1
  O  O46  1  0.74779600  0.05844400  0.87408000  1
  O  O47  1  0.55844400  0.75220400  0.87408000  1
  O  O48  1  0.69471700  0.69471700  0.25000000  1
  O  O49  1  0.80528300  0.19471700  0.25000000  1
  O  O50  1  0.19471700  0.80528300  0.25000000  1
  O  O51  1  0.30528300  0.30528300  0.25000000  1
  O  O52  1  0.80528300  0.80528300  0.75000000  1
  O  O53  1  0.69471700  0.30528300  0.75000000  1
  O  O54  1  0.30528300  0.69471700  0.75000000  1
  O  O55  1  0.19471700  0.19471700  0.75000000  1
  O  O56  1  0.94155600  0.74779600  0.12592000  1
  O  O57  1  0.75220400  0.44155600  0.12592000  1
  O  O58  1  0.24779600  0.55844400  0.12592000  1
  O  O59  1  0.44155600  0.75220400  0.37408000  1
  O  O60  1  0.55844400  0.24779600  0.37408000  1
  O  O61  1  0.05844400  0.25220400  0.12592000  1
  O  O62  1  0.74779600  0.94155600  0.37408000  1
  O  O63  1  0.24779600  0.44155600  0.62592000  1
