# generated using pymatgen
data_Li10Cr(SiO5)2
_symmetry_space_group_name_H-M   'P 1'
_cell_length_a   6.08658102
_cell_length_b   15.32748894
_cell_length_c   5.15319026
_cell_angle_alpha   80.02342198
_cell_angle_beta   90.15387087
_cell_angle_gamma   78.67674438
_symmetry_Int_Tables_number   1
_chemical_formula_structural   Li10Cr(SiO5)2
_chemical_formula_sum   'Li20 Cr2 Si4 O20'
_cell_volume   463.93013150
_cell_formula_units_Z   2
loop_
 _symmetry_equiv_pos_site_id
 _symmetry_equiv_pos_as_xyz
  1  'x, y, z'
loop_
 _atom_site_type_symbol
 _atom_site_label
 _atom_site_symmetry_multiplicity
 _atom_site_fract_x
 _atom_site_fract_y
 _atom_site_fract_z
 _atom_site_occupancy
  Li  Li0  1  0.51059700  0.98372600  0.75593100  1
  Li  Li1  1  0.35783600  0.86679500  0.23618000  1
  Li  Li2  1  0.77899400  0.86495800  0.23630000  1
  Li  Li3  1  0.12914700  0.73634400  0.48084500  1
  Li  Li4  1  0.34504700  0.73694000  0.02585400  1
  Li  Li5  1  0.91449200  0.73621200  0.02429500  1
  Li  Li6  1  0.67486000  0.64878300  0.41966700  1
  Li  Li7  1  0.43761100  0.61092600  0.78731100  1
  Li  Li8  1  0.95278000  0.61032300  0.78715400  1
  Li  Li9  1  0.73096700  0.53982700  0.13435800  1
  Li  Li10  1  0.26873100  0.46023000  0.86404700  1
  Li  Li11  1  0.56289900  0.38981600  0.20993900  1
  Li  Li12  1  0.04677900  0.38899800  0.21208700  1
  Li  Li13  1  0.33009200  0.35088300  0.57963200  1
  Li  Li14  1  0.08133000  0.26323800  0.97094000  1
  Li  Li15  1  0.64883800  0.26233800  0.97637300  1
  Li  Li16  1  0.86483000  0.26227800  0.52033900  1
  Li  Li17  1  0.64280600  0.13200600  0.76845500  1
  Li  Li18  1  0.22158200  0.12966600  0.77070000  1
  Li  Li19  1  0.49352500  0.01715500  0.24025300  1
  Cr  Cr20  1  0.04091600  0.93009200  0.87959900  1
  Cr  Cr21  1  0.96008500  0.07693900  0.14269400  1
  Si  Si22  1  0.59955700  0.80000000  0.69289100  1
  Si  Si23  1  0.21926900  0.56148900  0.30793800  1
  Si  Si24  1  0.78048500  0.43828000  0.69030500  1
  Si  Si25  1  0.39577000  0.20002500  0.30813200  1
  O  O26  1  0.55258400  0.90005400  0.49818100  1
  O  O27  1  0.08906300  0.81387900  0.13339400  1
  O  O28  1  0.59450700  0.80954600  0.00896800  1
  O  O29  1  0.40748400  0.74312300  0.63497000  1
  O  O30  1  0.84559900  0.74118600  0.63640300  1
  O  O31  1  0.96729800  0.61234800  0.16883100  1
  O  O32  1  0.42041100  0.61244400  0.16941300  1
  O  O33  1  0.21441000  0.57195600  0.61973500  1
  O  O34  1  0.72697400  0.54470400  0.73585500  1
  O  O35  1  0.27239100  0.45501200  0.26321600  1
  O  O36  1  0.78503800  0.42826600  0.37820700  1
  O  O37  1  0.03219800  0.38721700  0.82978600  1
  O  O38  1  0.58031500  0.38675100  0.82893900  1
  O  O39  1  0.14563200  0.25625900  0.36223700  1
  O  O40  1  0.58339000  0.25913800  0.36590200  1
  O  O41  1  0.40137000  0.19095000  0.99174900  1
  O  O42  1  0.90216800  0.18377100  0.86817600  1
  O  O43  1  0.44744100  0.09990800  0.50157700  1
  O  O44  1  0.25238800  0.00154400  0.99455400  1
  O  O45  1  0.76392200  0.00289400  0.99874700  1
