# generated using pymatgen
data_Mg3Fe2(Si2O7)2
_symmetry_space_group_name_H-M   'P 1'
_cell_length_a   9.25565775
_cell_length_b   9.25565775
_cell_length_c   10.00450573
_cell_angle_alpha   59.51371588
_cell_angle_beta   59.51371588
_cell_angle_gamma   48.84422530
_symmetry_Int_Tables_number   1
_chemical_formula_structural   Mg3Fe2(Si2O7)2
_chemical_formula_sum   'Mg6 Fe4 Si8 O28'
_cell_volume   535.84781028
_cell_formula_units_Z   2
loop_
 _symmetry_equiv_pos_site_id
 _symmetry_equiv_pos_as_xyz
  1  'x, y, z'
loop_
 _atom_site_type_symbol
 _atom_site_label
 _atom_site_symmetry_multiplicity
 _atom_site_fract_x
 _atom_site_fract_y
 _atom_site_fract_z
 _atom_site_occupancy
  Mg  Mg0  1  0.06894700  0.26830300  0.11053000  1
  Mg  Mg1  1  0.73169700  0.93105300  0.38947000  1
  Mg  Mg2  1  0.26830300  0.06894700  0.61053000  1
  Mg  Mg3  1  0.39450200  0.60549800  0.75000000  1
  Mg  Mg4  1  0.93105300  0.73169700  0.88947000  1
  Mg  Mg5  1  0.60549800  0.39450200  0.25000000  1
  Fe  Fe6  1  0.79862500  0.20137500  0.75000000  1
  Fe  Fe7  1  0.20137500  0.79862500  0.25000000  1
  Fe  Fe8  1  0.00000000  0.00000000  0.00000000  1
  Fe  Fe9  1  0.00000000  0.00000000  0.50000000  1
  Si  Si10  1  0.54473400  0.08679300  0.70621600  1
  Si  Si11  1  0.08679300  0.54473400  0.20621600  1
  Si  Si12  1  0.51794000  0.24794300  0.10052600  1
  Si  Si13  1  0.24794300  0.51794000  0.60052600  1
  Si  Si14  1  0.91320700  0.45526600  0.79378400  1
  Si  Si15  1  0.48206000  0.75205700  0.89947400  1
  Si  Si16  1  0.75205700  0.48206000  0.39947400  1
  Si  Si17  1  0.45526600  0.91320700  0.29378400  1
  O  O18  1  0.83036200  0.30516300  0.32950900  1
  O  O19  1  0.95670600  0.88858900  0.41939800  1
  O  O20  1  0.45721900  0.63609700  0.08940600  1
  O  O21  1  0.88858900  0.95670600  0.91939800  1
  O  O22  1  0.23938800  0.97323000  0.30375100  1
  O  O23  1  0.06629700  0.50425800  0.62679600  1
  O  O24  1  0.63609700  0.45721900  0.58940600  1
  O  O25  1  0.02677000  0.76061200  0.19624900  1
  O  O26  1  0.93370300  0.49574200  0.37320400  1
  O  O27  1  0.61884600  0.68517100  0.27474200  1
  O  O28  1  0.04329400  0.11141100  0.58060200  1
  O  O29  1  0.76061200  0.02677000  0.69624900  1
  O  O30  1  0.49574200  0.93370300  0.87320400  1
  O  O31  1  0.30516300  0.83036200  0.82950900  1
  O  O32  1  0.68517100  0.61884600  0.77474200  1
  O  O33  1  0.97323000  0.23938800  0.80375100  1
  O  O34  1  0.92049500  0.48207000  0.93849600  1
  O  O35  1  0.38115400  0.31482900  0.72525800  1
  O  O36  1  0.51793000  0.07950500  0.56150400  1
  O  O37  1  0.31482900  0.38115400  0.22525800  1
  O  O38  1  0.50425800  0.06629700  0.12679600  1
  O  O39  1  0.11141100  0.04329400  0.08060200  1
  O  O40  1  0.48207000  0.92049500  0.43849600  1
  O  O41  1  0.54278100  0.36390300  0.91059400  1
  O  O42  1  0.07950500  0.51793000  0.06150400  1
  O  O43  1  0.36390300  0.54278100  0.41059400  1
  O  O44  1  0.69483700  0.16963800  0.17049100  1
  O  O45  1  0.16963800  0.69483700  0.67049100  1
