# generated using pymatgen
data_AlV4(CuO4)3
_symmetry_space_group_name_H-M   'P 1'
_cell_length_a   6.41587692
_cell_length_b   6.34861892
_cell_length_c   6.57354370
_cell_angle_alpha   109.80168339
_cell_angle_beta   109.79368727
_cell_angle_gamma   107.94466064
_symmetry_Int_Tables_number   1
_chemical_formula_structural   AlV4(CuO4)3
_chemical_formula_sum   'Al1 V4 Cu3 O12'
_cell_volume   208.25486148
_cell_formula_units_Z   1
loop_
 _symmetry_equiv_pos_site_id
 _symmetry_equiv_pos_as_xyz
  1  'x, y, z'
loop_
 _atom_site_type_symbol
 _atom_site_label
 _atom_site_symmetry_multiplicity
 _atom_site_fract_x
 _atom_site_fract_y
 _atom_site_fract_z
 _atom_site_occupancy
  Al  Al0  1  0.01409900  0.95259500  0.83821000  1
  V  V1  1  0.51782500  0.01153500  0.01305200  1
  V  V2  1  0.99856800  0.00452600  0.45692600  1
  V  V3  1  0.99545200  0.49998900  0.01168000  1
  V  V4  1  0.49424400  0.48936600  0.49800000  1
  Cu  Cu5  1  0.51387200  0.00055000  0.52197100  1
  Cu  Cu6  1  0.49526400  0.49564500  0.00448800  1
  Cu  Cu7  1  0.99544900  0.50529800  0.50500000  1
  O  O8  1  0.81292900  0.31217900  0.13543500  1
  O  O9  1  0.15164800  0.74422600  0.89697900  1
  O  O10  1  0.81957800  0.70443400  0.51569300  1
  O  O11  1  0.30965800  0.48880000  0.19062500  1
  O  O12  1  0.49920100  0.19054500  0.33255600  1
  O  O13  1  0.13440700  0.83485500  0.32849800  1
  O  O14  1  0.70033500  0.87201500  0.19147400  1
  O  O15  1  0.51910200  0.81070700  0.70398000  1
  O  O16  1  0.16778300  0.30654500  0.49233800  1
  O  O17  1  0.68103700  0.50275500  0.81865000  1
  O  O18  1  0.89128400  0.15279800  0.72603600  1
  O  O19  1  0.28826700  0.12063400  0.81840600  1
