# generated using pymatgen
data_Mg3Si4(BiO7)2
_symmetry_space_group_name_H-M   'P 1'
_cell_length_a   9.67584014
_cell_length_b   9.67584014
_cell_length_c   10.38876300
_cell_angle_alpha   58.23599101
_cell_angle_beta   58.23599101
_cell_angle_gamma   51.42921945
_symmetry_Int_Tables_number   1
_chemical_formula_structural   Mg3Si4(BiO7)2
_chemical_formula_sum   'Mg6 Si8 Bi4 O28'
_cell_volume   617.12409037
_cell_formula_units_Z   2
loop_
 _symmetry_equiv_pos_site_id
 _symmetry_equiv_pos_as_xyz
  1  'x, y, z'
loop_
 _atom_site_type_symbol
 _atom_site_label
 _atom_site_symmetry_multiplicity
 _atom_site_fract_x
 _atom_site_fract_y
 _atom_site_fract_z
 _atom_site_occupancy
  Mg  Mg0  1  0.06773400  0.29880100  0.07535800  1
  Mg  Mg1  1  0.70119900  0.93226600  0.42464200  1
  Mg  Mg2  1  0.29880100  0.06773400  0.57535800  1
  Mg  Mg3  1  0.38820600  0.61179400  0.75000000  1
  Mg  Mg4  1  0.93226600  0.70119900  0.92464200  1
  Mg  Mg5  1  0.61179400  0.38820600  0.25000000  1
  Si  Si6  1  0.51563200  0.08992100  0.71893000  1
  Si  Si7  1  0.08992100  0.51563200  0.21893000  1
  Si  Si8  1  0.49171400  0.26393800  0.11773700  1
  Si  Si9  1  0.26393800  0.49171400  0.61773700  1
  Si  Si10  1  0.91007900  0.48436800  0.78107000  1
  Si  Si11  1  0.50828600  0.73606200  0.88226300  1
  Si  Si12  1  0.73606200  0.50828600  0.38226300  1
  Si  Si13  1  0.48436800  0.91007900  0.28107000  1
  Bi  Bi14  1  0.77535400  0.22464600  0.75000000  1
  Bi  Bi15  1  0.22464600  0.77535400  0.25000000  1
  Bi  Bi16  1  0.00000000  0.00000000  0.00000000  1
  Bi  Bi17  1  0.00000000  0.00000000  0.50000000  1
  O  O18  1  0.81044900  0.34176700  0.31497600  1
  O  O19  1  0.93460500  0.88622100  0.40814800  1
  O  O20  1  0.50792300  0.59807300  0.06303100  1
  O  O21  1  0.88622100  0.93460500  0.90814800  1
  O  O22  1  0.28680200  0.93490600  0.31308800  1
  O  O23  1  0.07938300  0.50938800  0.62290400  1
  O  O24  1  0.59807300  0.50792300  0.56303100  1
  O  O25  1  0.06509400  0.71319800  0.18691200  1
  O  O26  1  0.92061700  0.49061200  0.37709600  1
  O  O27  1  0.64973000  0.70718200  0.24418100  1
  O  O28  1  0.06539500  0.11377900  0.59185200  1
  O  O29  1  0.71319800  0.06509400  0.68691200  1
  O  O30  1  0.49061200  0.92061700  0.87709600  1
  O  O31  1  0.34176700  0.81044900  0.81497600  1
  O  O32  1  0.70718200  0.64973000  0.74418100  1
  O  O33  1  0.93490600  0.28680200  0.81308800  1
  O  O34  1  0.91548400  0.50297400  0.92579000  1
  O  O35  1  0.35027000  0.29281800  0.75581900  1
  O  O36  1  0.49702600  0.08451600  0.57421000  1
  O  O37  1  0.29281800  0.35027000  0.25581900  1
  O  O38  1  0.50938800  0.07938300  0.12290400  1
  O  O39  1  0.11377900  0.06539500  0.09185200  1
  O  O40  1  0.50297400  0.91548400  0.42579000  1
  O  O41  1  0.49207700  0.40192700  0.93696900  1
  O  O42  1  0.08451600  0.49702600  0.07421000  1
  O  O43  1  0.40192700  0.49207700  0.43696900  1
  O  O44  1  0.65823300  0.18955100  0.18502400  1
  O  O45  1  0.18955100  0.65823300  0.68502400  1
