# generated using pymatgen
data_MgSi4NiO10
_symmetry_space_group_name_H-M   'P 1'
_cell_length_a   7.26758100
_cell_length_b   7.26758100
_cell_length_c   14.83604300
_cell_angle_alpha   90.00000000
_cell_angle_beta   90.00000000
_cell_angle_gamma   90.00000000
_symmetry_Int_Tables_number   1
_chemical_formula_structural   MgSi4NiO10
_chemical_formula_sum   'Mg4 Si16 Ni4 O40'
_cell_volume   783.60616673
_cell_formula_units_Z   4
loop_
 _symmetry_equiv_pos_site_id
 _symmetry_equiv_pos_as_xyz
  1  'x, y, z'
loop_
 _atom_site_type_symbol
 _atom_site_label
 _atom_site_symmetry_multiplicity
 _atom_site_fract_x
 _atom_site_fract_y
 _atom_site_fract_z
 _atom_site_occupancy
  Mg  Mg0  1  0.50000000  0.50000000  0.50000000  1
  Mg  Mg1  1  0.00000000  0.00000000  0.50000000  1
  Mg  Mg2  1  0.00000000  0.00000000  0.00000000  1
  Mg  Mg3  1  0.50000000  0.50000000  0.00000000  1
  Si  Si4  1  0.16790300  0.24298000  0.64401800  1
  Si  Si5  1  0.83209700  0.75702000  0.64401800  1
  Si  Si6  1  0.24298000  0.16790300  0.85598200  1
  Si  Si7  1  0.74298000  0.33209700  0.64401800  1
  Si  Si8  1  0.25702000  0.66790300  0.64401800  1
  Si  Si9  1  0.33209700  0.74298000  0.85598200  1
  Si  Si10  1  0.66790300  0.25702000  0.85598200  1
  Si  Si11  1  0.75702000  0.83209700  0.85598200  1
  Si  Si12  1  0.33209700  0.25702000  0.35598200  1
  Si  Si13  1  0.66790300  0.74298000  0.35598200  1
  Si  Si14  1  0.25702000  0.33209700  0.14401800  1
  Si  Si15  1  0.75702000  0.16790300  0.35598200  1
  Si  Si16  1  0.24298000  0.83209700  0.35598200  1
  Si  Si17  1  0.16790300  0.75702000  0.14401800  1
  Si  Si18  1  0.83209700  0.24298000  0.14401800  1
  Si  Si19  1  0.74298000  0.66790300  0.14401800  1
  Ni  Ni20  1  0.50000000  0.00000000  0.57187500  1
  Ni  Ni21  1  0.00000000  0.50000000  0.92812500  1
  Ni  Ni22  1  0.00000000  0.50000000  0.42812500  1
  Ni  Ni23  1  0.50000000  0.00000000  0.07187500  1
  O  O24  1  0.24008000  0.08638800  0.57512000  1
  O  O25  1  0.75992000  0.91361200  0.57512000  1
  O  O26  1  0.08638800  0.24008000  0.92488000  1
  O  O27  1  0.58638800  0.25992000  0.57512000  1
  O  O28  1  0.41361200  0.74008000  0.57512000  1
  O  O29  1  0.25992000  0.58638800  0.92488000  1
  O  O30  1  0.74008000  0.41361200  0.92488000  1
  O  O31  1  0.91361200  0.75992000  0.92488000  1
  O  O32  1  0.25992000  0.41361200  0.42488000  1
  O  O33  1  0.74008000  0.58638800  0.42488000  1
  O  O34  1  0.41361200  0.25992000  0.07512000  1
  O  O35  1  0.91361200  0.24008000  0.42488000  1
  O  O36  1  0.08638800  0.75992000  0.42488000  1
  O  O37  1  0.24008000  0.91361200  0.07512000  1
  O  O38  1  0.75992000  0.08638800  0.07512000  1
  O  O39  1  0.24788400  0.05344100  0.37734500  1
  O  O40  1  0.58638800  0.74008000  0.07512000  1
  O  O41  1  0.74788400  0.55344100  0.62265500  1
  O  O42  1  0.44655900  0.25211600  0.87734500  1
  O  O43  1  0.94655900  0.24788400  0.62265500  1
  O  O44  1  0.05344100  0.75211600  0.62265500  1
  O  O45  1  0.24788400  0.94655900  0.87734500  1
  O  O46  1  0.75211600  0.05344100  0.87734500  1
  O  O47  1  0.55344100  0.74788400  0.87734500  1
  O  O48  1  0.70294700  0.70294700  0.25000000  1
  O  O49  1  0.79705300  0.20294700  0.25000000  1
  O  O50  1  0.20294700  0.79705300  0.25000000  1
  O  O51  1  0.29705300  0.29705300  0.25000000  1
  O  O52  1  0.79705300  0.79705300  0.75000000  1
  O  O53  1  0.70294700  0.29705300  0.75000000  1
  O  O54  1  0.29705300  0.70294700  0.75000000  1
  O  O55  1  0.20294700  0.20294700  0.75000000  1
  O  O56  1  0.94655900  0.75211600  0.12265500  1
  O  O57  1  0.74788400  0.44655900  0.12265500  1
  O  O58  1  0.25211600  0.55344100  0.12265500  1
  O  O59  1  0.44655900  0.74788400  0.37734500  1
  O  O60  1  0.55344100  0.25211600  0.37734500  1
  O  O61  1  0.05344100  0.24788400  0.12265500  1
  O  O62  1  0.75211600  0.94655900  0.37734500  1
  O  O63  1  0.25211600  0.44655900  0.62265500  1
