# generated using pymatgen
data_Y4Be6Fe3(SiO5)6
_symmetry_space_group_name_H-M   'P 1'
_cell_length_a   7.74987400
_cell_length_b   10.14519864
_cell_length_c   14.06178330
_cell_angle_alpha   90.59428100
_cell_angle_beta   90.04651942
_cell_angle_gamma   90.13130061
_symmetry_Int_Tables_number   1
_chemical_formula_structural   Y4Be6Fe3(SiO5)6
_chemical_formula_sum   'Y8 Be12 Fe6 Si12 O60'
_cell_volume   1105.53104773
_cell_formula_units_Z   2
loop_
 _symmetry_equiv_pos_site_id
 _symmetry_equiv_pos_as_xyz
  1  'x, y, z'
loop_
 _atom_site_type_symbol
 _atom_site_label
 _atom_site_symmetry_multiplicity
 _atom_site_fract_x
 _atom_site_fract_y
 _atom_site_fract_z
 _atom_site_occupancy
  Y  Y0  1  0.39582300  0.16894200  0.66227400  1
  Y  Y1  1  0.39664400  0.16817200  0.00209700  1
  Y  Y2  1  0.89306900  0.33394800  0.67040500  1
  Y  Y3  1  0.89263700  0.33089400  0.33367800  1
  Y  Y4  1  0.60151800  0.83314800  0.67055700  1
  Y  Y5  1  0.60002400  0.82910900  0.33740300  1
  Y  Y6  1  0.10456000  0.66623400  0.33449600  1
  Y  Y7  1  0.10493800  0.67078800  0.99364700  1
  Be  Be8  1  0.09460300  0.15420900  0.85260100  1
  Be  Be9  1  0.09478500  0.15774400  0.51360400  1
  Be  Be10  1  0.08265900  0.15654200  0.18252900  1
  Be  Be11  1  0.59183100  0.34970200  0.81783200  1
  Be  Be12  1  0.58564600  0.33917400  0.48109600  1
  Be  Be13  1  0.59200600  0.34252300  0.15155300  1
  Be  Be14  1  0.90123000  0.84887000  0.81523600  1
  Be  Be15  1  0.91395700  0.84239100  0.48816500  1
  Be  Be16  1  0.91447700  0.84044700  0.14899900  1
  Be  Be17  1  0.40854900  0.65401900  0.84940600  1
  Be  Be18  1  0.41024400  0.65795700  0.51782600  1
  Be  Be19  1  0.41165500  0.65560700  0.18308000  1
  Fe  Fe20  1  0.00050800  0.00093600  0.99801400  1
  Fe  Fe21  1  0.99635600  0.99794700  0.66745200  1
  Fe  Fe22  1  0.00312100  0.00257900  0.33416600  1
  Fe  Fe23  1  0.50554500  0.50022900  0.00235700  1
  Fe  Fe24  1  0.49227600  0.50216400  0.66382800  1
  Fe  Fe25  1  0.49930700  0.49310700  0.33351800  1
  Si  Si26  1  0.23059300  0.40513700  0.83163300  1
  Si  Si27  1  0.23382100  0.41626800  0.49216700  1
  Si  Si28  1  0.21859000  0.42125100  0.16066000  1
  Si  Si29  1  0.72856900  0.09503800  0.84190500  1
  Si  Si30  1  0.73342300  0.08540300  0.50609100  1
  Si  Si31  1  0.72334000  0.07727800  0.16631100  1
  Si  Si32  1  0.76286700  0.59488300  0.83746900  1
  Si  Si33  1  0.77826700  0.57726900  0.50786600  1
  Si  Si34  1  0.77658500  0.58362700  0.17191600  1
  Si  Si35  1  0.26423600  0.91235700  0.82279700  1
  Si  Si36  1  0.28677400  0.91392700  0.49383200  1
  Si  Si37  1  0.26800400  0.91857800  0.16758900  1
  O  O38  1  0.39943500  0.36645300  0.75992400  1
  O  O39  1  0.40205600  0.36637200  0.42818500  1
  O  O40  1  0.39016200  0.36493300  0.10043300  1
  O  O41  1  0.90721000  0.13008600  0.90126100  1
  O  O42  1  0.90469000  0.13172100  0.57503200  1
  O  O43  1  0.88174800  0.13603400  0.23639200  1
  O  O44  1  0.59258000  0.62202500  0.90716100  1
  O  O45  1  0.61009100  0.63518400  0.56982000  1
  O  O46  1  0.60359400  0.64102900  0.23496300  1
  O  O47  1  0.08786500  0.87572900  0.75868300  1
  O  O48  1  0.10699400  0.86049900  0.43704600  1
  O  O49  1  0.11498700  0.86150000  0.09398200  1
  O  O50  1  0.55962400  0.35166600  0.93021300  1
  O  O51  1  0.57279300  0.34186100  0.59635500  1
  O  O52  1  0.61448300  0.36072100  0.26305600  1
  O  O53  1  0.09287600  0.14937000  0.73466300  1
  O  O54  1  0.05080700  0.15803500  0.40545800  1
  O  O55  1  0.10501500  0.13379300  0.06971200  1
  O  O56  1  0.44475700  0.65397900  0.73783500  1
  O  O57  1  0.41199800  0.65451900  0.40232700  1
  O  O58  1  0.39637200  0.63561600  0.07100100  1
  O  O59  1  0.78724500  0.97421900  0.76715100  1
  O  O60  1  0.79655800  0.96258300  0.43305000  1
  O  O61  1  0.82199000  0.96945400  0.09660000  1
  O  O62  1  0.40417600  0.96860400  0.74651600  1
  O  O63  1  0.42210000  0.95386700  0.41342300  1
  O  O64  1  0.41516100  0.98196200  0.09873600  1
  O  O65  1  0.92462600  0.56008500  0.90402400  1
  O  O66  1  0.90245200  0.50053400  0.57829100  1
  O  O67  1  0.90978900  0.53517600  0.25550400  1
  O  O68  1  0.20273200  0.27471600  0.89526000  1
  O  O69  1  0.17526400  0.29117100  0.55992200  1
  O  O70  1  0.12586000  0.30294500  0.21768100  1
  O  O71  1  0.07568300  0.43628800  0.75927400  1
  O  O72  1  0.09234500  0.46846100  0.41484000  1
  O  O73  1  0.09680800  0.49932300  0.08740300  1
  O  O74  1  0.29238400  0.53107900  0.89819300  1
  O  O75  1  0.30652600  0.53386600  0.56439200  1
  O  O76  1  0.30010800  0.53165800  0.23919900  1
  O  O77  1  0.57399800  0.06176700  0.91253900  1
  O  O78  1  0.58761300  0.04234100  0.58305600  1
  O  O79  1  0.59522000  0.99315400  0.23529600  1
  O  O80  1  0.70443100  0.46862200  0.76618000  1
  O  O81  1  0.69863200  0.46865600  0.42992600  1
  O  O82  1  0.69198400  0.46890600  0.10129400  1
  O  O83  1  0.20525300  0.02799000  0.90143300  1
  O  O84  1  0.21038000  0.03625300  0.56268700  1
  O  O85  1  0.18314000  0.03269900  0.23684300  1
  O  O86  1  0.30863500  0.78165400  0.88357900  1
  O  O87  1  0.36506000  0.79987200  0.56228000  1
  O  O88  1  0.32819700  0.78966700  0.23005000  1
  O  O89  1  0.79106600  0.72724700  0.77538600  1
  O  O90  1  0.84780100  0.70253300  0.44412600  1
  O  O91  1  0.85640600  0.70183600  0.10897200  1
  O  O92  1  0.67673100  0.21783800  0.77036000  1
  O  O93  1  0.69637400  0.21667600  0.44409500  1
  O  O94  1  0.63252600  0.19799900  0.11170100  1
  O  O95  1  0.94020400  0.85210800  0.92742800  1
  O  O96  1  0.88376600  0.86557900  0.59804000  1
  O  O97  1  0.92759900  0.84109100  0.26571400  1
