# generated using pymatgen
data_Mg3Cu2(SiO4)3
_symmetry_space_group_name_H-M   'P 1'
_cell_length_a   10.14689230
_cell_length_b   10.14689230
_cell_length_c   10.14689230
_cell_angle_alpha   109.47122063
_cell_angle_beta   109.47122063
_cell_angle_gamma   109.47122063
_symmetry_Int_Tables_number   1
_chemical_formula_structural   Mg3Cu2(SiO4)3
_chemical_formula_sum   'Mg12 Cu8 Si12 O48'
_cell_volume   804.22442957
_cell_formula_units_Z   4
loop_
 _symmetry_equiv_pos_site_id
 _symmetry_equiv_pos_as_xyz
  1  'x, y, z'
loop_
 _atom_site_type_symbol
 _atom_site_label
 _atom_site_symmetry_multiplicity
 _atom_site_fract_x
 _atom_site_fract_y
 _atom_site_fract_z
 _atom_site_occupancy
  Mg  Mg0  1  0.25000000  0.37500000  0.12500000  1
  Mg  Mg1  1  0.75000000  0.12500000  0.37500000  1
  Mg  Mg2  1  0.37500000  0.12500000  0.25000000  1
  Mg  Mg3  1  0.12500000  0.37500000  0.75000000  1
  Mg  Mg4  1  0.25000000  0.87500000  0.62500000  1
  Mg  Mg5  1  0.12500000  0.25000000  0.37500000  1
  Mg  Mg6  1  0.62500000  0.25000000  0.87500000  1
  Mg  Mg7  1  0.75000000  0.62500000  0.87500000  1
  Mg  Mg8  1  0.87500000  0.75000000  0.62500000  1
  Mg  Mg9  1  0.87500000  0.62500000  0.25000000  1
  Mg  Mg10  1  0.62500000  0.87500000  0.75000000  1
  Mg  Mg11  1  0.37500000  0.75000000  0.12500000  1
  Cu  Cu12  1  0.50000000  0.00000000  0.00000000  1
  Cu  Cu13  1  0.50000000  0.50000000  0.00000000  1
  Cu  Cu14  1  0.00000000  0.50000000  0.50000000  1
  Cu  Cu15  1  0.00000000  0.00000000  0.50000000  1
  Cu  Cu16  1  0.50000000  0.50000000  0.50000000  1
  Cu  Cu17  1  0.00000000  0.50000000  0.00000000  1
  Cu  Cu18  1  0.50000000  0.00000000  0.50000000  1
  Cu  Cu19  1  0.00000000  0.00000000  0.00000000  1
  Si  Si20  1  0.12500000  0.75000000  0.87500000  1
  Si  Si21  1  0.87500000  0.25000000  0.12500000  1
  Si  Si22  1  0.75000000  0.37500000  0.62500000  1
  Si  Si23  1  0.12500000  0.87500000  0.25000000  1
  Si  Si24  1  0.25000000  0.12500000  0.87500000  1
  Si  Si25  1  0.37500000  0.62500000  0.75000000  1
  Si  Si26  1  0.37500000  0.25000000  0.62500000  1
  Si  Si27  1  0.87500000  0.12500000  0.75000000  1
  Si  Si28  1  0.62500000  0.37500000  0.25000000  1
  Si  Si29  1  0.75000000  0.87500000  0.12500000  1
  Si  Si30  1  0.25000000  0.62500000  0.37500000  1
  Si  Si31  1  0.62500000  0.75000000  0.37500000  1
  O  O32  1  0.58653100  0.89603400  0.37477800  1
  O  O33  1  0.37477800  0.58653100  0.89603400  1
  O  O34  1  0.28824800  0.30950400  0.91346900  1
  O  O35  1  0.47874400  0.60396600  0.19049600  1
  O  O36  1  0.30950400  0.89603400  0.02125600  1
  O  O37  1  0.12522200  0.02125600  0.21175200  1
  O  O38  1  0.37477800  0.28824800  0.47874400  1
  O  O39  1  0.89603400  0.37477800  0.58653100  1
  O  O40  1  0.19049600  0.21175200  0.58653100  1
  O  O41  1  0.47874400  0.37477800  0.28824800  1
  O  O42  1  0.89603400  0.02125600  0.30950400  1
  O  O43  1  0.60396600  0.91346900  0.12522200  1
  O  O44  1  0.91346900  0.12522200  0.60396600  1
  O  O45  1  0.28824800  0.47874400  0.37477800  1
  O  O46  1  0.58653100  0.19049600  0.21175200  1
  O  O47  1  0.21175200  0.58653100  0.19049600  1
  O  O48  1  0.02125600  0.30950400  0.89603400  1
  O  O49  1  0.91346900  0.28824800  0.30950400  1
  O  O50  1  0.02125600  0.21175200  0.12522200  1
  O  O51  1  0.80950400  0.78824800  0.41346900  1
  O  O52  1  0.19049600  0.47874400  0.60396600  1
  O  O53  1  0.60396600  0.19049600  0.47874400  1
  O  O54  1  0.21175200  0.12522200  0.02125600  1
  O  O55  1  0.12522200  0.60396600  0.91346900  1
  O  O56  1  0.41346900  0.10396600  0.62522200  1
  O  O57  1  0.62522200  0.41346900  0.10396600  1
  O  O58  1  0.71175200  0.69049600  0.08653100  1
  O  O59  1  0.52125600  0.39603400  0.80950400  1
  O  O60  1  0.69049600  0.10396600  0.97874400  1
  O  O61  1  0.87477800  0.97874400  0.78824800  1
  O  O62  1  0.62522200  0.71175200  0.52125600  1
  O  O63  1  0.10396600  0.62522200  0.41346900  1
  O  O64  1  0.87477800  0.39603400  0.08653100  1
  O  O65  1  0.78824800  0.87477800  0.97874400  1
  O  O66  1  0.39603400  0.80950400  0.52125600  1
  O  O67  1  0.69049600  0.08653100  0.71175200  1
  O  O68  1  0.80950400  0.52125600  0.39603400  1
  O  O69  1  0.97874400  0.78824800  0.87477800  1
  O  O70  1  0.08653100  0.71175200  0.69049600  1
  O  O71  1  0.97874400  0.69049600  0.10396600  1
  O  O72  1  0.78824800  0.41346900  0.80950400  1
  O  O73  1  0.41346900  0.80950400  0.78824800  1
  O  O74  1  0.71175200  0.52125600  0.62522200  1
  O  O75  1  0.08653100  0.87477800  0.39603400  1
  O  O76  1  0.39603400  0.08653100  0.87477800  1
  O  O77  1  0.10396600  0.97874400  0.69049600  1
  O  O78  1  0.52125600  0.62522200  0.71175200  1
  O  O79  1  0.30950400  0.91346900  0.28824800  1
