# generated using pymatgen
data_Y4Si2Sn13(SbO14)2
_symmetry_space_group_name_H-M   'P 1'
_cell_length_a   14.14000392
_cell_length_b   14.14000392
_cell_length_c   9.80585950
_cell_angle_alpha   86.84280430
_cell_angle_beta   86.84280430
_cell_angle_gamma   154.29494835
_symmetry_Int_Tables_number   1
_chemical_formula_structural   Y4Si2Sn13(SbO14)2
_chemical_formula_sum   'Y4 Si2 Sn13 Sb2 O28'
_cell_volume   823.90169870
_cell_formula_units_Z   1
loop_
 _symmetry_equiv_pos_site_id
 _symmetry_equiv_pos_as_xyz
  1  'x, y, z'
loop_
 _atom_site_type_symbol
 _atom_site_label
 _atom_site_symmetry_multiplicity
 _atom_site_fract_x
 _atom_site_fract_y
 _atom_site_fract_z
 _atom_site_occupancy
  Y  Y0  1  0.05738700  0.47649700  0.64344000  1
  Y  Y1  1  0.52350300  0.94261300  0.35656000  1
  Y  Y2  1  0.94261300  0.52350300  0.35656000  1
  Y  Y3  1  0.47649700  0.05738700  0.64344000  1
  Si  Si4  1  0.16932600  0.16932600  0.28594000  1
  Si  Si5  1  0.83067400  0.83067400  0.71406000  1
  Sn  Sn6  1  0.88314800  0.62563200  0.65920100  1
  Sn  Sn7  1  0.65757600  0.80209900  0.33546700  1
  Sn  Sn8  1  0.37436800  0.11685200  0.34079900  1
  Sn  Sn9  1  0.11685200  0.37436800  0.34079900  1
  Sn  Sn10  1  0.34242400  0.19790100  0.66453300  1
  Sn  Sn11  1  0.29957400  0.70042600  0.00000000  1
  Sn  Sn12  1  0.19790100  0.34242400  0.66453300  1
  Sn  Sn13  1  0.00000000  0.00000000  0.00000000  1
  Sn  Sn14  1  0.43031200  0.56968800  0.00000000  1
  Sn  Sn15  1  0.80209900  0.65757600  0.33546700  1
  Sn  Sn16  1  0.62563200  0.88314800  0.65920100  1
  Sn  Sn17  1  0.56968800  0.43031200  0.00000000  1
  Sn  Sn18  1  0.70042600  0.29957400  0.00000000  1
  Sb  Sb19  1  0.85671800  0.14328200  0.00000000  1
  Sb  Sb20  1  0.14328200  0.85671800  0.00000000  1
  O  O21  1  0.76160000  0.03769300  0.38571400  1
  O  O22  1  0.16153000  0.60691300  0.38875100  1
  O  O23  1  0.91319600  0.91319600  0.26455700  1
  O  O24  1  0.33263400  0.33263400  0.12293600  1
  O  O25  1  0.83847000  0.39308700  0.61124900  1
  O  O26  1  0.23840000  0.96230700  0.61428600  1
  O  O27  1  0.99573400  0.61293200  0.12482300  1
  O  O28  1  0.00426600  0.38706800  0.87517700  1
  O  O29  1  0.66736600  0.66736600  0.87706400  1
  O  O30  1  0.08454900  0.25624700  0.88705200  1
  O  O31  1  0.14645100  0.24817200  0.36330100  1
  O  O32  1  0.96230700  0.23840000  0.61428600  1
  O  O33  1  0.38706800  0.00426600  0.87517700  1
  O  O34  1  0.74375300  0.91545100  0.11294800  1
  O  O35  1  0.75182800  0.85354900  0.63669900  1
  O  O36  1  0.08680400  0.08680400  0.73544300  1
  O  O37  1  0.25624700  0.08454900  0.88705200  1
  O  O38  1  0.91545100  0.74375300  0.11294800  1
  O  O39  1  0.61293200  0.99573400  0.12482300  1
  O  O40  1  0.09769500  0.38663500  0.11088900  1
  O  O41  1  0.90230500  0.61336500  0.88911100  1
  O  O42  1  0.24817200  0.14645100  0.36330100  1
  O  O43  1  0.38663500  0.09769500  0.11088900  1
  O  O44  1  0.60691300  0.16153000  0.38875100  1
  O  O45  1  0.85354900  0.75182800  0.63669900  1
  O  O46  1  0.61336500  0.90230500  0.88911100  1
  O  O47  1  0.03769300  0.76160000  0.38571400  1
  O  O48  1  0.39308700  0.83847000  0.61124900  1
