# generated using pymatgen
data_ZnSi2WO6
_symmetry_space_group_name_H-M   'P 1'
_cell_length_a   5.39087900
_cell_length_b   9.48299700
_cell_length_c   19.09117900
_cell_angle_alpha   90.00000000
_cell_angle_beta   90.00000000
_cell_angle_gamma   90.00000000
_symmetry_Int_Tables_number   1
_chemical_formula_structural   ZnSi2WO6
_chemical_formula_sum   'Zn8 Si16 W8 O48'
_cell_volume   975.97332282
_cell_formula_units_Z   8
loop_
 _symmetry_equiv_pos_site_id
 _symmetry_equiv_pos_as_xyz
  1  'x, y, z'
loop_
 _atom_site_type_symbol
 _atom_site_label
 _atom_site_symmetry_multiplicity
 _atom_site_fract_x
 _atom_site_fract_y
 _atom_site_fract_z
 _atom_site_occupancy
  Zn  Zn0  1  0.61502800  0.14460300  0.37263100  1
  Zn  Zn1  1  0.38497200  0.85539700  0.62736900  1
  Zn  Zn2  1  0.61502800  0.64460300  0.12736900  1
  Zn  Zn3  1  0.11502800  0.85539700  0.12736900  1
  Zn  Zn4  1  0.88497200  0.14460300  0.87263100  1
  Zn  Zn5  1  0.38497200  0.35539700  0.87263100  1
  Zn  Zn6  1  0.11502800  0.35539700  0.37263100  1
  Zn  Zn7  1  0.88497200  0.64460300  0.62736900  1
  Si  Si8  1  0.56791300  0.67120400  0.77000700  1
  Si  Si9  1  0.73385400  0.83740000  0.48150400  1
  Si  Si10  1  0.76614600  0.83740000  0.98150400  1
  Si  Si11  1  0.93208700  0.17120400  0.22999300  1
  Si  Si12  1  0.06791300  0.32879600  0.72999300  1
  Si  Si13  1  0.43208700  0.82879600  0.27000700  1
  Si  Si14  1  0.23385400  0.66260000  0.48150400  1
  Si  Si15  1  0.73385400  0.33740000  0.01849600  1
  Si  Si16  1  0.76614600  0.33740000  0.51849600  1
  Si  Si17  1  0.93208700  0.67120400  0.27000700  1
  Si  Si18  1  0.43208700  0.32879600  0.22999300  1
  Si  Si19  1  0.56791300  0.17120400  0.72999300  1
  Si  Si20  1  0.26614600  0.16260000  0.51849600  1
  Si  Si21  1  0.06791300  0.82879600  0.77000700  1
  Si  Si22  1  0.26614600  0.66260000  0.98150400  1
  Si  Si23  1  0.23385400  0.16260000  0.01849600  1
  W  W24  1  0.36914400  0.97084500  0.87546600  1
  W  W25  1  0.63085600  0.02915500  0.12453400  1
  W  W26  1  0.86914400  0.02915500  0.62453400  1
  W  W27  1  0.13085600  0.97084500  0.37546600  1
  W  W28  1  0.36914400  0.47084500  0.62453400  1
  W  W29  1  0.63085600  0.52915500  0.37546600  1
  W  W30  1  0.86914400  0.52915500  0.87546600  1
  W  W31  1  0.13085600  0.47084500  0.12453400  1
  O  O32  1  0.95427800  0.51675400  0.30594900  1
  O  O33  1  0.28528300  0.01820400  0.06269300  1
  O  O34  1  0.04572200  0.48324600  0.69405100  1
  O  O35  1  0.72935900  0.34475700  0.93205800  1
  O  O36  1  0.22935900  0.15524300  0.93205800  1
  O  O37  1  0.96155400  0.22834100  0.04112100  1
  O  O38  1  0.92231600  0.69191100  0.18628000  1
  O  O39  1  0.07768400  0.80808900  0.68628000  1
  O  O40  1  0.72935900  0.84475700  0.56794200  1
  O  O41  1  0.92231600  0.19191100  0.31372000  1
  O  O42  1  0.45427800  0.48324600  0.19405100  1
  O  O43  1  0.77064100  0.34475700  0.43205800  1
  O  O44  1  0.71471700  0.98179600  0.93730700  1
  O  O45  1  0.42231600  0.80808900  0.18628000  1
  O  O46  1  0.54572200  0.01675400  0.69405100  1
  O  O47  1  0.28528300  0.51820400  0.43730700  1
  O  O48  1  0.45427800  0.98324600  0.30594900  1
  O  O49  1  0.15335800  0.77637800  0.30372400  1
  O  O50  1  0.34664200  0.77637800  0.80372400  1
  O  O51  1  0.53844600  0.72834100  0.95887900  1
  O  O52  1  0.77064100  0.84475700  0.06794200  1
  O  O53  1  0.57768400  0.69191100  0.68628000  1
  O  O54  1  0.78528300  0.48179600  0.06269300  1
  O  O55  1  0.15335800  0.27637800  0.19627600  1
  O  O56  1  0.27064100  0.15524300  0.43205800  1
  O  O57  1  0.57768400  0.19191100  0.81372000  1
  O  O58  1  0.71471700  0.48179600  0.56269300  1
  O  O59  1  0.22935900  0.65524300  0.56794200  1
  O  O60  1  0.21471700  0.51820400  0.93730700  1
  O  O61  1  0.65335800  0.72362200  0.30372400  1
  O  O62  1  0.04572200  0.98324600  0.80594900  1
  O  O63  1  0.84664200  0.72362200  0.80372400  1
  O  O64  1  0.84664200  0.22362200  0.69627600  1
  O  O65  1  0.78528300  0.98179600  0.43730700  1
  O  O66  1  0.27064100  0.65524300  0.06794200  1
  O  O67  1  0.21471700  0.01820400  0.56269300  1
  O  O68  1  0.34664200  0.27637800  0.69627600  1
  O  O69  1  0.03844600  0.77165900  0.95887900  1
  O  O70  1  0.46155400  0.77165900  0.45887900  1
  O  O71  1  0.65335800  0.22362200  0.19627600  1
  O  O72  1  0.46155400  0.27165900  0.04112100  1
  O  O73  1  0.53844600  0.22834100  0.54112100  1
  O  O74  1  0.03844600  0.27165900  0.54112100  1
  O  O75  1  0.42231600  0.30808900  0.31372000  1
  O  O76  1  0.54572200  0.51675400  0.80594900  1
  O  O77  1  0.96155400  0.72834100  0.45887900  1
  O  O78  1  0.07768400  0.30808900  0.81372000  1
  O  O79  1  0.95427800  0.01675400  0.19405100  1
