# generated using pymatgen
data_Na10Zr6Si7(PO18)2
_symmetry_space_group_name_H-M   'P 1'
_cell_length_a   9.31990608
_cell_length_b   9.34011219
_cell_length_c   28.23013081
_cell_angle_alpha   59.00585781
_cell_angle_beta   59.04166770
_cell_angle_gamma   59.19711003
_symmetry_Int_Tables_number   1
_chemical_formula_structural   Na10Zr6Si7(PO18)2
_chemical_formula_sum   'Na20 Zr12 Si14 P4 O72'
_cell_volume   1701.24884683
_cell_formula_units_Z   2
loop_
 _symmetry_equiv_pos_site_id
 _symmetry_equiv_pos_as_xyz
  1  'x, y, z'
loop_
 _atom_site_type_symbol
 _atom_site_label
 _atom_site_symmetry_multiplicity
 _atom_site_fract_x
 _atom_site_fract_y
 _atom_site_fract_z
 _atom_site_occupancy
  Na  Na0  1  0.38986179  0.74816866  0.05077834  1
  Na  Na1  1  0.27864802  0.45292619  0.23185327  1
  Na  Na2  1  0.75200620  0.12158209  0.13541676  1
  Na  Na3  1  0.24841185  0.88822206  0.21305518  1
  Na  Na4  1  0.66684679  0.24274387  0.30218329  1
  Na  Na5  1  0.76860635  0.56061429  0.09431014  1
  Na  Na6  1  0.35838667  0.74790079  0.36496616  1
  Na  Na7  1  0.99568730  0.95457770  0.01824312  1
  Na  Na8  1  0.75211629  0.09701932  0.45050231  1
  Na  Na9  1  0.52122365  0.48867904  0.49269862  1
  Na  Na10  1  0.24953653  0.86116892  0.52670526  1
  Na  Na11  1  0.60509363  0.25279909  0.62728279  1
  Na  Na12  1  0.92281061  0.70836144  0.40933123  1
  Na  Na13  1  0.38717834  0.74201106  0.70596225  1
  Na  Na14  1  0.75019332  0.12623455  0.80240889  1
  Na  Na15  1  0.30827358  0.46246001  0.89062340  1
  Na  Na16  1  0.25199866  0.89196038  0.87355689  1
  Na  Na17  1  0.62762482  0.25300945  0.97322431  1
  Na  Na18  1  0.84123358  0.58691300  0.74715974  1
  Na  Na19  1  0.00959593  0.01151369  0.66045789  1
  Zr  Zr20  1  0.15032692  0.15006209  0.04571112  1
  Zr  Zr21  1  0.36058318  0.35409308  0.11615207  1
  Zr  Zr22  1  0.14532341  0.14112570  0.38203749  1
  Zr  Zr23  1  0.35147032  0.35262500  0.45295827  1
  Zr  Zr24  1  0.64520452  0.64855037  0.21747715  1
  Zr  Zr25  1  0.15030266  0.14997246  0.71101986  1
  Zr  Zr26  1  0.85600858  0.84440921  0.28400060  1
  Zr  Zr27  1  0.35282592  0.35689836  0.78472629  1
  Zr  Zr28  1  0.64821001  0.64393837  0.55069134  1
  Zr  Zr29  1  0.85382869  0.84603857  0.61643718  1
  Zr  Zr30  1  0.64829477  0.64779172  0.88313552  1
  Zr  Zr31  1  0.85849637  0.84413612  0.95024483  1
  Si  Si32  1  0.04440650  0.74890164  0.15650209  1
  Si  Si33  1  0.46521092  0.03407757  0.24908702  1
  Si  Si34  1  0.75721186  0.44417701  0.01224741  1
  Si  Si35  1  0.24845862  0.54218964  0.32264309  1
  Si  Si36  1  0.54552943  0.95915368  0.08338994  1
  Si  Si37  1  0.05293045  0.73866705  0.48781712  1
  Si  Si38  1  0.46647429  0.04253485  0.58391961  1
  Si  Si39  1  0.75006639  0.45257150  0.34755075  1
  Si  Si40  1  0.24729830  0.55203455  0.65453249  1
  Si  Si41  1  0.53687525  0.95881733  0.41728366  1
  Si  Si42  1  0.04609431  0.75311685  0.82153176  1
  Si  Si43  1  0.45683261  0.03019567  0.91647730  1
  Si  Si44  1  0.75020365  0.44534300  0.67955300  1
  Si  Si45  1  0.25158532  0.55160432  0.98574222  1
  P  P46  1  0.96259030  0.25007769  0.17596694  1
  P  P47  1  0.95236389  0.24324114  0.51449996  1
  P  P48  1  0.54552167  0.95792683  0.74928130  1
  P  P49  1  0.95714798  0.24984013  0.84406530  1
  O  O50  1  0.14474453  0.25818151  0.15927626  1
  O  O51  1  0.29927033  0.51540599  0.03953754  1
  O  O52  1  0.06821382  0.92125343  0.09559920  1
  O  O53  1  0.53296703  0.13442804  0.08740296  1
  O  O54  1  0.21553326  0.57378983  0.14362721  1
  O  O55  1  0.04922589  0.76622596  0.21052940  1
  O  O56  1  0.31282822  0.05787328  0.31124335  1
  O  O57  1  0.42530172  0.21467987  0.19335140  1
  O  O58  1  0.58512342  0.43896448  0.07374064  1
  O  O59  1  0.20902043  0.36834718  0.33790060  1
  O  O60  1  0.07928773  0.72536512  0.31131971  1
  O  O61  1  0.36560074  0.99916879  0.07458921  1
  O  O62  1  0.66154958  0.99750291  0.24551688  1
  O  O63  1  0.11567616  0.28611070  0.49808178  1
  O  O64  1  0.91953428  0.25746731  0.02390251  1
  O  O65  1  0.80128661  0.61575394  0.99795143  1
  O  O66  1  0.42320924  0.55221701  0.26206078  1
  O  O67  1  0.27265409  0.52479121  0.37925876  1
  O  O68  1  0.56936676  0.77974306  0.14086656  1
  O  O69  1  0.06497486  0.91090786  0.42732356  1
  O  O70  1  0.72042648  0.92723426  0.02414492  1
  O  O71  1  0.51730457  0.13277518  0.42474330  1
  O  O72  1  0.23815711  0.57349145  0.47943810  1
  O  O73  1  0.01417080  0.78614988  0.54304737  1
  O  O74  1  0.96093072  0.23521046  0.12351192  1
  O  O75  1  0.80631726  0.42053450  0.18597457  1
  O  O76  1  0.46615645  0.86263306  0.24567475  1
  O  O77  1  0.28445063  0.05561813  0.64202909  1
  O  O78  1  0.93498882  0.09002204  0.23296073  1
  O  O79  1  0.44886751  0.20927885  0.52399537  1
  O  O80  1  0.71014725  0.47851679  0.29298813  1
  O  O81  1  0.57407969  0.43651526  0.40787046  1
  O  O82  1  0.21812617  0.36797840  0.67284545  1
  O  O83  1  0.06411183  0.72435416  0.65010670  1
  O  O84  1  0.85452881  0.73705691  0.17268636  1
  O  O85  1  0.34628761  0.98233091  0.42072975  1
  O  O86  1  0.62615422  0.02805299  0.59757625  1
  O  O87  1  0.13920503  0.25500749  0.82939497  1
  O  O88  1  0.91532429  0.27133206  0.36102275  1
  O  O89  1  0.78103558  0.63070668  0.33241912  1
  O  O90  1  0.40935857  0.57757507  0.59067565  1
  O  O91  1  0.29478358  0.52605450  0.70752011  1
  O  O92  1  0.58497338  0.77574261  0.47272138  1
  O  O93  1  0.07571665  0.91898621  0.75950335  1
  O  O94  1  0.70318574  0.94085311  0.35601236  1
  O  O95  1  0.51278684  0.12044178  0.75994861  1
  O  O96  1  0.21410166  0.57227051  0.81213285  1
  O  O97  1  0.04833276  0.78111325  0.87411735  1
  O  O98  1  0.97113526  0.19790408  0.46600847  1
  O  O99  1  0.77558898  0.40029067  0.52557994  1
  O  O100  1  0.51597449  0.85629188  0.57716508  1
  O  O101  1  0.29370768  0.04590716  0.97804095  1
  O  O102  1  0.94371125  0.08006395  0.57372336  1
  O  O103  1  0.42761860  0.21512027  0.86078092  1
  O  O104  1  0.70998891  0.46313734  0.62675588  1
  O  O105  1  0.58325665  0.42000652  0.74205076  1
  O  O106  1  0.20654453  0.38283998  0.99812069  1
  O  O107  1  0.08697071  0.74017821  0.97470241  1
  O  O108  1  0.88233105  0.69663391  0.50099573  1
  O  O109  1  0.38223089  0.98484372  0.73978178  1
  O  O110  1  0.64685325  0.98511207  0.92022827  1
  O  O111  1  0.92273044  0.26843125  0.69087166  1
  O  O112  1  0.77302097  0.62809275  0.66707970  1
  O  O113  1  0.42541614  0.55852943  0.92358898  1
  O  O114  1  0.57559912  0.78446399  0.80222130  1
  O  O115  1  0.71603883  0.93829927  0.69439246  1
  O  O116  1  0.96728465  0.21664140  0.79362588  1
  O  O117  1  0.80649986  0.42908776  0.84752805  1
  O  O118  1  0.46717741  0.86885542  0.90510424  1
  O  O119  1  0.91653406  0.10082044  0.90408518  1
  O  O120  1  0.71040719  0.47880136  0.95783350  1
  O  O121  1  0.85587732  0.73906112  0.83902483  1
