# generated using pymatgen
data_Ba6Yb6Al13Si11N29O13
_symmetry_space_group_name_H-M   'P 1'
_cell_length_a   6.35208220
_cell_length_b   6.21638744
_cell_length_c   30.63991575
_cell_angle_alpha   90.05551852
_cell_angle_beta   89.84924979
_cell_angle_gamma   119.93784250
_symmetry_Int_Tables_number   1
_chemical_formula_structural   Ba6Yb6Al13Si11N29O13
_chemical_formula_sum   'Ba6 Yb6 Al13 Si11 N29 O13'
_cell_volume   1048.43743831
_cell_formula_units_Z   1
loop_
 _symmetry_equiv_pos_site_id
 _symmetry_equiv_pos_as_xyz
  1  'x, y, z'
loop_
 _atom_site_type_symbol
 _atom_site_label
 _atom_site_symmetry_multiplicity
 _atom_site_fract_x
 _atom_site_fract_y
 _atom_site_fract_z
 _atom_site_occupancy
  Ba  Ba0  1  0.34304500  0.64455200  0.03919600  1
  Ba  Ba1  1  0.31028800  0.65928600  0.70879900  1
  Ba  Ba2  1  0.32769900  0.65290700  0.39378500  1
  Ba  Ba3  1  0.67321000  0.34788000  0.55363400  1
  Ba  Ba4  1  0.67408400  0.37291500  0.87773000  1
  Ba  Ba5  1  0.69064300  0.32210100  0.21752800  1
  Yb  Yb6  1  0.38837100  0.63815700  0.27237700  1
  Yb  Yb7  1  0.39500700  0.76142000  0.92282700  1
  Yb  Yb8  1  0.33681500  0.67267600  0.56855100  1
  Yb  Yb9  1  0.68813700  0.32624400  0.10482100  1
  Yb  Yb10  1  0.66775000  0.33141000  0.44524700  1
  Yb  Yb11  1  0.66104400  0.33464600  0.76658100  1
  Al  Al12  1  0.13815400  0.81405600  0.80938100  1
  Al  Al13  1  0.12978200  0.80277900  0.48487900  1
  Al  Al14  1  0.00356200  0.99323000  0.06764200  1
  Al  Al15  1  0.18532300  0.32559700  0.48338300  1
  Al  Al16  1  0.31429000  0.20069400  0.64213500  1
  Al  Al17  1  0.33494400  0.17083700  0.31763700  1
  Al  Al18  1  0.33981100  0.18412300  0.97581200  1
  Al  Al19  1  0.84855100  0.66854200  0.31807700  1
  Al  Al20  1  0.87788000  0.69466100  0.64234200  1
  Al  Al21  1  0.85488100  0.68601000  0.97495700  1
  Al  Al22  1  0.82496500  0.13511500  0.31573900  1
  Al  Al23  1  0.78392400  0.12586700  0.64510700  1
  Al  Al24  1  0.82905500  0.15953200  0.97851800  1
  Si  Si25  1  0.16042100  0.79720100  0.14745900  1
  Si  Si26  1  0.03797700  0.02272700  0.23178000  1
  Si  Si27  1  0.98603400  0.98628400  0.40486700  1
  Si  Si28  1  0.98024100  0.00232700  0.56574500  1
  Si  Si29  1  0.97553600  0.99681400  0.73171100  1
  Si  Si30  1  0.99192000  0.01303800  0.89249900  1
  Si  Si31  1  0.18307400  0.34763100  0.80854500  1
  Si  Si32  1  0.21912500  0.33738700  0.14770500  1
  Si  Si33  1  0.63209700  0.86780100  0.80564200  1
  Si  Si34  1  0.65752200  0.86545900  0.48037500  1
  Si  Si35  1  0.62547800  0.83251700  0.14084400  1
  N  N36  1  0.05305900  0.01240200  0.17402500  1
  N  N37  1  0.25267500  0.05611300  0.91888700  1
  N  N38  1  0.28450100  0.21996400  0.25988500  1
  N  N39  1  0.23718100  0.25723900  0.58477700  1
  N  N40  1  0.55075700  0.52489400  0.65396500  1
  N  N41  1  0.52101000  0.52333200  0.97114100  1
  N  N42  1  0.52842500  0.53509000  0.15771000  1
  N  N43  1  0.49539900  0.54989800  0.81624700  1
  N  N44  1  0.51622100  0.55062900  0.48796600  1
  N  N45  1  0.74138800  0.98810500  0.42502400  1
  N  N46  1  0.72902400  0.96064800  0.09193800  1
  N  N47  1  0.72316300  0.97933800  0.75302200  1
  N  N48  1  0.46285800  0.96974600  0.15828600  1
  N  N49  1  0.46263400  0.97747200  0.49374600  1
  N  N50  1  0.46329000  0.99784400  0.82096000  1
  N  N51  1  0.02515100  0.77602800  0.91879000  1
  N  N52  1  0.82304300  0.75395200  0.25956400  1
  N  N53  1  0.04025500  0.78163300  0.58701700  1
  N  N54  1  0.04775900  0.47979600  0.15790400  1
  N  N55  1  0.00670400  0.47506900  0.81452900  1
  N  N56  1  0.00668700  0.47366500  0.49167700  1
  N  N57  1  0.80801200  0.08558800  0.91964800  1
  N  N58  1  0.77272700  0.98481700  0.25824200  1
  N  N59  1  0.72517300  0.97638300  0.58972000  1
  N  N60  1  0.99426600  0.01727400  0.83421700  1
  N  N61  1  0.01777100  0.01494400  0.00638400  1
  N  N62  1  0.00649100  0.99714900  0.34508000  1
  N  N63  1  0.96985100  0.98689600  0.50579400  1
  N  N64  1  0.00219100  0.01802100  0.67449700  1
  O  O65  1  0.05247000  0.76323300  0.09593600  1
  O  O66  1  0.99492000  0.73818600  0.42123400  1
  O  O67  1  0.00932700  0.76919700  0.75248500  1
  O  O68  1  0.98177400  0.47156400  0.31352800  1
  O  O69  1  0.94808900  0.45329600  0.65471400  1
  O  O70  1  0.95023200  0.47504600  0.99534900  1
  O  O71  1  0.24723800  0.26001500  0.09574000  1
  O  O72  1  0.24030900  0.22249100  0.42445000  1
  O  O73  1  0.21627100  0.24594900  0.75657300  1
  O  O74  1  0.50347600  0.01207700  0.32524300  1
  O  O75  1  0.47754000  0.04720200  0.65888700  1
  O  O76  1  0.50717600  0.02882200  0.99063300  1
  O  O77  1  0.53287100  0.49457400  0.33192400  1
