# generated using pymatgen
data_Ba2AlTlV2O7
_symmetry_space_group_name_H-M   'P 1'
_cell_length_a   3.48880088
_cell_length_b   3.89898871
_cell_length_c   16.38991335
_cell_angle_alpha   85.40988904
_cell_angle_beta   89.92255996
_cell_angle_gamma   89.98482165
_symmetry_Int_Tables_number   1
_chemical_formula_structural   Ba2AlTlV2O7
_chemical_formula_sum   'Ba2 Al1 Tl1 V2 O7'
_cell_volume   222.23336794
_cell_formula_units_Z   1
loop_
 _symmetry_equiv_pos_site_id
 _symmetry_equiv_pos_as_xyz
  1  'x, y, z'
loop_
 _atom_site_type_symbol
 _atom_site_label
 _atom_site_symmetry_multiplicity
 _atom_site_fract_x
 _atom_site_fract_y
 _atom_site_fract_z
 _atom_site_occupancy
  Ba  Ba0  1  0.50159700  0.38436800  0.18524600  1
  Ba  Ba1  1  0.49789500  0.42783800  0.76816500  1
  Al  Al2  1  0.49988100  0.38212800  0.47685700  1
  Tl  Tl3  1  0.99992500  0.97838100  0.98268900  1
  V  V4  1  0.00131200  0.92008300  0.36182700  1
  V  V5  1  0.99936800  0.96805000  0.62335400  1
  O  O6  1  0.00157800  0.84011800  0.25355000  1
  O  O7  1  0.00002000  0.55300800  0.45487800  1
  O  O8  1  0.50097600  0.14770600  0.38152700  1
  O  O9  1  0.49982300  0.04718300  0.55504500  1
  O  O10  1  0.49951700  0.91441600  0.07997600  1
  O  O11  1  0.99984100  0.48777300  0.63277100  1
  O  O12  1  0.99826400  0.94894700  0.74411700  1
