# generated using pymatgen
data_Na11Zr8Si7P5O48
_symmetry_space_group_name_H-M   'P 1'
_cell_length_a   9.14790939
_cell_length_b   9.15690788
_cell_length_c   18.55550553
_cell_angle_alpha   60.84479755
_cell_angle_beta   60.71301598
_cell_angle_gamma   60.04385960
_symmetry_Int_Tables_number   1
_chemical_formula_structural   Na11Zr8Si7P5O48
_chemical_formula_sum   'Na11 Zr8 Si7 P5 O48'
_cell_volume   1112.21388682
_cell_formula_units_Z   1
loop_
 _symmetry_equiv_pos_site_id
 _symmetry_equiv_pos_as_xyz
  1  'x, y, z'
loop_
 _atom_site_type_symbol
 _atom_site_label
 _atom_site_symmetry_multiplicity
 _atom_site_fract_x
 _atom_site_fract_y
 _atom_site_fract_z
 _atom_site_occupancy
  Na  Na0  1  0.24275500  0.09943000  0.15767300  1
  Na  Na1  1  0.53380400  0.00988400  0.25823100  1
  Na  Na2  1  0.62134600  0.41047000  0.11267800  1
  Na  Na3  1  0.25169300  0.08280200  0.65917400  1
  Na  Na4  1  0.37694000  0.61182000  0.38009900  1
  Na  Na5  1  0.51984800  0.00675000  0.75816400  1
  Na  Na6  1  0.95391300  0.67794900  0.03444100  1
  Na  Na7  1  0.59432900  0.40275800  0.62625000  1
  Na  Na8  1  0.38097700  0.60911800  0.88060600  1
  Na  Na9  1  0.99683500  0.47158400  0.48995700  1
  Na  Na10  1  0.91968900  0.75158700  0.58528500  1
  Zr  Zr11  1  0.14409300  0.64947700  0.28221200  1
  Zr  Zr12  1  0.65337200  0.14507600  0.02803200  1
  Zr  Zr13  1  0.14516000  0.64690700  0.78474400  1
  Zr  Zr14  1  0.34951200  0.85682800  0.46883900  1
  Zr  Zr15  1  0.64530200  0.15031100  0.52626900  1
  Zr  Zr16  1  0.84686600  0.34875100  0.22583000  1
  Zr  Zr17  1  0.34398800  0.85431400  0.97307300  1
  Zr  Zr18  1  0.85219300  0.35235500  0.72251400  1
  Si  Si19  1  0.24881500  0.46727800  0.12204500  1
  Si  Si20  1  0.04607300  0.95114700  0.37599400  1
  Si  Si21  1  0.45891700  0.25227300  0.36903300  1
  Si  Si22  1  0.52958200  0.75351900  0.13050200  1
  Si  Si23  1  0.25168000  0.46294500  0.62293100  1
  Si  Si24  1  0.05447000  0.95929100  0.87239700  1
  Si  Si25  1  0.53688700  0.74877600  0.62914700  1
  P  P26  1  0.95330000  0.04231100  0.12848700  1
  P  P27  1  0.74557500  0.53218000  0.38519600  1
  P  P28  1  0.46885900  0.24877600  0.86803400  1
  P  P29  1  0.95587000  0.04111200  0.62796000  1
  P  P30  1  0.74487000  0.54208700  0.87853400  1
  O  O31  1  0.11221200  0.99945300  0.04736100  1
  O  O32  1  0.00507800  0.11502100  0.28901000  1
  O  O33  1  0.06945400  0.43237800  0.14529800  1
  O  O34  1  0.26886600  0.63246400  0.02813600  1
  O  O35  1  0.10905000  0.99858800  0.54604600  1
  O  O36  1  0.42166700  0.28364600  0.11240200  1
  O  O37  1  0.24279100  0.51953800  0.19601800  1
  O  O38  1  0.05697900  0.76300200  0.37966900  1
  O  O39  1  0.00968500  0.12109100  0.78536800  1
  O  O40  1  0.27521000  0.42656600  0.36833800  1
  O  O41  1  0.42939600  0.07429100  0.38824100  1
  O  O42  1  0.06812200  0.43663900  0.64254500  1
  O  O43  1  0.48619800  0.75964700  0.05278500  1
  O  O44  1  0.77322000  0.08303900  0.12074800  1
  O  O45  1  0.35510400  0.74602600  0.21942500  1
  O  O46  1  0.61865800  0.28738600  0.27625600  1
  O  O47  1  0.23898800  0.92160700  0.37579900  1
  O  O48  1  0.51191400  0.23336900  0.44765700  1
  O  O49  1  0.27448300  0.62548700  0.53030900  1
  O  O50  1  0.55936700  0.93796000  0.10529300  1
  O  O51  1  0.71215800  0.58438900  0.14052200  1
  O  O52  1  0.41729900  0.27220900  0.62143000  1
  O  O53  1  0.94565400  0.21122000  0.13235700  1
  O  O54  1  0.23727800  0.51866500  0.69812900  1
  O  O55  1  0.75927000  0.46903300  0.31764400  1
  O  O56  1  0.07466200  0.76716300  0.87555300  1
  O  O57  1  0.58611300  0.71008000  0.38334700  1
  O  O58  1  0.29764300  0.41415900  0.86333900  1
  O  O59  1  0.43868600  0.07980000  0.88914400  1
  O  O60  1  0.70701600  0.39049700  0.47728000  1
  O  O61  1  0.48440700  0.76626300  0.55243400  1
  O  O62  1  0.77615300  0.06284200  0.62821400  1
  O  O63  1  0.36891200  0.72924700  0.72063700  1
  O  O64  1  0.61921400  0.27798200  0.77815100  1
  O  O65  1  0.24453800  0.93753900  0.87159800  1
  O  O66  1  0.52457400  0.23601000  0.93829900  1
  O  O67  1  0.91749200  0.55628000  0.36476400  1
  O  O68  1  0.57205200  0.92480300  0.61175200  1
  O  O69  1  0.72282100  0.57654600  0.63348000  1
  O  O70  1  0.97754000  0.88267900  0.21102600  1
  O  O71  1  0.94280800  0.22010600  0.62609000  1
  O  O72  1  0.75487600  0.48987900  0.80684100  1
  O  O73  1  0.58265600  0.71736600  0.88138600  1
  O  O74  1  0.88472400  0.00050100  0.46357000  1
  O  O75  1  0.71069700  0.39269900  0.96651200  1
  O  O76  1  0.91655000  0.56924400  0.85485000  1
  O  O77  1  0.99669200  0.88994000  0.71029700  1
  O  O78  1  0.88956100  0.99979900  0.96031900  1
