# generated using pymatgen
data_CsAlH24(SO10)2
_symmetry_space_group_name_H-M   'P 1'
_cell_length_a   13.19062998
_cell_length_b   13.19062998
_cell_length_c   13.19062998
_cell_angle_alpha   89.54316388
_cell_angle_beta   89.54316388
_cell_angle_gamma   89.54316388
_symmetry_Int_Tables_number   1
_chemical_formula_structural   CsAlH24(SO10)2
_chemical_formula_sum   'Cs4 Al4 H96 S8 O80'
_cell_volume   2294.85587588
_cell_formula_units_Z   4
loop_
 _symmetry_equiv_pos_site_id
 _symmetry_equiv_pos_as_xyz
  1  'x, y, z'
loop_
 _atom_site_type_symbol
 _atom_site_label
 _atom_site_symmetry_multiplicity
 _atom_site_fract_x
 _atom_site_fract_y
 _atom_site_fract_z
 _atom_site_occupancy
  Cs  Cs0  1  0.00000000  0.00000000  0.50000000  1
  Cs  Cs1  1  0.00000000  0.50000000  0.00000000  1
  Cs  Cs2  1  0.50000000  0.00000000  0.00000000  1
  Cs  Cs3  1  0.50000000  0.50000000  0.50000000  1
  Al  Al4  1  0.50000000  0.50000000  0.00000000  1
  Al  Al5  1  0.50000000  0.00000000  0.50000000  1
  Al  Al6  1  0.00000000  0.50000000  0.50000000  1
  Al  Al7  1  0.00000000  0.00000000  0.00000000  1
  H  H8  1  0.33322811  0.11869791  0.26364028  1
  H  H9  1  0.66756967  0.61984711  0.24941742  1
  H  H10  1  0.16923787  0.87881841  0.75470363  1
  H  H11  1  0.83047008  0.37758402  0.74919482  1
  H  H12  1  0.26364028  0.33322811  0.11869791  1
  H  H13  1  0.24941742  0.66756967  0.61984711  1
  H  H14  1  0.75470363  0.16923787  0.87881841  1
  H  H15  1  0.74919482  0.83047008  0.37758402  1
  H  H16  1  0.11869791  0.26364028  0.33322811  1
  H  H17  1  0.61984711  0.24941742  0.66756967  1
  H  H18  1  0.87881841  0.75470363  0.16923787  1
  H  H19  1  0.37758402  0.74919482  0.83047008  1
  H  H20  1  0.66677189  0.88130209  0.73635972  1
  H  H21  1  0.33243033  0.38015289  0.75058258  1
  H  H22  1  0.83076213  0.12118159  0.24529637  1
  H  H23  1  0.16952992  0.62241598  0.25080518  1
  H  H24  1  0.73635972  0.66677189  0.88130209  1
  H  H25  1  0.75058258  0.33243033  0.38015289  1
  H  H26  1  0.24529637  0.83076213  0.12118159  1
  H  H27  1  0.25080518  0.16952992  0.62241598  1
  H  H28  1  0.88130209  0.73635972  0.66677189  1
  H  H29  1  0.38015289  0.75058258  0.33243033  1
  H  H30  1  0.12118159  0.24529637  0.83076213  1
  H  H31  1  0.62241598  0.25080518  0.16952992  1
  H  H32  1  0.50578706  0.27213875  0.18314380  1
  H  H33  1  0.49626890  0.77078175  0.32099986  1
  H  H34  1  0.99834626  0.71907790  0.68725250  1
  H  H35  1  0.00440160  0.22642626  0.81701381  1
  H  H36  1  0.18314380  0.50578706  0.27213875  1
  H  H37  1  0.32099986  0.49626890  0.77078175  1
  H  H38  1  0.68725250  0.99834626  0.71907790  1
  H  H39  1  0.81701381  0.00440160  0.22642626  1
  H  H40  1  0.27213875  0.18314380  0.50578706  1
  H  H41  1  0.77078175  0.32099986  0.49626890  1
  H  H42  1  0.71907790  0.68725250  0.99834626  1
  H  H43  1  0.22642626  0.81701381  0.00440160  1
  H  H44  1  0.49421294  0.72786125  0.81685620  1
  H  H45  1  0.50373110  0.22921825  0.67900014  1
  H  H46  1  0.00165374  0.28092210  0.31274750  1
  H  H47  1  0.99559840  0.77357374  0.18298619  1
  H  H48  1  0.81685620  0.49421294  0.72786125  1
  H  H49  1  0.67900014  0.50373110  0.22921825  1
  H  H50  1  0.31274750  0.00165374  0.28092210  1
  H  H51  1  0.18298619  0.99559840  0.77357374  1
  H  H52  1  0.72786125  0.81685620  0.49421294  1
  H  H53  1  0.22921825  0.67900014  0.50373110  1
  H  H54  1  0.28092210  0.31274750  0.00165374  1
  H  H55  1  0.77357374  0.18298619  0.99559840  1
  H  H56  1  0.16630109  0.18293530  0.05328149  1
  H  H57  1  0.82936746  0.68049304  0.44714679  1
  H  H58  1  0.33078618  0.81818754  0.54906674  1
  H  H59  1  0.66672830  0.31879219  0.94923789  1
  H  H60  1  0.05328149  0.16630109  0.18293530  1
  H  H61  1  0.44714679  0.82936746  0.68049304  1
  H  H62  1  0.54906674  0.33078618  0.81818754  1
  H  H63  1  0.94923789  0.66672830  0.31879219  1
  H  H64  1  0.18293530  0.05328149  0.16630109  1
  H  H65  1  0.68049304  0.44714679  0.82936746  1
  H  H66  1  0.81818754  0.54906674  0.33078618  1
  H  H67  1  0.31879219  0.94923789  0.66672830  1
  H  H68  1  0.83369891  0.81706470  0.94671851  1
  H  H69  1  0.17063254  0.31950696  0.55285321  1
  H  H70  1  0.66921382  0.18181246  0.45093326  1
  H  H71  1  0.33327170  0.68120781  0.05076211  1
  H  H72  1  0.94671851  0.83369891  0.81706470  1
  H  H73  1  0.55285321  0.17063254  0.31950696  1
  H  H74  1  0.45093326  0.66921382  0.18181246  1
  H  H75  1  0.05076211  0.33327170  0.68120781  1
  H  H76  1  0.81706470  0.94671851  0.83369891  1
  H  H77  1  0.31950696  0.55285321  0.17063254  1
  H  H78  1  0.18181246  0.45093326  0.66921382  1
  H  H79  1  0.68120781  0.05076211  0.33327170  1
  H  H80  1  0.15739691  0.03755531  0.21495112  1
  H  H81  1  0.84754500  0.53704924  0.28335301  1
  H  H82  1  0.34591605  0.96315056  0.71441538  1
  H  H83  1  0.65492649  0.46265532  0.78086291  1
  H  H84  1  0.21495112  0.15739691  0.03755531  1
  H  H85  1  0.28335301  0.84754500  0.53704924  1
  H  H86  1  0.71441538  0.34591605  0.96315056  1
  H  H87  1  0.78086291  0.65492649  0.46265532  1
  H  H88  1  0.03755531  0.21495112  0.15739691  1
  H  H89  1  0.53704924  0.28335301  0.84754500  1
  H  H90  1  0.96315056  0.71441538  0.34591605  1
  H  H91  1  0.46265532  0.78086291  0.65492649  1
  H  H92  1  0.84260309  0.96244469  0.78504888  1
  H  H93  1  0.15245500  0.46295076  0.71664699  1
  H  H94  1  0.65408395  0.03684944  0.28558462  1
  H  H95  1  0.34507351  0.53734468  0.21913709  1
  H  H96  1  0.78504888  0.84260309  0.96244469  1
  H  H97  1  0.71664699  0.15245500  0.46295076  1
  H  H98  1  0.28558462  0.65408395  0.03684944  1
  H  H99  1  0.21913709  0.34507351  0.53734468  1
  H  H100  1  0.96244469  0.78504888  0.84260309  1
  H  H101  1  0.46295076  0.71664699  0.15245500  1
  H  H102  1  0.03684944  0.28558462  0.65408395  1
  H  H103  1  0.53734468  0.21913709  0.34507351  1
  S  S104  1  0.17405050  0.82522737  0.32170410  1
  S  S105  1  0.82522737  0.32170410  0.17405050  1
  S  S106  1  0.32170410  0.17405050  0.82522737  1
  S  S107  1  0.67628587  0.67628587  0.67628587  1
  S  S108  1  0.82594950  0.17477263  0.67829590  1
  S  S109  1  0.17477263  0.67829590  0.82594950  1
  S  S110  1  0.67829590  0.82594950  0.17477263  1
  S  S111  1  0.32371413  0.32371413  0.32371413  1
  O  O112  1  0.23921349  0.76106174  0.25494834  1
  O  O113  1  0.76106174  0.25494834  0.23921349  1
  O  O114  1  0.25494834  0.23921349  0.76106174  1
  O  O115  1  0.74104075  0.74104075  0.74104075  1
  O  O116  1  0.76078651  0.23893826  0.74505166  1
  O  O117  1  0.23893826  0.74505166  0.76078651  1
  O  O118  1  0.74505166  0.76078651  0.23893826  1
  O  O119  1  0.25895925  0.25895925  0.25895925  1
  O  O120  1  0.07280888  0.84406435  0.27506340  1
  O  O121  1  0.92528413  0.34044680  0.22195619  1
  O  O122  1  0.42195500  0.15627509  0.77529366  1
  O  O123  1  0.57524619  0.65972173  0.72475561  1
  O  O124  1  0.27506340  0.07280888  0.84406435  1
  O  O125  1  0.22195619  0.92528413  0.34044680  1
  O  O126  1  0.77529366  0.42195500  0.15627509  1
  O  O127  1  0.72475561  0.57524619  0.65972173  1
  O  O128  1  0.84406435  0.27506340  0.07280888  1
  O  O129  1  0.34044680  0.22195619  0.92528413  1
  O  O130  1  0.15627509  0.77529366  0.42195500  1
  O  O131  1  0.65972173  0.72475561  0.57524619  1
  O  O132  1  0.92719112  0.15593565  0.72493660  1
  O  O133  1  0.07471587  0.65955320  0.77804381  1
  O  O134  1  0.57804500  0.84372491  0.22470634  1
  O  O135  1  0.42475381  0.34027827  0.27524439  1
  O  O136  1  0.72493660  0.92719112  0.15593565  1
  O  O137  1  0.77804381  0.07471587  0.65955320  1
  O  O138  1  0.22470634  0.57804500  0.84372491  1
  O  O139  1  0.27524439  0.42475381  0.34027827  1
  O  O140  1  0.15593565  0.72493660  0.92719112  1
  O  O141  1  0.65955320  0.77804381  0.07471587  1
  O  O142  1  0.84372491  0.22470634  0.57804500  1
  O  O143  1  0.34027827  0.27524439  0.42475381  1
  O  O144  1  0.24601164  0.35940000  0.05041525  1
  O  O145  1  0.76404724  0.86059537  0.44436628  1
  O  O146  1  0.26475173  0.63573729  0.55393023  1
  O  O147  1  0.73878987  0.13899162  0.94621488  1
  O  O148  1  0.05041525  0.24601164  0.35940000  1
  O  O149  1  0.44436628  0.76404724  0.86059537  1
  O  O150  1  0.55393023  0.26475173  0.63573729  1
  O  O151  1  0.94621488  0.73878987  0.13899162  1
  O  O152  1  0.35940000  0.05041525  0.24601164  1
  O  O153  1  0.86059537  0.44436628  0.76404724  1
  O  O154  1  0.63573729  0.55393023  0.26475173  1
  O  O155  1  0.13899162  0.94621488  0.73878987  1
  O  O156  1  0.75398836  0.64060000  0.94958475  1
  O  O157  1  0.23595276  0.13940463  0.55563372  1
  O  O158  1  0.73524827  0.36426271  0.44606977  1
  O  O159  1  0.26121013  0.86100838  0.05378512  1
  O  O160  1  0.94958475  0.75398836  0.64060000  1
  O  O161  1  0.55563372  0.23595276  0.13940463  1
  O  O162  1  0.44606977  0.73524827  0.36426271  1
  O  O163  1  0.05378512  0.26121013  0.86100838  1
  O  O164  1  0.64060000  0.94958475  0.75398836  1
  O  O165  1  0.13940463  0.55563372  0.23595276  1
  O  O166  1  0.36426271  0.44606977  0.73524827  1
  O  O167  1  0.86100838  0.05378512  0.26121013  1
  O  O168  1  0.49588790  0.63976110  0.98233663  1
  O  O169  1  0.49919506  0.13910002  0.51480743  1
  O  O170  1  0.01190918  0.36120983  0.47646251  1
  O  O171  1  0.99460592  0.86071204  0.02032572  1
  O  O172  1  0.98233663  0.49588790  0.63976110  1
  O  O173  1  0.51480743  0.49919506  0.13910002  1
  O  O174  1  0.47646251  0.01190918  0.36120983  1
  O  O175  1  0.02032572  0.99460592  0.86071204  1
  O  O176  1  0.63976110  0.98233663  0.49588790  1
  O  O177  1  0.13910002  0.51480743  0.49919506  1
  O  O178  1  0.36120983  0.47646251  0.01190918  1
  O  O179  1  0.86071204  0.02032572  0.99460592  1
  O  O180  1  0.50411210  0.36023890  0.01766337  1
  O  O181  1  0.50080494  0.86089998  0.48519257  1
  O  O182  1  0.98809082  0.63879017  0.52353749  1
  O  O183  1  0.00539408  0.13928796  0.97967428  1
  O  O184  1  0.01766337  0.50411210  0.36023890  1
  O  O185  1  0.48519257  0.50080494  0.86089998  1
  O  O186  1  0.52353749  0.98809082  0.63879017  1
  O  O187  1  0.97967428  0.00539408  0.13928796  1
  O  O188  1  0.36023890  0.01766337  0.50411210  1
  O  O189  1  0.86089998  0.48519257  0.50080494  1
  O  O190  1  0.63879017  0.52353749  0.98809082  1
  O  O191  1  0.13928796  0.97967428  0.00539408  1
