# generated using pymatgen
data_LiAlSiH2O5
_symmetry_space_group_name_H-M   'P 1'
_cell_length_a   5.42474400
_cell_length_b   7.33215700
_cell_length_c   12.20498700
_cell_angle_alpha   90.00000000
_cell_angle_beta   90.00000000
_cell_angle_gamma   90.00000000
_symmetry_Int_Tables_number   1
_chemical_formula_structural   LiAlSiH2O5
_chemical_formula_sum   'Li4 Al4 Si4 H8 O20'
_cell_volume   485.45426955
_cell_formula_units_Z   4
loop_
 _symmetry_equiv_pos_site_id
 _symmetry_equiv_pos_as_xyz
  1  'x, y, z'
loop_
 _atom_site_type_symbol
 _atom_site_label
 _atom_site_symmetry_multiplicity
 _atom_site_fract_x
 _atom_site_fract_y
 _atom_site_fract_z
 _atom_site_occupancy
  Li  Li0  1  0.34726900  0.98500200  0.58471000  1
  Li  Li1  1  0.84726900  0.48500200  0.91529000  1
  Li  Li2  1  0.84726900  0.01499800  0.41529000  1
  Li  Li3  1  0.34726900  0.51499800  0.08471000  1
  Al  Al4  1  0.59526700  0.61949300  0.30691700  1
  Al  Al5  1  0.09526700  0.11949300  0.19308300  1
  Al  Al6  1  0.59526700  0.88050700  0.80691700  1
  Al  Al7  1  0.09526700  0.38050700  0.69308300  1
  Si  Si8  1  0.09294100  0.40082700  0.30712600  1
  Si  Si9  1  0.59294100  0.90082700  0.19287400  1
  Si  Si10  1  0.59294100  0.59917300  0.69287400  1
  Si  Si11  1  0.09294100  0.09917300  0.80712600  1
  H  H12  1  0.78598500  0.13402500  0.59265800  1
  H  H13  1  0.28598500  0.63402500  0.90734200  1
  H  H14  1  0.28598500  0.86597500  0.40734200  1
  H  H15  1  0.61160300  0.26974400  0.53080700  1
  H  H16  1  0.11160300  0.73025600  0.46919300  1
  H  H17  1  0.11160300  0.76974400  0.96919300  1
  H  H18  1  0.78598500  0.36597500  0.09265800  1
  H  H19  1  0.61160300  0.23025600  0.03080700  1
  O  O20  1  0.36764600  0.47592800  0.64931500  1
  O  O21  1  0.86764600  0.97592800  0.85068500  1
  O  O22  1  0.65248900  0.35998100  0.03690200  1
  O  O23  1  0.09371500  0.13306400  0.66915500  1
  O  O24  1  0.84706100  0.99130700  0.14954100  1
  O  O25  1  0.84706100  0.50869300  0.64954100  1
  O  O26  1  0.56532500  0.81971300  0.66319700  1
  O  O27  1  0.56532500  0.68028700  0.16319700  1
  O  O28  1  0.34706100  0.49130700  0.35045900  1
  O  O29  1  0.34706100  0.00869300  0.85045900  1
  O  O30  1  0.15248900  0.64001900  0.96309800  1
  O  O31  1  0.65248900  0.14001900  0.53690200  1
  O  O32  1  0.15248900  0.85998100  0.46309800  1
  O  O33  1  0.06532500  0.31971300  0.83680300  1
  O  O34  1  0.86764600  0.52407200  0.35068500  1
  O  O35  1  0.09371500  0.36693600  0.16915500  1
  O  O36  1  0.59371500  0.86693600  0.33084500  1
  O  O37  1  0.06532500  0.18028700  0.33680300  1
  O  O38  1  0.36764600  0.02407200  0.14931500  1
  O  O39  1  0.59371500  0.63306400  0.83084500  1
