# generated using pymatgen
data_Y5Be6Fe3(SiO5)6
_symmetry_space_group_name_H-M   'P 1'
_cell_length_a   7.63242600
_cell_length_b   10.08172904
_cell_length_c   14.19003061
_cell_angle_alpha   90.10081034
_cell_angle_beta   90.04633721
_cell_angle_gamma   90.00522280
_symmetry_Int_Tables_number   1
_chemical_formula_structural   Y5Be6Fe3(SiO5)6
_chemical_formula_sum   'Y10 Be12 Fe6 Si12 O60'
_cell_volume   1091.89314502
_cell_formula_units_Z   2
loop_
 _symmetry_equiv_pos_site_id
 _symmetry_equiv_pos_as_xyz
  1  'x, y, z'
loop_
 _atom_site_type_symbol
 _atom_site_label
 _atom_site_symmetry_multiplicity
 _atom_site_fract_x
 _atom_site_fract_y
 _atom_site_fract_z
 _atom_site_occupancy
  Y  Y0  1  0.39950200  0.16430600  0.66736400  1
  Y  Y1  1  0.40021300  0.16706000  0.33361300  1
  Y  Y2  1  0.38734000  0.17292200  0.99616900  1
  Y  Y3  1  0.89371100  0.32884600  0.67102500  1
  Y  Y4  1  0.89496300  0.33084800  0.33110900  1
  Y  Y5  1  0.60461400  0.83095100  0.99533800  1
  Y  Y6  1  0.60368200  0.82896700  0.33744400  1
  Y  Y7  1  0.10971800  0.67166300  0.66920700  1
  Y  Y8  1  0.10478800  0.66988100  0.33257000  1
  Y  Y9  1  0.09861500  0.66226300  0.99646200  1
  Be  Be10  1  0.08183400  0.16420800  0.84839200  1
  Be  Be11  1  0.08441200  0.16054900  0.51397300  1
  Be  Be12  1  0.08998600  0.16120200  0.17836400  1
  Be  Be13  1  0.58441700  0.33897200  0.81920000  1
  Be  Be14  1  0.59186700  0.33905100  0.48628300  1
  Be  Be15  1  0.58508400  0.33752700  0.15143800  1
  Be  Be16  1  0.90777000  0.83793500  0.81888800  1
  Be  Be17  1  0.91690400  0.83979400  0.48763800  1
  Be  Be18  1  0.91176700  0.83819100  0.15156300  1
  Be  Be19  1  0.41064800  0.65987400  0.84530200  1
  Be  Be20  1  0.41337300  0.66423700  0.51690200  1
  Be  Be21  1  0.41818500  0.66189600  0.17989200  1
  Fe  Fe22  1  0.99527600  0.00958900  0.99653200  1
  Fe  Fe23  1  0.98272700  0.99488100  0.67164300  1
  Fe  Fe24  1  0.99966300  0.00035500  0.33251200  1
  Fe  Fe25  1  0.51491200  0.49723500  0.99941600  1
  Fe  Fe26  1  0.50635000  0.50879000  0.66838200  1
  Fe  Fe27  1  0.50254200  0.50109200  0.33350400  1
  Si  Si28  1  0.22858900  0.41710300  0.82720200  1
  Si  Si29  1  0.22071900  0.42062500  0.49383700  1
  Si  Si30  1  0.22092900  0.42453300  0.16052400  1
  Si  Si31  1  0.72561000  0.07996700  0.83987100  1
  Si  Si32  1  0.71876400  0.08276000  0.50580200  1
  Si  Si33  1  0.71655700  0.07869500  0.17226400  1
  Si  Si34  1  0.78834400  0.58078000  0.83969700  1
  Si  Si35  1  0.77559300  0.58030000  0.50816700  1
  Si  Si36  1  0.77810300  0.57762600  0.17092400  1
  Si  Si37  1  0.27994400  0.92300200  0.82725600  1
  Si  Si38  1  0.27633500  0.91991300  0.49559800  1
  Si  Si39  1  0.27517000  0.91836600  0.15931700  1
  O  O40  1  0.39833300  0.36633200  0.75886400  1
  O  O41  1  0.39471600  0.36279200  0.43226100  1
  O  O42  1  0.38921400  0.36592100  0.09961900  1
  O  O43  1  0.89617500  0.13436000  0.90120300  1
  O  O44  1  0.89244700  0.13514600  0.56707000  1
  O  O45  1  0.89311100  0.13626200  0.23218200  1
  O  O46  1  0.60728100  0.63510200  0.89721800  1
  O  O47  1  0.60090500  0.62905000  0.56516400  1
  O  O48  1  0.60943200  0.63782600  0.23792100  1
  O  O49  1  0.10810500  0.86449900  0.76742500  1
  O  O50  1  0.10623300  0.86913500  0.42513100  1
  O  O51  1  0.10386100  0.85822000  0.10090900  1
  O  O52  1  0.54899400  0.34124300  0.92760700  1
  O  O53  1  0.59427500  0.34228600  0.59731200  1
  O  O54  1  0.58414400  0.34034900  0.26683900  1
  O  O55  1  0.07274000  0.15866600  0.73388500  1
  O  O56  1  0.08095200  0.16143100  0.39981800  1
  O  O57  1  0.11657900  0.13850200  0.07236500  1
  O  O58  1  0.38365300  0.64317000  0.73608700  1
  O  O59  1  0.41718800  0.65911600  0.40158100  1
  O  O60  1  0.42934000  0.65977100  0.06884800  1
  O  O61  1  0.79875200  0.96079000  0.77037600  1
  O  O62  1  0.79411800  0.96025400  0.43645500  1
  O  O63  1  0.79394300  0.96005900  0.10297500  1
  O  O64  1  0.40776100  0.99287600  0.75394400  1
  O  O65  1  0.41393300  0.96922600  0.41313000  1
  O  O66  1  0.41916200  0.96382600  0.08308400  1
  O  O67  1  0.92040200  0.53667600  0.92047200  1
  O  O68  1  0.91590400  0.52625900  0.58424100  1
  O  O69  1  0.91180700  0.53115100  0.25521500  1
  O  O70  1  0.18399800  0.28761800  0.89076400  1
  O  O71  1  0.14929600  0.29969900  0.55948100  1
  O  O72  1  0.15443100  0.29980300  0.22830000  1
  O  O73  1  0.08428500  0.46293700  0.74897700  1
  O  O74  1  0.08753500  0.47067200  0.41077300  1
  O  O75  1  0.08837100  0.49661000  0.09222200  1
  O  O76  1  0.29471600  0.53976000  0.89893800  1
  O  O77  1  0.29150400  0.53917000  0.56277200  1
  O  O78  1  0.30236100  0.53872700  0.23631500  1
  O  O79  1  0.58604300  0.03063700  0.91980400  1
  O  O80  1  0.56994200  0.04530500  0.57851800  1
  O  O81  1  0.59028400  0.02449100  0.25735500  1
  O  O82  1  0.70689400  0.46132500  0.76935700  1
  O  O83  1  0.70837200  0.46062000  0.43259900  1
  O  O84  1  0.69603400  0.45960100  0.10632900  1
  O  O85  1  0.19902300  0.03480800  0.90166200  1
  O  O86  1  0.20718600  0.04587500  0.56004600  1
  O  O87  1  0.20678700  0.03700400  0.23555700  1
  O  O88  1  0.35023600  0.79974200  0.89356500  1
  O  O89  1  0.32310700  0.79270600  0.55762900  1
  O  O90  1  0.34158100  0.79687800  0.23006200  1
  O  O91  1  0.86390800  0.69732200  0.77206600  1
  O  O92  1  0.84425600  0.70217300  0.43873700  1
  O  O93  1  0.83529100  0.70353200  0.10522000  1
  O  O94  1  0.66294500  0.20412400  0.77166800  1
  O  O95  1  0.66586800  0.20454900  0.43185200  1
  O  O96  1  0.62830200  0.19408600  0.11106100  1
  O  O97  1  0.90649800  0.84364400  0.93327600  1
  O  O98  1  0.95447500  0.84157900  0.59412200  1
  O  O99  1  0.91348900  0.84036100  0.26543400  1
