# generated using pymatgen
data_AlBi3Se2ClO8
_symmetry_space_group_name_H-M   'P 1'
_cell_length_a   6.99269500
_cell_length_b   8.17810900
_cell_length_c   9.55342500
_cell_angle_alpha   90.00000000
_cell_angle_beta   90.00000000
_cell_angle_gamma   90.00000000
_symmetry_Int_Tables_number   1
_chemical_formula_structural   AlBi3Se2ClO8
_chemical_formula_sum   'Al2 Bi6 Se4 Cl2 O16'
_cell_volume   546.33192483
_cell_formula_units_Z   2
loop_
 _symmetry_equiv_pos_site_id
 _symmetry_equiv_pos_as_xyz
  1  'x, y, z'
loop_
 _atom_site_type_symbol
 _atom_site_label
 _atom_site_symmetry_multiplicity
 _atom_site_fract_x
 _atom_site_fract_y
 _atom_site_fract_z
 _atom_site_occupancy
  Al  Al0  1  0.67865300  0.50000000  0.50000000  1
  Al  Al1  1  0.32134700  0.00000000  0.00000000  1
  Bi  Bi2  1  0.00000000  0.25000000  0.75000000  1
  Bi  Bi3  1  0.00000000  0.25000000  0.25000000  1
  Bi  Bi4  1  0.00000000  0.75000000  0.75000000  1
  Bi  Bi5  1  0.85031100  0.00000000  0.00000000  1
  Bi  Bi6  1  0.14968900  0.50000000  0.50000000  1
  Bi  Bi7  1  0.00000000  0.75000000  0.25000000  1
  Se  Se8  1  0.54581700  0.00000000  0.69037200  1
  Se  Se9  1  0.45418300  0.50000000  0.80962800  1
  Se  Se10  1  0.54581700  0.00000000  0.30962800  1
  Se  Se11  1  0.45418300  0.50000000  0.19037200  1
  Cl  Cl12  1  0.92089900  0.50000000  0.00000000  1
  Cl  Cl13  1  0.07910100  0.00000000  0.50000000  1
  O  O14  1  0.86007400  0.50000000  0.63985300  1
  O  O15  1  0.47392900  0.50000000  0.62334700  1
  O  O16  1  0.52607100  0.00000000  0.12334700  1
  O  O17  1  0.69204800  0.16570600  0.66965200  1
  O  O18  1  0.30795200  0.33429400  0.16965200  1
  O  O19  1  0.30795200  0.66570600  0.16965200  1
  O  O20  1  0.13992600  0.00000000  0.86014700  1
  O  O21  1  0.69204800  0.83429400  0.66965200  1
  O  O22  1  0.69204800  0.83429400  0.33034800  1
  O  O23  1  0.30795200  0.66570600  0.83034800  1
  O  O24  1  0.86007400  0.50000000  0.36014700  1
  O  O25  1  0.13992600  0.00000000  0.13985300  1
  O  O26  1  0.30795200  0.33429400  0.83034800  1
  O  O27  1  0.69204800  0.16570600  0.33034800  1
  O  O28  1  0.52607100  0.00000000  0.87665300  1
  O  O29  1  0.47392900  0.50000000  0.37665300  1
