# generated using pymatgen
data_MgSi4WO10
_symmetry_space_group_name_H-M   'P 1'
_cell_length_a   7.45285300
_cell_length_b   7.45285300
_cell_length_c   15.01101700
_cell_angle_alpha   90.00000000
_cell_angle_beta   90.00000000
_cell_angle_gamma   90.00000000
_symmetry_Int_Tables_number   1
_chemical_formula_structural   MgSi4WO10
_chemical_formula_sum   'Mg4 Si16 W4 O40'
_cell_volume   833.78720706
_cell_formula_units_Z   4
loop_
 _symmetry_equiv_pos_site_id
 _symmetry_equiv_pos_as_xyz
  1  'x, y, z'
loop_
 _atom_site_type_symbol
 _atom_site_label
 _atom_site_symmetry_multiplicity
 _atom_site_fract_x
 _atom_site_fract_y
 _atom_site_fract_z
 _atom_site_occupancy
  Mg  Mg0  1  0.50000000  0.50000000  0.50000000  1
  Mg  Mg1  1  0.00000000  0.00000000  0.50000000  1
  Mg  Mg2  1  0.00000000  0.00000000  0.00000000  1
  Mg  Mg3  1  0.50000000  0.50000000  0.00000000  1
  Si  Si4  1  0.15262200  0.24140600  0.64673000  1
  Si  Si5  1  0.84737800  0.75859400  0.64673000  1
  Si  Si6  1  0.24140600  0.15262200  0.85327000  1
  Si  Si7  1  0.74140600  0.34737800  0.64673000  1
  Si  Si8  1  0.25859400  0.65262200  0.64673000  1
  Si  Si9  1  0.34737800  0.74140600  0.85327000  1
  Si  Si10  1  0.65262200  0.25859400  0.85327000  1
  Si  Si11  1  0.75859400  0.84737800  0.85327000  1
  Si  Si12  1  0.34737800  0.25859400  0.35327000  1
  Si  Si13  1  0.65262200  0.74140600  0.35327000  1
  Si  Si14  1  0.25859400  0.34737800  0.14673000  1
  Si  Si15  1  0.75859400  0.15262200  0.35327000  1
  Si  Si16  1  0.24140600  0.84737800  0.35327000  1
  Si  Si17  1  0.15262200  0.75859400  0.14673000  1
  Si  Si18  1  0.84737800  0.24140600  0.14673000  1
  Si  Si19  1  0.74140600  0.65262200  0.14673000  1
  W  W20  1  0.50000000  0.00000000  0.57395000  1
  W  W21  1  0.00000000  0.50000000  0.92605000  1
  W  W22  1  0.00000000  0.50000000  0.42605000  1
  W  W23  1  0.50000000  0.00000000  0.07395000  1
  O  O24  1  0.21834500  0.09146500  0.57540900  1
  O  O25  1  0.78165500  0.90853500  0.57540900  1
  O  O26  1  0.09146500  0.21834500  0.92459100  1
  O  O27  1  0.59146500  0.28165500  0.57540900  1
  O  O28  1  0.40853500  0.71834500  0.57540900  1
  O  O29  1  0.28165500  0.59146500  0.92459100  1
  O  O30  1  0.71834500  0.40853500  0.92459100  1
  O  O31  1  0.90853500  0.78165500  0.92459100  1
  O  O32  1  0.28165500  0.40853500  0.42459100  1
  O  O33  1  0.71834500  0.59146500  0.42459100  1
  O  O34  1  0.40853500  0.28165500  0.07540900  1
  O  O35  1  0.90853500  0.21834500  0.42459100  1
  O  O36  1  0.09146500  0.78165500  0.42459100  1
  O  O37  1  0.21834500  0.90853500  0.07540900  1
  O  O38  1  0.78165500  0.09146500  0.07540900  1
  O  O39  1  0.25595400  0.06327900  0.37123600  1
  O  O40  1  0.59146500  0.71834500  0.07540900  1
  O  O41  1  0.75595400  0.56327900  0.62876400  1
  O  O42  1  0.43672100  0.24404600  0.87123600  1
  O  O43  1  0.93672100  0.25595400  0.62876400  1
  O  O44  1  0.06327900  0.74404600  0.62876400  1
  O  O45  1  0.25595400  0.93672100  0.87123600  1
  O  O46  1  0.74404600  0.06327900  0.87123600  1
  O  O47  1  0.56327900  0.75595400  0.87123600  1
  O  O48  1  0.68844700  0.68844700  0.25000000  1
  O  O49  1  0.81155300  0.18844700  0.25000000  1
  O  O50  1  0.18844700  0.81155300  0.25000000  1
  O  O51  1  0.31155300  0.31155300  0.25000000  1
  O  O52  1  0.81155300  0.81155300  0.75000000  1
  O  O53  1  0.68844700  0.31155300  0.75000000  1
  O  O54  1  0.31155300  0.68844700  0.75000000  1
  O  O55  1  0.18844700  0.18844700  0.75000000  1
  O  O56  1  0.93672100  0.74404600  0.12876400  1
  O  O57  1  0.75595400  0.43672100  0.12876400  1
  O  O58  1  0.24404600  0.56327900  0.12876400  1
  O  O59  1  0.43672100  0.75595400  0.37123600  1
  O  O60  1  0.56327900  0.24404600  0.37123600  1
  O  O61  1  0.06327900  0.25595400  0.12876400  1
  O  O62  1  0.74404600  0.93672100  0.37123600  1
  O  O63  1  0.24404600  0.43672100  0.62876400  1
