# generated using pymatgen
data_ZnCu(Si2O5)2
_symmetry_space_group_name_H-M   'P 1'
_cell_length_a   7.25721900
_cell_length_b   7.25721900
_cell_length_c   14.95452400
_cell_angle_alpha   90.00000000
_cell_angle_beta   90.00000000
_cell_angle_gamma   90.00000000
_symmetry_Int_Tables_number   1
_chemical_formula_structural   ZnCu(Si2O5)2
_chemical_formula_sum   'Zn4 Cu4 Si16 O40'
_cell_volume   787.61331937
_cell_formula_units_Z   4
loop_
 _symmetry_equiv_pos_site_id
 _symmetry_equiv_pos_as_xyz
  1  'x, y, z'
loop_
 _atom_site_type_symbol
 _atom_site_label
 _atom_site_symmetry_multiplicity
 _atom_site_fract_x
 _atom_site_fract_y
 _atom_site_fract_z
 _atom_site_occupancy
  Zn  Zn0  1  0.50000000  0.50000000  0.50000000  1
  Zn  Zn1  1  0.00000000  0.00000000  0.50000000  1
  Zn  Zn2  1  0.00000000  0.00000000  0.00000000  1
  Zn  Zn3  1  0.50000000  0.50000000  0.00000000  1
  Cu  Cu4  1  0.50000000  0.00000000  0.57317800  1
  Cu  Cu5  1  0.00000000  0.50000000  0.92682200  1
  Cu  Cu6  1  0.00000000  0.50000000  0.42682200  1
  Cu  Cu7  1  0.50000000  0.00000000  0.07317800  1
  Si  Si8  1  0.16584600  0.24156600  0.64466100  1
  Si  Si9  1  0.83415400  0.75843400  0.64466100  1
  Si  Si10  1  0.24156600  0.16584600  0.85533900  1
  Si  Si11  1  0.74156600  0.33415400  0.64466100  1
  Si  Si12  1  0.25843400  0.66584600  0.64466100  1
  Si  Si13  1  0.33415400  0.74156600  0.85533900  1
  Si  Si14  1  0.66584600  0.25843400  0.85533900  1
  Si  Si15  1  0.75843400  0.83415400  0.85533900  1
  Si  Si16  1  0.33415400  0.25843400  0.35533900  1
  Si  Si17  1  0.66584600  0.74156600  0.35533900  1
  Si  Si18  1  0.25843400  0.33415400  0.14466100  1
  Si  Si19  1  0.75843400  0.16584600  0.35533900  1
  Si  Si20  1  0.24156600  0.83415400  0.35533900  1
  Si  Si21  1  0.16584600  0.75843400  0.14466100  1
  Si  Si22  1  0.83415400  0.24156600  0.14466100  1
  Si  Si23  1  0.74156600  0.66584600  0.14466100  1
  O  O24  1  0.23813700  0.08391100  0.57602700  1
  O  O25  1  0.76186300  0.91608900  0.57602700  1
  O  O26  1  0.08391100  0.23813700  0.92397300  1
  O  O27  1  0.58391100  0.26186300  0.57602700  1
  O  O28  1  0.41608900  0.73813700  0.57602700  1
  O  O29  1  0.26186300  0.58391100  0.92397300  1
  O  O30  1  0.73813700  0.41608900  0.92397300  1
  O  O31  1  0.91608900  0.76186300  0.92397300  1
  O  O32  1  0.26186300  0.41608900  0.42397300  1
  O  O33  1  0.73813700  0.58391100  0.42397300  1
  O  O34  1  0.41608900  0.26186300  0.07602700  1
  O  O35  1  0.91608900  0.23813700  0.42397300  1
  O  O36  1  0.08391100  0.76186300  0.42397300  1
  O  O37  1  0.23813700  0.91608900  0.07602700  1
  O  O38  1  0.76186300  0.08391100  0.07602700  1
  O  O39  1  0.24893200  0.05496100  0.37548700  1
  O  O40  1  0.58391100  0.73813700  0.07602700  1
  O  O41  1  0.74893200  0.55496100  0.62451300  1
  O  O42  1  0.44503900  0.25106800  0.87548700  1
  O  O43  1  0.94503900  0.24893200  0.62451300  1
  O  O44  1  0.05496100  0.75106800  0.62451300  1
  O  O45  1  0.24893200  0.94503900  0.87548700  1
  O  O46  1  0.75106800  0.05496100  0.87548700  1
  O  O47  1  0.55496100  0.74893200  0.87548700  1
  O  O48  1  0.69855700  0.69855700  0.25000000  1
  O  O49  1  0.80144300  0.19855700  0.25000000  1
  O  O50  1  0.19855700  0.80144300  0.25000000  1
  O  O51  1  0.30144300  0.30144300  0.25000000  1
  O  O52  1  0.80144300  0.80144300  0.75000000  1
  O  O53  1  0.69855700  0.30144300  0.75000000  1
  O  O54  1  0.30144300  0.69855700  0.75000000  1
  O  O55  1  0.19855700  0.19855700  0.75000000  1
  O  O56  1  0.94503900  0.75106800  0.12451300  1
  O  O57  1  0.74893200  0.44503900  0.12451300  1
  O  O58  1  0.25106800  0.55496100  0.12451300  1
  O  O59  1  0.44503900  0.74893200  0.37548700  1
  O  O60  1  0.55496100  0.25106800  0.37548700  1
  O  O61  1  0.05496100  0.24893200  0.12451300  1
  O  O62  1  0.75106800  0.94503900  0.37548700  1
  O  O63  1  0.25106800  0.44503900  0.62451300  1
