# generated using pymatgen
data_Li2V2(SiO3)3
_symmetry_space_group_name_H-M   'P 1'
_cell_length_a   10.12366400
_cell_length_b   10.12370369
_cell_length_c   12.46262700
_cell_angle_alpha   89.99964403
_cell_angle_beta   89.99985180
_cell_angle_gamma   119.99956505
_symmetry_Int_Tables_number   1
_chemical_formula_structural   Li2V2(SiO3)3
_chemical_formula_sum   'Li12 V12 Si18 O54'
_cell_volume   1106.16338809
_cell_formula_units_Z   6
loop_
 _symmetry_equiv_pos_site_id
 _symmetry_equiv_pos_as_xyz
  1  'x, y, z'
loop_
 _atom_site_type_symbol
 _atom_site_label
 _atom_site_symmetry_multiplicity
 _atom_site_fract_x
 _atom_site_fract_y
 _atom_site_fract_z
 _atom_site_occupancy
  Li  Li0  1  0.15658300  0.99949100  0.17061700  1
  Li  Li1  1  0.20686700  0.75785800  0.01337500  1
  Li  Li2  1  0.24216900  0.44898800  0.68006800  1
  Li  Li3  1  0.00049900  0.15708900  0.83729900  1
  Li  Li4  1  0.55094200  0.79311000  0.34671900  1
  Li  Li5  1  0.16447400  0.01232200  0.66952900  1
  Li  Li6  1  0.31019200  0.26799300  0.78211600  1
  Li  Li7  1  0.84288600  0.84339500  0.50397200  1
  Li  Li8  1  0.84781400  0.83555300  0.00285600  1
  Li  Li9  1  0.73201300  0.04217000  0.44880200  1
  Li  Li10  1  0.95780100  0.68984500  0.11546800  1
  Li  Li11  1  0.98770300  0.15213800  0.33620400  1
  V  V12  1  0.33369300  0.84715100  0.49135700  1
  V  V13  1  0.15283600  0.48654500  0.15804400  1
  V  V14  1  0.51345700  0.66630800  0.82471900  1
  V  V15  1  0.33383000  0.32645000  0.24553300  1
  V  V16  1  0.36851000  0.33419400  0.00300200  1
  V  V17  1  0.49996100  0.16163400  0.84416500  1
  V  V18  1  0.66172200  0.50004100  0.17750500  1
  V  V19  1  0.99258400  0.66611600  0.57884600  1
  V  V20  1  0.96566100  0.63147700  0.33632700  1
  V  V21  1  0.66580200  0.03432400  0.66965400  1
  V  V22  1  0.67357300  0.00739300  0.91219800  1
  V  V23  1  0.83837000  0.33833600  0.51082300  1
  Si  Si24  1  0.13558600  0.95173600  0.91852100  1
  Si  Si25  1  0.29500200  0.81804700  0.76946500  1
  Si  Si26  1  0.18563100  0.50110100  0.88597700  1
  Si  Si27  1  0.31544800  0.81435500  0.21929500  1
  Si  Si28  1  0.04826700  0.18387400  0.58520300  1
  Si  Si29  1  0.18196500  0.47696700  0.43611900  1
  Si  Si30  1  0.17980100  0.01924100  0.42998200  1
  Si  Si31  1  0.49891000  0.68455000  0.55264000  1
  Si  Si32  1  0.52302900  0.70499700  0.10280300  1
  Si  Si33  1  0.62009800  0.49398100  0.44829200  1
  Si  Si34  1  0.47358600  0.19966900  0.57854700  1
  Si  Si35  1  0.81612200  0.86438600  0.25188100  1
  Si  Si36  1  0.83943900  0.82019500  0.76331600  1
  Si  Si37  1  0.72608800  0.52642700  0.91187700  1
  Si  Si38  1  0.50603300  0.12611600  0.11496400  1
  Si  Si39  1  0.87388300  0.37990000  0.78162300  1
  Si  Si40  1  0.80034000  0.27392000  0.24523400  1
  Si  Si41  1  0.98077200  0.16056500  0.09663900  1
  O  O42  1  0.10357600  0.83265400  0.43835400  1
  O  O43  1  0.07425500  0.88552000  0.03674100  1
  O  O44  1  0.19704700  0.84007000  0.86786400  1
  O  O45  1  0.13228600  0.69207300  0.20939200  1
  O  O46  1  0.05671300  0.53144900  0.45213600  1
  O  O47  1  0.03321500  0.37770600  0.81744700  1
  O  O48  1  0.22104400  0.81046500  0.65227000  1
  O  O49  1  0.14731200  0.54904400  0.99823200  1
  O  O50  1  0.34449400  0.96678300  0.15076800  1
  O  O51  1  0.27972100  0.65265700  0.80457800  1
  O  O52  1  0.15997000  0.35700500  0.53453500  1
  O  O53  1  0.40165900  0.85263400  0.33156400  1
  O  O54  1  0.11450500  0.18876900  0.70342700  1
  O  O55  1  0.18955100  0.41057900  0.31892800  1
  O  O56  1  0.47473300  0.94328800  0.78547400  1
  O  O57  1  0.37291700  0.72027100  0.13789800  1
  O  O58  1  0.30794100  0.44024100  0.87609900  1
  O  O59  1  0.16736700  0.27094500  0.10502100  1
  O  O60  1  0.07806000  0.06329100  0.51239800  1
  O  O61  1  0.34735100  0.62706900  0.47124200  1
  O  O62  1  0.19385600  0.09789800  0.31533700  1
  O  O63  1  0.45096200  0.59831400  0.66490600  1
  O  O64  1  0.55977400  0.86771500  0.54274400  1
  O  O65  1  0.58945300  0.77897900  0.98562000  1
  O  O66  1  0.26991100  0.12712100  0.90437400  1
  O  O67  1  0.46856500  0.52527500  0.11881200  1
  O  O68  1  0.64299100  0.80296500  0.20121700  1
  O  O69  1  0.62227900  0.65549100  0.48411300  1
  O  O70  1  0.34524700  0.07103200  0.49134900  1
  O  O71  1  0.72907400  0.89640500  0.77167700  1
  O  O72  1  0.54713700  0.44479700  0.32969000  1
  O  O73  1  0.39099300  0.16614400  0.69446700  1
  O  O74  1  0.81127100  0.92573800  0.37011100  1
  O  O75  1  0.50868900  0.36691400  0.53618600  1
  O  O76  1  0.46709800  0.26405000  0.13102900  1
  O  O77  1  0.55649000  0.38126700  0.90155900  1
  O  O78  1  0.72578600  0.65474900  0.82467100  1
  O  O79  1  0.55523000  0.10234200  0.99636100  1
  O  O80  1  0.77515100  0.60900500  0.02779800  1
  O  O81  1  0.90401100  0.80612500  0.64866500  1
  O  O82  1  0.85720000  0.73006700  0.23769000  1
  O  O83  1  0.61872800  0.17521000  0.56821700  1
  O  O84  1  0.79696400  0.53292800  0.46435900  1
  O  O85  1  0.98524100  0.92195700  0.84570300  1
  O  O86  1  0.63309400  0.14176400  0.20286700  1
  O  O87  1  0.85822100  0.49130700  0.86951600  1
  O  O88  1  0.82479600  0.44352500  0.23489500  1
  O  O89  1  0.73595800  0.20303500  0.79769600  1
  O  O90  1  0.83387500  0.22481900  0.36114200  1
  O  O91  1  0.89765300  0.45285800  0.66301600  1
  O  O92  1  0.87287200  0.14279600  0.57104200  1
  O  O93  1  0.92896100  0.27421900  0.15800000  1
  O  O94  1  0.90210000  0.09595000  0.98199300  1
  O  O95  1  0.93671200  0.01477300  0.17907200  1
