# generated using pymatgen
data_AlBiSe4
_symmetry_space_group_name_H-M   'P 1'
_cell_length_a   7.34837300
_cell_length_b   7.34837300
_cell_length_c   12.27678100
_cell_angle_alpha   90.00000000
_cell_angle_beta   90.00000000
_cell_angle_gamma   90.00000000
_symmetry_Int_Tables_number   1
_chemical_formula_structural   AlBiSe4
_chemical_formula_sum   'Al4 Bi4 Se16'
_cell_volume   662.92881153
_cell_formula_units_Z   4
loop_
 _symmetry_equiv_pos_site_id
 _symmetry_equiv_pos_as_xyz
  1  'x, y, z'
loop_
 _atom_site_type_symbol
 _atom_site_label
 _atom_site_symmetry_multiplicity
 _atom_site_fract_x
 _atom_site_fract_y
 _atom_site_fract_z
 _atom_site_occupancy
  Al  Al0  1  0.50000000  0.50000000  0.75000000  1
  Al  Al1  1  0.00000000  0.00000000  0.00000000  1
  Al  Al2  1  0.00000000  0.00000000  0.50000000  1
  Al  Al3  1  0.50000000  0.50000000  0.25000000  1
  Bi  Bi4  1  0.50000000  0.00000000  0.54715100  1
  Bi  Bi5  1  0.00000000  0.50000000  0.45284900  1
  Bi  Bi6  1  0.00000000  0.50000000  0.04715100  1
  Bi  Bi7  1  0.50000000  0.00000000  0.95284900  1
  Se  Se8  1  0.81448900  0.22537700  0.60025500  1
  Se  Se9  1  0.77462300  0.18551100  0.10025500  1
  Se  Se10  1  0.27996900  0.28996800  0.16412300  1
  Se  Se11  1  0.18551100  0.77462300  0.60025500  1
  Se  Se12  1  0.77462300  0.81448900  0.39974500  1
  Se  Se13  1  0.71003200  0.27996900  0.83587700  1
  Se  Se14  1  0.81448900  0.77462300  0.89974500  1
  Se  Se15  1  0.28996800  0.27996900  0.66412300  1
  Se  Se16  1  0.28996800  0.72003100  0.83587700  1
  Se  Se17  1  0.22537700  0.18551100  0.39974500  1
  Se  Se18  1  0.71003200  0.72003100  0.66412300  1
  Se  Se19  1  0.22537700  0.81448900  0.10025500  1
  Se  Se20  1  0.72003100  0.71003200  0.16412300  1
  Se  Se21  1  0.27996900  0.71003200  0.33587700  1
  Se  Se22  1  0.72003100  0.28996800  0.33587700  1
  Se  Se23  1  0.18551100  0.22537700  0.89974500  1
