# generated using pymatgen
data_Ca8TiMn7O20
_symmetry_space_group_name_H-M   'P 1'
_cell_length_a   7.69712315
_cell_length_b   7.69712315
_cell_length_c   7.82243645
_cell_angle_alpha   89.81677831
_cell_angle_beta   89.81677831
_cell_angle_gamma   90.51531577
_symmetry_Int_Tables_number   1
_chemical_formula_structural   Ca8TiMn7O20
_chemical_formula_sum   'Ca8 Ti1 Mn7 O20'
_cell_volume   463.42223392
_cell_formula_units_Z   1
loop_
 _symmetry_equiv_pos_site_id
 _symmetry_equiv_pos_as_xyz
  1  'x, y, z'
loop_
 _atom_site_type_symbol
 _atom_site_label
 _atom_site_symmetry_multiplicity
 _atom_site_fract_x
 _atom_site_fract_y
 _atom_site_fract_z
 _atom_site_occupancy
  Ca  Ca0  1  0.24780400  0.24780400  0.24897700  1
  Ca  Ca1  1  0.24672900  0.24672900  0.71545700  1
  Ca  Ca2  1  0.23278000  0.74416500  0.27117100  1
  Ca  Ca3  1  0.26424800  0.71129700  0.73556200  1
  Ca  Ca4  1  0.74416500  0.23278000  0.27117100  1
  Ca  Ca5  1  0.71129700  0.26424800  0.73556200  1
  Ca  Ca6  1  0.75622200  0.75622200  0.30602900  1
  Ca  Ca7  1  0.72742900  0.72742900  0.74683400  1
  Ti  Ti8  1  0.98941000  0.98941000  0.03396800  1
  Mn  Mn9  1  0.99287900  0.99287900  0.53398700  1
  Mn  Mn10  1  0.00168000  0.49820900  0.00717100  1
  Mn  Mn11  1  0.99717600  0.48923400  0.51408000  1
  Mn  Mn12  1  0.49820900  0.00168000  0.00717100  1
  Mn  Mn13  1  0.48923400  0.99717600  0.51408000  1
  Mn  Mn14  1  0.49534600  0.49534600  0.99489300  1
  Mn  Mn15  1  0.48784700  0.48784700  0.48403200  1
  O  O16  1  0.98177600  0.98177600  0.80358300  1
  O  O17  1  0.98137300  0.74118100  0.11523000  1
  O  O18  1  0.05814200  0.48452200  0.76392200  1
  O  O19  1  0.74118100  0.98137300  0.11523000  1
  O  O20  1  0.48452200  0.05814200  0.76392200  1
  O  O21  1  0.46112900  0.46112900  0.73939700  1
  O  O22  1  0.23382500  0.98672200  0.09238600  1
  O  O23  1  0.24131900  0.99229700  0.49430800  1
  O  O24  1  0.25089900  0.50697900  0.07218100  1
  O  O25  1  0.24221800  0.49215900  0.44348600  1
  O  O26  1  0.74069500  0.99148700  0.50718700  1
  O  O27  1  0.75211300  0.49482800  0.94835900  1
  O  O28  1  0.74226600  0.49161900  0.48137800  1
  O  O29  1  0.98672200  0.23382500  0.09238600  1
  O  O30  1  0.99229700  0.24131900  0.49430800  1
  O  O31  1  0.99148700  0.74069500  0.50718700  1
  O  O32  1  0.50697900  0.25089900  0.07218100  1
  O  O33  1  0.49215900  0.24221800  0.44348600  1
  O  O34  1  0.49482800  0.75211300  0.94835900  1
  O  O35  1  0.49161900  0.74226600  0.48137800  1
