# generated using pymatgen
data_Sb3N5
_symmetry_space_group_name_H-M   'P 1'
_cell_length_a   4.04700200
_cell_length_b   10.64988900
_cell_length_c   10.46025700
_cell_angle_alpha   90.00000000
_cell_angle_beta   90.00000000
_cell_angle_gamma   90.00000000
_symmetry_Int_Tables_number   1
_chemical_formula_structural   Sb3N5
_chemical_formula_sum   'Sb12 N20'
_cell_volume   450.83835372
_cell_formula_units_Z   4
loop_
 _symmetry_equiv_pos_site_id
 _symmetry_equiv_pos_as_xyz
  1  'x, y, z'
loop_
 _atom_site_type_symbol
 _atom_site_label
 _atom_site_symmetry_multiplicity
 _atom_site_fract_x
 _atom_site_fract_y
 _atom_site_fract_z
 _atom_site_occupancy
  Sb  Sb0  1  0.00000000  0.81686600  0.25000000  1
  Sb  Sb1  1  0.00000000  0.18313400  0.75000000  1
  Sb  Sb2  1  0.50000000  0.31686600  0.25000000  1
  Sb  Sb3  1  0.50000000  0.68313400  0.75000000  1
  Sb  Sb4  1  0.00000000  0.13612300  0.43612100  1
  Sb  Sb5  1  0.00000000  0.86387700  0.56387900  1
  Sb  Sb6  1  0.00000000  0.13612300  0.06387900  1
  Sb  Sb7  1  0.00000000  0.86387700  0.93612100  1
  Sb  Sb8  1  0.50000000  0.63612300  0.43612100  1
  Sb  Sb9  1  0.50000000  0.36387700  0.56387900  1
  Sb  Sb10  1  0.50000000  0.63612300  0.06387900  1
  Sb  Sb11  1  0.50000000  0.36387700  0.93612100  1
  N  N12  1  0.00000000  0.24029600  0.25000000  1
  N  N13  1  0.00000000  0.75970400  0.75000000  1
  N  N14  1  0.50000000  0.74029600  0.25000000  1
  N  N15  1  0.50000000  0.25970400  0.75000000  1
  N  N16  1  0.00000000  0.95039600  0.38732300  1
  N  N17  1  0.00000000  0.04960400  0.61267700  1
  N  N18  1  0.00000000  0.95039600  0.11267700  1
  N  N19  1  0.00000000  0.04960400  0.88732300  1
  N  N20  1  0.50000000  0.45039600  0.38732300  1
  N  N21  1  0.50000000  0.54960400  0.61267700  1
  N  N22  1  0.50000000  0.45039600  0.11267700  1
  N  N23  1  0.50000000  0.54960400  0.88732300  1
  N  N24  1  0.00000000  0.69762200  0.42564200  1
  N  N25  1  0.00000000  0.30237800  0.57435800  1
  N  N26  1  0.00000000  0.69762200  0.07435800  1
  N  N27  1  0.00000000  0.30237800  0.92564200  1
  N  N28  1  0.50000000  0.19762200  0.42564200  1
  N  N29  1  0.50000000  0.80237800  0.57435800  1
  N  N30  1  0.50000000  0.19762200  0.07435800  1
  N  N31  1  0.50000000  0.80237800  0.92564200  1
