# generated using pymatgen
data_SbN
_symmetry_space_group_name_H-M   'P 1'
_cell_length_a   5.57742000
_cell_length_b   6.06792000
_cell_length_c   5.15814000
_cell_angle_alpha   90.00000000
_cell_angle_beta   90.00000000
_cell_angle_gamma   90.00000000
_symmetry_Int_Tables_number   1
_chemical_formula_structural   SbN
_chemical_formula_sum   'Sb4 N4'
_cell_volume   174.56867736
_cell_formula_units_Z   4
loop_
 _symmetry_equiv_pos_site_id
 _symmetry_equiv_pos_as_xyz
  1  'x, y, z'
loop_
 _atom_site_type_symbol
 _atom_site_label
 _atom_site_symmetry_multiplicity
 _atom_site_fract_x
 _atom_site_fract_y
 _atom_site_fract_z
 _atom_site_occupancy
  Sb  Sb0  1  0.54387000  0.80566000  0.17361000  1
  Sb  Sb1  1  0.45613000  0.19434000  0.67361000  1
  Sb  Sb2  1  0.95613000  0.80566000  0.67361000  1
  Sb  Sb3  1  0.04387000  0.19434000  0.17361000  1
  N  N4  1  0.60944000  0.89242000  0.55951000  1
  N  N5  1  0.39056000  0.10758000  0.05951000  1
  N  N6  1  0.89056000  0.89242000  0.05951000  1
  N  N7  1  0.10944000  0.10758000  0.55951000  1
