# generated using pymatgen
data_Zr3Pd4
_symmetry_space_group_name_H-M   'P 1'
_cell_length_a   7.54534139
_cell_length_b   7.54534139
_cell_length_c   7.54534196
_cell_angle_alpha   114.09079942
_cell_angle_beta   114.09079942
_cell_angle_gamma   114.09079897
_symmetry_Int_Tables_number   1
_chemical_formula_structural   Zr3Pd4
_chemical_formula_sum   'Zr6 Pd8'
_cell_volume   259.22123299
_cell_formula_units_Z   2
loop_
 _symmetry_equiv_pos_site_id
 _symmetry_equiv_pos_as_xyz
  1  'x, y, z'
loop_
 _atom_site_type_symbol
 _atom_site_label
 _atom_site_symmetry_multiplicity
 _atom_site_fract_x
 _atom_site_fract_y
 _atom_site_fract_z
 _atom_site_occupancy
  Zr  Zr0  1  0.39673400  0.26540200  0.00465700  1
  Zr  Zr1  1  0.00465700  0.39673400  0.26540200  1
  Zr  Zr2  1  0.26540200  0.00465700  0.39673400  1
  Zr  Zr3  1  0.60326600  0.73459800  0.99534300  1
  Zr  Zr4  1  0.99534300  0.60326600  0.73459800  1
  Zr  Zr5  1  0.73459800  0.99534300  0.60326600  1
  Pd  Pd6  1  0.00000000  0.00000000  0.00000000  1
  Pd  Pd7  1  0.50000000  0.50000000  0.50000000  1
  Pd  Pd8  1  0.92270600  0.76194700  0.44055300  1
  Pd  Pd9  1  0.44055300  0.92270600  0.76194700  1
  Pd  Pd10  1  0.76194700  0.44055300  0.92270600  1
  Pd  Pd11  1  0.07729400  0.23805300  0.55944700  1
  Pd  Pd12  1  0.55944700  0.07729400  0.23805300  1
  Pd  Pd13  1  0.23805300  0.55944700  0.07729400  1
