# generated using pymatgen
data_TiVO4
_symmetry_space_group_name_H-M   'P 1'
_cell_length_a   3.87174413
_cell_length_b   7.63167004
_cell_length_c   10.45195010
_cell_angle_alpha   70.75707859
_cell_angle_beta   89.98902761
_cell_angle_gamma   75.29651992
_symmetry_Int_Tables_number   1
_chemical_formula_structural   TiVO4
_chemical_formula_sum   'Ti4 V4 O16'
_cell_volume   280.84953343
_cell_formula_units_Z   4
loop_
 _symmetry_equiv_pos_site_id
 _symmetry_equiv_pos_as_xyz
  1  'x, y, z'
loop_
 _atom_site_type_symbol
 _atom_site_label
 _atom_site_symmetry_multiplicity
 _atom_site_fract_x
 _atom_site_fract_y
 _atom_site_fract_z
 _atom_site_occupancy
  Ti  Ti0  1  0.05759300  0.88476300  0.31562500  1
  Ti  Ti1  1  0.30742700  0.38502000  0.56534300  1
  Ti  Ti2  1  0.55770600  0.88467100  0.81525500  1
  Ti  Ti3  1  0.80797500  0.38420000  0.06537900  1
  V  V4  1  0.50818000  0.98377100  0.50382700  1
  V  V5  1  0.75794500  0.48363000  0.75384200  1
  V  V6  1  0.00867900  0.98299300  0.00367400  1
  V  V7  1  0.25825900  0.48331400  0.25370700  1
  O  O8  1  0.00887500  0.98275700  0.46446000  1
  O  O9  1  0.25832900  0.48262600  0.71466000  1
  O  O10  1  0.50902400  0.98244200  0.96420700  1
  O  O11  1  0.75882000  0.48196600  0.21484700  1
  O  O12  1  0.11600300  0.76986600  0.15246600  1
  O  O13  1  0.36399400  0.27054600  0.40267500  1
  O  O14  1  0.61547500  0.77055700  0.65275300  1
  O  O15  1  0.86343400  0.27044300  0.90270400  1
  O  O16  1  0.80039900  0.39940300  0.59759300  1
  O  O17  1  0.05107300  0.89784300  0.84750100  1
  O  O18  1  0.30127700  0.39812500  0.09768800  1
  O  O19  1  0.55017400  0.89897800  0.34797900  1
  O  O20  1  0.69697300  0.60533500  0.90372000  1
  O  O21  1  0.94824800  0.10502800  0.15322400  1
  O  O22  1  0.19695000  0.60573400  0.40349800  1
  O  O23  1  0.44718800  0.10598900  0.65337300  1
