# generated using pymatgen
data_CoF3
_symmetry_space_group_name_H-M   'P 1'
_cell_length_a   3.87391904
_cell_length_b   8.59100931
_cell_length_c   7.64822918
_cell_angle_alpha   116.49771880
_cell_angle_beta   89.86147639
_cell_angle_gamma   90.29682384
_symmetry_Int_Tables_number   1
_chemical_formula_structural   CoF3
_chemical_formula_sum   'Co4 F12'
_cell_volume   227.79783726
_cell_formula_units_Z   4
loop_
 _symmetry_equiv_pos_site_id
 _symmetry_equiv_pos_as_xyz
  1  'x, y, z'
loop_
 _atom_site_type_symbol
 _atom_site_label
 _atom_site_symmetry_multiplicity
 _atom_site_fract_x
 _atom_site_fract_y
 _atom_site_fract_z
 _atom_site_occupancy
  Co  Co0  1  0.99962600  0.00007200  0.49995500  1
  Co  Co1  1  0.00037000  0.49992300  0.75003500  1
  Co  Co2  1  0.99881300  0.99947200  0.99972200  1
  Co  Co3  1  0.00121000  0.50051600  0.25026600  1
  F  F4  1  0.49976600  0.00759300  0.00397200  1
  F  F5  1  0.50023600  0.49243500  0.24604600  1
  F  F6  1  0.49967000  0.98962200  0.49460900  1
  F  F7  1  0.50033100  0.51036200  0.75538400  1
  F  F8  1  0.99997400  0.24999900  0.62501500  1
  F  F9  1  0.00192500  0.76042300  0.88021900  1
  F  F10  1  0.00002100  0.25001500  0.12503200  1
  F  F11  1  0.99805300  0.73957300  0.36975600  1
  F  F12  1  0.99922300  0.50242500  0.50762200  1
  F  F13  1  0.00078200  0.99763700  0.74240800  1
  F  F14  1  0.00128100  0.50252700  0.99489900  1
  F  F15  1  0.99872000  0.99740500  0.25506100  1
