# generated using pymatgen
data_Ta2CrO6
_symmetry_space_group_name_H-M   'P 1'
_cell_length_a   4.82659198
_cell_length_b   10.56965996
_cell_length_c   9.65687151
_cell_angle_alpha   62.26545908
_cell_angle_beta   89.47629687
_cell_angle_gamma   88.87549875
_symmetry_Int_Tables_number   1
_chemical_formula_structural   Ta2CrO6
_chemical_formula_sum   'Ta8 Cr4 O24'
_cell_volume   435.96662236
_cell_formula_units_Z   4
loop_
 _symmetry_equiv_pos_site_id
 _symmetry_equiv_pos_as_xyz
  1  'x, y, z'
loop_
 _atom_site_type_symbol
 _atom_site_label
 _atom_site_symmetry_multiplicity
 _atom_site_fract_x
 _atom_site_fract_y
 _atom_site_fract_z
 _atom_site_occupancy
  Ta  Ta0  1  0.50586200  0.16616500  0.17048200  1
  Ta  Ta1  1  0.49950100  0.17098200  0.66706500  1
  Ta  Ta2  1  0.99769200  0.66810000  0.16194300  1
  Ta  Ta3  1  0.00336700  0.66741100  0.66604300  1
  Ta  Ta4  1  0.49414700  0.83381300  0.82957200  1
  Ta  Ta5  1  0.50053200  0.82897500  0.33286800  1
  Ta  Ta6  1  0.99652300  0.33266100  0.33389400  1
  Ta  Ta7  1  0.00247000  0.33197300  0.83809500  1
  Cr  Cr8  1  0.49990600  0.49993700  0.00010700  1
  Cr  Cr9  1  0.00015700  0.00002000  0.50005400  1
  Cr  Cr10  1  0.49982200  0.49980700  0.50018300  1
  Cr  Cr11  1  0.99938800  0.00019200  0.99979300  1
  O  O12  1  0.31196900  0.99786000  0.34289800  1
  O  O13  1  0.31374700  0.00176600  0.84428200  1
  O  O14  1  0.19456500  0.50225000  0.84616000  1
  O  O15  1  0.17464000  0.49905000  0.33735000  1
  O  O16  1  0.80554700  0.49772900  0.15381000  1
  O  O17  1  0.82550800  0.50093900  0.66264800  1
  O  O18  1  0.68602500  0.99822800  0.15564000  1
  O  O19  1  0.68828800  0.00211400  0.65719700  1
  O  O20  1  0.29082900  0.30923600  0.20524400  1
  O  O21  1  0.30683300  0.32758200  0.69244300  1
  O  O22  1  0.20363700  0.82580800  0.68448800  1
  O  O23  1  0.19298100  0.82041100  0.18685600  1
  O  O24  1  0.77638700  0.81049500  0.98712000  1
  O  O25  1  0.78968300  0.81148900  0.48100200  1
  O  O26  1  0.79658500  0.17414500  0.31551300  1
  O  O27  1  0.80681000  0.17975400  0.81299200  1
  O  O28  1  0.22365500  0.18947200  0.01293300  1
  O  O29  1  0.21044700  0.18855300  0.51889400  1
  O  O30  1  0.71338800  0.32186100  0.99261000  1
  O  O31  1  0.70516200  0.32212300  0.49072000  1
  O  O32  1  0.28672800  0.67806800  0.00747200  1
  O  O33  1  0.29481100  0.67793600  0.50922000  1
  O  O34  1  0.70928000  0.69076400  0.79478000  1
  O  O35  1  0.69312900  0.67232900  0.30762800  1
