# generated using pymatgen
data_FeMoClO4
_symmetry_space_group_name_H-M   'P 1'
_cell_length_a   5.54171362
_cell_length_b   6.75098197
_cell_length_c   6.75053021
_cell_angle_alpha   90.06780495
_cell_angle_beta   89.99843568
_cell_angle_gamma   89.94490051
_symmetry_Int_Tables_number   1
_chemical_formula_structural   FeMoClO4
_chemical_formula_sum   'Fe2 Mo2 Cl2 O8'
_cell_volume   252.55060111
_cell_formula_units_Z   2
loop_
 _symmetry_equiv_pos_site_id
 _symmetry_equiv_pos_as_xyz
  1  'x, y, z'
loop_
 _atom_site_type_symbol
 _atom_site_label
 _atom_site_symmetry_multiplicity
 _atom_site_fract_x
 _atom_site_fract_y
 _atom_site_fract_z
 _atom_site_occupancy
  Fe  Fe0  1  0.26752500  0.24982700  0.25000700  1
  Fe  Fe1  1  0.75259400  0.75138000  0.74916500  1
  Mo  Mo2  1  0.99507300  0.25041300  0.75012300  1
  Mo  Mo3  1  0.99526700  0.74983300  0.24971700  1
  Cl  Cl4  1  0.67011400  0.24978200  0.25007400  1
  Cl  Cl5  1  0.34438100  0.74924600  0.75052800  1
  O  O6  1  0.18527300  0.96442200  0.25012600  1
  O  O7  1  0.18569500  0.53550000  0.24996400  1
  O  O8  1  0.18506500  0.25025300  0.53555600  1
  O  O9  1  0.18532300  0.24958200  0.96441700  1
  O  O10  1  0.80805300  0.74954000  0.46721700  1
  O  O11  1  0.80791000  0.03293800  0.75024500  1
  O  O12  1  0.80894400  0.74921800  0.03220300  1
  O  O13  1  0.80878300  0.46806500  0.75065800  1
