# generated using pymatgen
data_Ca2CrWO6
_symmetry_space_group_name_H-M   'P 1'
_cell_length_a   5.51915699
_cell_length_b   9.65350357
_cell_length_c   5.50995294
_cell_angle_alpha   90.50000262
_cell_angle_beta   119.63804372
_cell_angle_gamma   73.10422818
_symmetry_Int_Tables_number   1
_chemical_formula_structural   Ca2CrWO6
_chemical_formula_sum   'Ca4 Cr2 W2 O12'
_cell_volume   240.90590671
_cell_formula_units_Z   2
loop_
 _symmetry_equiv_pos_site_id
 _symmetry_equiv_pos_as_xyz
  1  'x, y, z'
loop_
 _atom_site_type_symbol
 _atom_site_label
 _atom_site_symmetry_multiplicity
 _atom_site_fract_x
 _atom_site_fract_y
 _atom_site_fract_z
 _atom_site_occupancy
  Ca  Ca0  1  0.77037400  0.86568000  0.37152200  1
  Ca  Ca1  1  0.76973100  0.36754300  0.86964100  1
  Ca  Ca2  1  0.26420400  0.61897300  0.14997100  1
  Ca  Ca3  1  0.26479400  0.11730600  0.65069300  1
  Cr  Cr4  1  0.51788000  0.74196400  0.76063400  1
  Cr  Cr5  1  0.51845900  0.24188900  0.26082100  1
  W  W6  1  0.01806300  0.99221900  0.01045900  1
  W  W7  1  0.01824000  0.49178500  0.51121800  1
  O  O8  1  0.26676800  0.61798800  0.73035900  1
  O  O9  1  0.27224600  0.11522500  0.23627700  1
  O  O10  1  0.77005500  0.86565500  0.79204300  1
  O  O11  1  0.76713500  0.36747900  0.28640300  1
  O  O12  1  0.81025600  0.64725900  0.16619100  1
  O  O13  1  0.81492200  0.14937900  0.66824600  1
  O  O14  1  0.22487000  0.83663800  0.35626300  1
  O  O15  1  0.22218800  0.33513500  0.85335200  1
  O  O16  1  0.72150300  0.08707500  0.11234100  1
  O  O17  1  0.72279900  0.58781600  0.61447100  1
  O  O18  1  0.31575300  0.39694900  0.40914300  1
  O  O19  1  0.31248400  0.89649200  0.90661700  1
