# generated using pymatgen
data_Cr2CuO4
_symmetry_space_group_name_H-M   'P 1'
_cell_length_a   5.91927775
_cell_length_b   5.91922777
_cell_length_c   6.09446206
_cell_angle_alpha   59.01172484
_cell_angle_beta   59.01126055
_cell_angle_gamma   87.22231575
_symmetry_Int_Tables_number   1
_chemical_formula_structural   Cr2CuO4
_chemical_formula_sum   'Cr4 Cu2 O8'
_cell_volume   149.95724219
_cell_formula_units_Z   2
loop_
 _symmetry_equiv_pos_site_id
 _symmetry_equiv_pos_as_xyz
  1  'x, y, z'
loop_
 _atom_site_type_symbol
 _atom_site_label
 _atom_site_symmetry_multiplicity
 _atom_site_fract_x
 _atom_site_fract_y
 _atom_site_fract_z
 _atom_site_occupancy
  Cr  Cr0  1  0.62499200  0.87499700  0.75000300  1
  Cr  Cr1  1  0.12499800  0.37500800  0.25000100  1
  Cr  Cr2  1  0.62501900  0.37501900  0.24997800  1
  Cr  Cr3  1  0.62497700  0.37499000  0.75002300  1
  Cu  Cu4  1  0.25333000  0.74666400  0.50001100  1
  Cu  Cu5  1  0.99678400  0.00324300  0.99997800  1
  O  O6  1  0.39864800  0.15891700  0.22119200  1
  O  O7  1  0.37742200  0.62250200  0.78058700  1
  O  O8  1  0.87251100  0.12753300  0.71942300  1
  O  O9  1  0.85128900  0.59101200  0.27889700  1
  O  O10  1  0.84107800  0.60134800  0.77881100  1
  O  O11  1  0.37749400  0.62257400  0.21942000  1
  O  O12  1  0.87246400  0.12748300  0.28057600  1
  O  O13  1  0.40899400  0.14871100  0.72109900  1
