# generated using pymatgen
data_Ca2MnWO6
_symmetry_space_group_name_H-M   'P 1'
_cell_length_a   5.62075850
_cell_length_b   5.72751211
_cell_length_c   9.73754029
_cell_angle_alpha   106.48996845
_cell_angle_beta   90.02798005
_cell_angle_gamma   60.64733058
_symmetry_Int_Tables_number   1
_chemical_formula_structural   Ca2MnWO6
_chemical_formula_sum   'Ca4 Mn2 W2 O12'
_cell_volume   258.36670505
_cell_formula_units_Z   2
loop_
 _symmetry_equiv_pos_site_id
 _symmetry_equiv_pos_as_xyz
  1  'x, y, z'
loop_
 _atom_site_type_symbol
 _atom_site_label
 _atom_site_symmetry_multiplicity
 _atom_site_fract_x
 _atom_site_fract_y
 _atom_site_fract_z
 _atom_site_occupancy
  Ca  Ca0  1  0.60006600  0.81568100  0.13965600  1
  Ca  Ca1  1  0.10024500  0.81517200  0.63950900  1
  Ca  Ca2  1  0.35242400  0.31118100  0.88867600  1
  Ca  Ca3  1  0.85235800  0.31129200  0.38874800  1
  Mn  Mn4  1  0.25753100  0.50078800  0.25371800  1
  Mn  Mn5  1  0.75758300  0.50055900  0.75376500  1
  W  W6  1  0.51831900  0.97894900  0.50001100  1
  W  W7  1  0.01835600  0.97895800  0.00001500  1
  O  O8  1  0.69817900  0.19321700  0.56997700  1
  O  O9  1  0.19808500  0.19336700  0.06993400  1
  O  O10  1  0.37598100  0.71668700  0.43054400  1
  O  O11  1  0.87597900  0.71669400  0.93059100  1
  O  O12  1  0.31978200  0.19219800  0.37458600  1
  O  O13  1  0.81985200  0.19198100  0.87445800  1
  O  O14  1  0.21607400  0.19377300  0.66179900  1
  O  O15  1  0.71612700  0.19386700  0.16182100  1
  O  O16  1  0.82542800  0.71675000  0.33278000  1
  O  O17  1  0.32546000  0.71671100  0.83270100  1
  O  O18  1  0.74692300  0.71719900  0.60634100  1
  O  O19  1  0.24700900  0.71733800  0.10634300  1
