# generated using pymatgen
data_VO2
_symmetry_space_group_name_H-M   'P 1'
_cell_length_a   5.01533861
_cell_length_b   9.14980050
_cell_length_c   5.02192408
_cell_angle_alpha   92.40569204
_cell_angle_beta   111.68548473
_cell_angle_gamma   91.20200040
_symmetry_Int_Tables_number   1
_chemical_formula_structural   VO2
_chemical_formula_sum   'V6 O12'
_cell_volume   213.78877097
_cell_formula_units_Z   6
loop_
 _symmetry_equiv_pos_site_id
 _symmetry_equiv_pos_as_xyz
  1  'x, y, z'
loop_
 _atom_site_type_symbol
 _atom_site_label
 _atom_site_symmetry_multiplicity
 _atom_site_fract_x
 _atom_site_fract_y
 _atom_site_fract_z
 _atom_site_occupancy
  V  V0  1  0.42980000  0.23979200  0.06473200  1
  V  V1  1  0.92598200  0.76177000  0.56760600  1
  V  V2  1  0.07479200  0.26026200  0.44667400  1
  V  V3  1  0.55310400  0.73789300  0.92850500  1
  V  V4  1  0.49886300  0.49983100  0.50016800  1
  V  V5  1  0.99668900  0.99944600  0.00725600  1
  O  O6  1  0.29258200  0.11957200  0.30930300  1
  O  O7  1  0.79709100  0.61051700  0.78645400  1
  O  O8  1  0.21445800  0.38910200  0.20037300  1
  O  O9  1  0.68281500  0.88011700  0.71488100  1
  O  O10  1  0.10364900  0.14255500  0.77502500  1
  O  O11  1  0.58837800  0.64270300  0.24859600  1
  O  O12  1  0.74678400  0.13727900  0.08885200  1
  O  O13  1  0.25996500  0.64148600  0.60780600  1
  O  O14  1  0.39613400  0.35894500  0.73691900  1
  O  O15  1  0.90548500  0.85948000  0.25968200  1
  O  O16  1  0.75425700  0.35765800  0.40851600  1
  O  O17  1  0.22167600  0.86159200  0.90614900  1
