# generated using pymatgen
data_CaLa2CoO6
_symmetry_space_group_name_H-M   'P 1'
_cell_length_a   5.84545619
_cell_length_b   10.07314090
_cell_length_c   9.58031828
_cell_angle_alpha   80.00073783
_cell_angle_beta   72.61207624
_cell_angle_gamma   90.05660248
_symmetry_Int_Tables_number   1
_chemical_formula_structural   CaLa2CoO6
_chemical_formula_sum   'Ca4 La8 Co4 O24'
_cell_volume   529.31432834
_cell_formula_units_Z   4
loop_
 _symmetry_equiv_pos_site_id
 _symmetry_equiv_pos_as_xyz
  1  'x, y, z'
loop_
 _atom_site_type_symbol
 _atom_site_label
 _atom_site_symmetry_multiplicity
 _atom_site_fract_x
 _atom_site_fract_y
 _atom_site_fract_z
 _atom_site_occupancy
  Ca  Ca0  1  0.12141600  0.37546000  0.75137800  1
  Ca  Ca1  1  0.87571700  0.62533900  0.24970600  1
  Ca  Ca2  1  0.37863700  0.12445200  0.24841900  1
  Ca  Ca3  1  0.62427900  0.87469300  0.75052400  1
  La  La4  1  0.93204400  0.30940500  0.13927400  1
  La  La5  1  0.67628300  0.56130800  0.64076800  1
  La  La6  1  0.17702900  0.06051100  0.64191500  1
  La  La7  1  0.42923100  0.80919500  0.14081400  1
  La  La8  1  0.32368200  0.43955400  0.35803500  1
  La  La9  1  0.07104400  0.69066400  0.85940900  1
  La  La10  1  0.56767100  0.19060400  0.86060700  1
  La  La11  1  0.82309100  0.93856200  0.35922300  1
  Co  Co12  1  0.50056300  0.50008200  0.99971000  1
  Co  Co13  1  0.24982200  0.74997900  0.50011900  1
  Co  Co14  1  0.75014400  0.25003100  0.49996200  1
  Co  Co15  1  0.99936400  0.99991500  0.00021700  1
  O  O16  1  0.40939400  0.25660200  0.62617600  1
  O  O17  1  0.17690200  0.50849200  0.12105300  1
  O  O18  1  0.67715200  0.00666200  0.12210600  1
  O  O19  1  0.92495700  0.75843200  0.62193600  1
  O  O20  1  0.85757700  0.34755300  0.62465400  1
  O  O21  1  0.61295500  0.59744800  0.12330600  1
  O  O22  1  0.11355800  0.09721900  0.12223800  1
  O  O23  1  0.36201600  0.84677200  0.62300700  1
  O  O24  1  0.27691400  0.58381600  0.62312000  1
  O  O25  1  0.02886700  0.83303200  0.12264000  1
  O  O26  1  0.53298900  0.33355900  0.12032500  1
  O  O27  1  0.77805800  0.08284400  0.62205500  1
  O  O28  1  0.82188000  0.49272600  0.87878800  1
  O  O29  1  0.57480100  0.74126700  0.37871600  1
  O  O30  1  0.09073300  0.24376700  0.37293600  1
  O  O31  1  0.32408900  0.99228800  0.87785800  1
  O  O32  1  0.96743500  0.16677000  0.87979100  1
  O  O33  1  0.72261000  0.41712900  0.37782400  1
  O  O34  1  0.22245300  0.91629200  0.37709700  1
  O  O35  1  0.47061600  0.66674700  0.87736400  1
  O  O36  1  0.38660400  0.40265700  0.87683600  1
  O  O37  1  0.13794100  0.65324500  0.37716300  1
  O  O38  1  0.64255900  0.15240800  0.37517400  1
  O  O39  1  0.88692300  0.90251900  0.87775300  1
