# generated using pymatgen
data_CaMn3V4O12
_symmetry_space_group_name_H-M   'P 1'
_cell_length_a   7.51224101
_cell_length_b   7.55504637
_cell_length_c   7.56115615
_cell_angle_alpha   90.13773474
_cell_angle_beta   90.22529710
_cell_angle_gamma   90.06505764
_symmetry_Int_Tables_number   1
_chemical_formula_structural   CaMn3V4O12
_chemical_formula_sum   'Ca2 Mn6 V8 O24'
_cell_volume   429.13106714
_cell_formula_units_Z   2
loop_
 _symmetry_equiv_pos_site_id
 _symmetry_equiv_pos_as_xyz
  1  'x, y, z'
loop_
 _atom_site_type_symbol
 _atom_site_label
 _atom_site_symmetry_multiplicity
 _atom_site_fract_x
 _atom_site_fract_y
 _atom_site_fract_z
 _atom_site_occupancy
  Ca  Ca0  1  0.99927200  0.00001400  0.99929500  1
  Ca  Ca1  1  0.50071800  0.50005300  0.50051800  1
  Mn  Mn2  1  0.49131300  0.00013200  0.49952500  1
  Mn  Mn3  1  0.99863800  0.00073400  0.49970100  1
  Mn  Mn4  1  0.50164900  0.49885000  0.99988200  1
  Mn  Mn5  1  0.50007600  0.99982400  0.99812400  1
  Mn  Mn6  1  0.99989900  0.50017700  0.50065600  1
  Mn  Mn7  1  0.00526400  0.50016200  0.00091400  1
  V  V8  1  0.25016600  0.25029700  0.24993600  1
  V  V9  1  0.74996500  0.74983700  0.74989100  1
  V  V10  1  0.25015500  0.74981900  0.74999800  1
  V  V11  1  0.74980600  0.24992100  0.25000100  1
  V  V12  1  0.75044800  0.25005900  0.75009900  1
  V  V13  1  0.24979700  0.74970800  0.24963200  1
  V  V14  1  0.25047600  0.24998600  0.75023600  1
  V  V15  1  0.74916300  0.75040400  0.24998500  1
  O  O16  1  0.20211400  0.31142300  0.50047600  1
  O  O17  1  0.70143500  0.81011000  0.00019800  1
  O  O18  1  0.70320300  0.19550400  0.00849200  1
  O  O19  1  0.20403100  0.69383400  0.50879600  1
  O  O20  1  0.79771100  0.30416400  0.49169600  1
  O  O21  1  0.29529800  0.80598600  0.99123000  1
  O  O22  1  0.29788900  0.18871100  0.99969100  1
  O  O23  1  0.79862100  0.68985800  0.49968100  1
  O  O24  1  0.50737200  0.20665700  0.69321900  1
  O  O25  1  0.00815000  0.70642400  0.19243500  1
  O  O26  1  0.99526200  0.70474600  0.81129000  1
  O  O27  1  0.49584100  0.20816500  0.31119300  1
  O  O28  1  0.50435900  0.79365700  0.68939500  1
  O  O29  1  0.00494600  0.29310600  0.18824000  1
  O  O30  1  0.99202500  0.29478700  0.80902700  1
  O  O31  1  0.49261100  0.79278800  0.30666800  1
  O  O32  1  0.30173800  0.49228300  0.79556300  1
  O  O33  1  0.80293100  0.99213500  0.29222800  1
  O  O34  1  0.19199700  0.99967400  0.29966700  1
  O  O35  1  0.68859000  0.49948600  0.79535700  1
  O  O36  1  0.30933800  0.50047300  0.20073900  1
  O  O37  1  0.81177900  0.00033800  0.70466100  1
  O  O38  1  0.19773300  0.00802400  0.70528700  1
  O  O39  1  0.69821900  0.50768800  0.20637800  1
