# generated using pymatgen
data_BaLaMnRuO6
_symmetry_space_group_name_H-M   'P 1'
_cell_length_a   5.73182678
_cell_length_b   5.73182487
_cell_length_c   5.77696591
_cell_angle_alpha   60.39018290
_cell_angle_beta   89.45848978
_cell_angle_gamma   119.50466778
_symmetry_Int_Tables_number   1
_chemical_formula_structural   BaLaMnRuO6
_chemical_formula_sum   'Ba1 La1 Mn1 Ru1 O6'
_cell_volume   135.35949054
_cell_formula_units_Z   1
loop_
 _symmetry_equiv_pos_site_id
 _symmetry_equiv_pos_as_xyz
  1  'x, y, z'
loop_
 _atom_site_type_symbol
 _atom_site_label
 _atom_site_symmetry_multiplicity
 _atom_site_fract_x
 _atom_site_fract_y
 _atom_site_fract_z
 _atom_site_occupancy
  Ba  Ba0  1  0.25092700  0.99958300  0.74948800  1
  La  La1  1  0.75068000  0.98148800  0.26783300  1
  Mn  Mn2  1  0.50266600  0.49600700  0.00132800  1
  Ru  Ru3  1  0.00099500  0.49995600  0.49904900  1
  O  O4  1  0.23987100  0.54830000  0.21183000  1
  O  O5  1  0.76122700  0.40278900  0.83598300  1
  O  O6  1  0.73058900  0.52955400  0.28672600  1
  O  O7  1  0.18372100  0.98268600  0.28672700  1
  O  O8  1  0.29965800  0.53981300  0.68051900  1
  O  O9  1  0.77966700  0.01982300  0.68051800  1
