# generated using pymatgen
data_Fe(HO)2
_symmetry_space_group_name_H-M   'P 1'
_cell_length_a   3.32141219
_cell_length_b   5.69705185
_cell_length_c   10.01284599
_cell_angle_alpha   94.69620054
_cell_angle_beta   99.56235555
_cell_angle_gamma   73.06170349
_symmetry_Int_Tables_number   1
_chemical_formula_structural   Fe(HO)2
_chemical_formula_sum   'Fe4 H8 O8'
_cell_volume   178.61553997
_cell_formula_units_Z   4
loop_
 _symmetry_equiv_pos_site_id
 _symmetry_equiv_pos_as_xyz
  1  'x, y, z'
loop_
 _atom_site_type_symbol
 _atom_site_label
 _atom_site_symmetry_multiplicity
 _atom_site_fract_x
 _atom_site_fract_y
 _atom_site_fract_z
 _atom_site_occupancy
  Fe  Fe0  1  0.42672300  0.49926300  0.49978400  1
  Fe  Fe1  1  0.17784800  0.25078000  0.75032000  1
  Fe  Fe2  1  0.92589400  0.00035400  0.99996600  1
  Fe  Fe3  1  0.67890500  0.74960700  0.25001100  1
  H  H4  1  0.37428800  0.34210400  0.23152500  1
  H  H5  1  0.12482700  0.09125200  0.48206200  1
  H  H6  1  0.87375200  0.84280000  0.73168800  1
  H  H7  1  0.62439600  0.59206100  0.98148300  1
  H  H8  1  0.98467000  0.15795900  0.26840600  1
  H  H9  1  0.73498700  0.90711100  0.51826900  1
  H  H10  1  0.48390600  0.65866600  0.76809800  1
  H  H11  1  0.23461700  0.40800900  0.01846400  1
  O  O12  1  0.31927900  0.49938100  0.28132600  1
  O  O13  1  0.06845700  0.24893400  0.53141600  1
  O  O14  1  0.81811200  0.00007800  0.78147100  1
  O  O15  1  0.56815300  0.74937500  0.03123700  1
  O  O16  1  0.03719100  0.00066400  0.21863000  1
  O  O17  1  0.78659400  0.74984200  0.46847500  1
  O  O18  1  0.53618600  0.50104800  0.71868100  1
  O  O19  1  0.28595000  0.25071200  0.96868800  1
