# generated using pymatgen
data_LaMnO3
_symmetry_space_group_name_H-M   'P 1'
_cell_length_a   6.84726183
_cell_length_b   6.84731895
_cell_length_c   6.87467870
_cell_angle_alpha   70.42832012
_cell_angle_beta   69.53676264
_cell_angle_gamma   108.22004504
_symmetry_Int_Tables_number   1
_chemical_formula_structural   LaMnO3
_chemical_formula_sum   'La4 Mn4 O12'
_cell_volume   248.53597537
_cell_formula_units_Z   4
loop_
 _symmetry_equiv_pos_site_id
 _symmetry_equiv_pos_as_xyz
  1  'x, y, z'
loop_
 _atom_site_type_symbol
 _atom_site_label
 _atom_site_symmetry_multiplicity
 _atom_site_fract_x
 _atom_site_fract_y
 _atom_site_fract_z
 _atom_site_occupancy
  La  La0  1  0.99987200  0.49981800  0.00009600  1
  La  La1  1  0.50000800  0.00006200  0.00006500  1
  La  La2  1  0.00015400  0.99998400  0.49993600  1
  La  La3  1  0.49999500  0.49992100  0.49998300  1
  Mn  Mn4  1  0.50010100  0.00011500  0.50007100  1
  Mn  Mn5  1  0.50004200  0.49997200  0.99992400  1
  Mn  Mn6  1  0.99980100  0.50001100  0.49997200  1
  Mn  Mn7  1  0.99997700  0.00001400  0.99996400  1
  O  O8  1  0.26067800  0.76075500  0.50002400  1
  O  O9  1  0.73929400  0.23937200  0.50000800  1
  O  O10  1  0.73861300  0.73853900  0.00000200  1
  O  O11  1  0.26144700  0.26138700  0.00000100  1
  O  O12  1  0.43564100  0.73724100  0.82714300  1
  O  O13  1  0.94906300  0.24269700  0.80818600  1
  O  O14  1  0.74365900  0.94241100  0.31404000  1
  O  O15  1  0.26315700  0.43769000  0.29909000  1
  O  O16  1  0.56436100  0.26279800  0.17284900  1
  O  O17  1  0.05086900  0.75724700  0.19183800  1
  O  O18  1  0.25647600  0.05771000  0.68592600  1
  O  O19  1  0.73679400  0.56225700  0.70088300  1
