# generated using pymatgen
data_V3O5
_symmetry_space_group_name_H-M   'P 1'
_cell_length_a   5.17821403
_cell_length_b   5.71593836
_cell_length_c   7.10864196
_cell_angle_alpha   109.47574216
_cell_angle_beta   90.01063775
_cell_angle_gamma   63.05875199
_symmetry_Int_Tables_number   1
_chemical_formula_structural   V3O5
_chemical_formula_sum   'V6 O10'
_cell_volume   173.96447783
_cell_formula_units_Z   2
loop_
 _symmetry_equiv_pos_site_id
 _symmetry_equiv_pos_as_xyz
  1  'x, y, z'
loop_
 _atom_site_type_symbol
 _atom_site_label
 _atom_site_symmetry_multiplicity
 _atom_site_fract_x
 _atom_site_fract_y
 _atom_site_fract_z
 _atom_site_occupancy
  V  V0  1  0.50105500  0.49838800  0.49925000  1
  V  V1  1  0.12968100  0.24109000  0.77747700  1
  V  V2  1  0.12945400  0.23922200  0.28156600  1
  V  V3  1  0.49951000  0.50157700  0.00075300  1
  V  V4  1  0.86880500  0.76073500  0.21844700  1
  V  V5  1  0.87079700  0.75891700  0.72249000  1
  O  O6  1  0.70226000  0.49998400  0.74998900  1
  O  O7  1  0.30076400  0.50004200  0.25000500  1
  O  O8  1  0.14581100  0.88987200  0.66920100  1
  O  O9  1  0.46518100  0.86953400  0.15750100  1
  O  O10  1  0.83469900  0.13041200  0.34250500  1
  O  O11  1  0.53566700  0.11022800  0.83081800  1
  O  O12  1  0.07330200  0.66235900  0.93392000  1
  O  O13  1  0.77211100  0.66302100  0.45390100  1
  O  O14  1  0.93521500  0.33701100  0.04615300  1
  O  O15  1  0.23568800  0.33760900  0.56602500  1
