# generated using pymatgen
data_LaCoO3
_symmetry_space_group_name_H-M   'P 1'
_cell_length_a   5.43777762
_cell_length_b   8.03293511
_cell_length_c   5.56924046
_cell_angle_alpha   89.94873461
_cell_angle_beta   90.01827884
_cell_angle_gamma   91.42050150
_symmetry_Int_Tables_number   1
_chemical_formula_structural   LaCoO3
_chemical_formula_sum   'La4 Co4 O12'
_cell_volume   243.19687583
_cell_formula_units_Z   4
loop_
 _symmetry_equiv_pos_site_id
 _symmetry_equiv_pos_as_xyz
  1  'x, y, z'
loop_
 _atom_site_type_symbol
 _atom_site_label
 _atom_site_symmetry_multiplicity
 _atom_site_fract_x
 _atom_site_fract_y
 _atom_site_fract_z
 _atom_site_occupancy
  La  La0  1  0.25113700  0.49937600  0.75092600  1
  La  La1  1  0.75074000  0.99976600  0.25164200  1
  La  La2  1  0.74926000  0.50023400  0.24835000  1
  La  La3  1  0.24886300  0.00062300  0.74908100  1
  Co  Co4  1  0.25000000  0.75000000  0.24999700  1
  Co  Co5  1  0.25000100  0.25000000  0.24999700  1
  Co  Co6  1  0.75000100  0.25000000  0.75000300  1
  Co  Co7  1  0.75000100  0.75000000  0.75000400  1
  O  O8  1  0.74495500  0.49993200  0.82529400  1
  O  O9  1  0.24705700  0.00024900  0.32532800  1
  O  O10  1  0.25294200  0.49975200  0.17467300  1
  O  O11  1  0.75504400  0.00006800  0.67470600  1
  O  O12  1  0.02731300  0.21671000  0.95608100  1
  O  O13  1  0.54003200  0.71453400  0.47707300  1
  O  O14  1  0.95996800  0.78546700  0.02292700  1
  O  O15  1  0.47268600  0.28329000  0.54391800  1
  O  O16  1  0.46047300  0.78855700  0.97817500  1
  O  O17  1  0.97320400  0.28688500  0.45654800  1
  O  O18  1  0.52679500  0.21311600  0.04345200  1
  O  O19  1  0.03952700  0.71144300  0.52182500  1
