# generated using pymatgen
data_YCoO3
_symmetry_space_group_name_H-M   'P 1'
_cell_length_a   5.27717852
_cell_length_b   5.70734023
_cell_length_c   7.53543709
_cell_angle_alpha   90.06302224
_cell_angle_beta   90.33811138
_cell_angle_gamma   90.64618665
_symmetry_Int_Tables_number   1
_chemical_formula_structural   YCoO3
_chemical_formula_sum   'Y4 Co4 O12'
_cell_volume   226.93867729
_cell_formula_units_Z   4
loop_
 _symmetry_equiv_pos_site_id
 _symmetry_equiv_pos_as_xyz
  1  'x, y, z'
loop_
 _atom_site_type_symbol
 _atom_site_label
 _atom_site_symmetry_multiplicity
 _atom_site_fract_x
 _atom_site_fract_y
 _atom_site_fract_z
 _atom_site_occupancy
  Y  Y0  1  0.01730100  0.92073800  0.74659700  1
  Y  Y1  1  0.47555900  0.42198200  0.74741300  1
  Y  Y2  1  0.52444100  0.57801800  0.25258700  1
  Y  Y3  1  0.98269900  0.07926200  0.25340300  1
  Co  Co4  1  0.50000100  0.00000000  0.00000000  1
  Co  Co5  1  0.50000000  0.00000000  0.50000000  1
  Co  Co6  1  0.00000000  0.50000000  0.00000000  1
  Co  Co7  1  0.00000000  0.50000000  0.50000000  1
  O  O8  1  0.79947600  0.81562300  0.05110000  1
  O  O9  1  0.30996200  0.68873400  0.55721700  1
  O  O10  1  0.69003800  0.31126600  0.44278300  1
  O  O11  1  0.20052400  0.18437700  0.94890000  1
  O  O12  1  0.29712500  0.68645500  0.94721300  1
  O  O13  1  0.81454500  0.80957800  0.44154600  1
  O  O14  1  0.18545500  0.19042200  0.55845400  1
  O  O15  1  0.70287500  0.31354500  0.05278700  1
  O  O16  1  0.60679400  0.03520700  0.74410100  1
  O  O17  1  0.11964200  0.46084100  0.25303600  1
  O  O18  1  0.39320600  0.96479300  0.25589900  1
  O  O19  1  0.88035700  0.53915900  0.74696400  1
