# generated using pymatgen
data_Sr3TaCoO7
_symmetry_space_group_name_H-M   'P 1'
_cell_length_a   5.59969104
_cell_length_b   5.59969953
_cell_length_c   21.82859218
_cell_angle_alpha   97.37019195
_cell_angle_beta   82.62973920
_cell_angle_gamma   90.00690226
_symmetry_Int_Tables_number   1
_chemical_formula_structural   Sr3TaCoO7
_chemical_formula_sum   'Sr12 Ta4 Co4 O28'
_cell_volume   673.11377680
_cell_formula_units_Z   4
loop_
 _symmetry_equiv_pos_site_id
 _symmetry_equiv_pos_as_xyz
  1  'x, y, z'
loop_
 _atom_site_type_symbol
 _atom_site_label
 _atom_site_symmetry_multiplicity
 _atom_site_fract_x
 _atom_site_fract_y
 _atom_site_fract_z
 _atom_site_occupancy
  Sr  Sr0  1  0.50918100  0.99080500  0.98162900  1
  Sr  Sr1  1  0.25929100  0.74075400  0.48154300  1
  Sr  Sr2  1  0.00920900  0.49081800  0.98163100  1
  Sr  Sr3  1  0.75922900  0.24079000  0.48158700  1
  Sr  Sr4  1  0.65396200  0.34603900  0.69209300  1
  Sr  Sr5  1  0.40389200  0.09609600  0.19225700  1
  Sr  Sr6  1  0.15395300  0.84604000  0.69210300  1
  Sr  Sr7  1  0.90390100  0.59609200  0.19224600  1
  Sr  Sr8  1  0.59114700  0.90885200  0.81773500  1
  Sr  Sr9  1  0.34109300  0.65890900  0.31779100  1
  Sr  Sr10  1  0.09115700  0.40885000  0.81773500  1
  Sr  Sr11  1  0.84108200  0.15891400  0.31780400  1
  Ta  Ta12  1  0.70127400  0.79873600  0.59742800  1
  Ta  Ta13  1  0.45122300  0.54877700  0.09763900  1
  Ta  Ta14  1  0.20128300  0.29871700  0.59742500  1
  Ta  Ta15  1  0.95117800  0.04881700  0.09763400  1
  Co  Co16  1  0.30255300  0.19745500  0.39491900  1
  Co  Co17  1  0.05259000  0.94741000  0.89485200  1
  Co  Co18  1  0.55261400  0.44739100  0.89482800  1
  Co  Co19  1  0.80257000  0.69745700  0.39489300  1
  O  O20  1  0.59927300  0.40071000  0.80158400  1
  O  O21  1  0.34913900  0.15080400  0.30168300  1
  O  O22  1  0.09928000  0.90070300  0.80158400  1
  O  O23  1  0.84915800  0.65080300  0.30167500  1
  O  O24  1  0.65289400  0.84710800  0.69419700  1
  O  O25  1  0.40274500  0.59724000  0.19439200  1
  O  O26  1  0.15289800  0.34710700  0.69419400  1
  O  O27  1  0.90274900  0.09723300  0.19438700  1
  O  O28  1  0.74590400  0.75406800  0.50810900  1
  O  O29  1  0.49579000  0.50419300  0.00829500  1
  O  O30  1  0.24597300  0.25406900  0.50810600  1
  O  O31  1  0.99582600  0.00417300  0.00829000  1
  O  O32  1  0.31124700  0.21508500  0.90388200  1
  O  O33  1  0.03499200  0.93884000  0.40390700  1
  O  O34  1  0.78489200  0.68877300  0.90388700  1
  O  O35  1  0.56113200  0.46504600  0.40389200  1
  O  O36  1  0.81123500  0.18878600  0.90388400  1
  O  O37  1  0.53505200  0.96507600  0.40388900  1
  O  O38  1  0.28493900  0.71504700  0.90387300  1
  O  O39  1  0.06108900  0.43882800  0.40389400  1
  O  O40  1  0.94904700  0.05104000  0.60196600  1
  O  O41  1  0.69885800  0.80121900  0.10219400  1
  O  O42  1  0.44880400  0.55111800  0.60197000  1
  O  O43  1  0.19894400  0.30096800  0.10219600  1
  O  O44  1  0.44910800  0.05107500  0.60196300  1
  O  O45  1  0.19885900  0.80097100  0.10218800  1
  O  O46  1  0.94884600  0.55097500  0.60195900  1
  O  O47  1  0.69894600  0.30122200  0.10218700  1
