# generated using pymatgen
data_Sr2FeSnO6
_symmetry_space_group_name_H-M   'P 1'
_cell_length_a   7.00988624
_cell_length_b   7.01237154
_cell_length_c   12.09857324
_cell_angle_alpha   101.21097445
_cell_angle_beta   101.19162777
_cell_angle_gamma   109.17441944
_symmetry_Int_Tables_number   1
_chemical_formula_structural   Sr2FeSnO6
_chemical_formula_sum   'Sr8 Fe4 Sn4 O24'
_cell_volume   529.21904179
_cell_formula_units_Z   4
loop_
 _symmetry_equiv_pos_site_id
 _symmetry_equiv_pos_as_xyz
  1  'x, y, z'
loop_
 _atom_site_type_symbol
 _atom_site_label
 _atom_site_symmetry_multiplicity
 _atom_site_fract_x
 _atom_site_fract_y
 _atom_site_fract_z
 _atom_site_occupancy
  Sr  Sr0  1  0.50041900  0.50044900  0.00079300  1
  Sr  Sr1  1  0.74856900  0.74853000  0.49912700  1
  Sr  Sr2  1  0.00039400  0.00033400  0.00082900  1
  Sr  Sr3  1  0.25062400  0.25061100  0.49917500  1
  Sr  Sr4  1  0.87498700  0.37495700  0.24993100  1
  Sr  Sr5  1  0.12504300  0.62513500  0.75009500  1
  Sr  Sr6  1  0.37491800  0.87494600  0.24990800  1
  Sr  Sr7  1  0.62504400  0.12500500  0.75008400  1
  Fe  Fe8  1  0.37484600  0.37485000  0.24962900  1
  Fe  Fe9  1  0.62511300  0.62512800  0.75032900  1
  Fe  Fe10  1  0.87493700  0.87488600  0.24975600  1
  Fe  Fe11  1  0.12520300  0.12535900  0.75039100  1
  Sn  Sn12  1  0.49989100  0.99995100  0.99989700  1
  Sn  Sn13  1  0.75017000  0.24993000  0.50011300  1
  Sn  Sn14  1  0.00000800  0.49996000  0.99991100  1
  Sn  Sn15  1  0.24992900  0.75018000  0.50011200  1
  O  O16  1  0.74999900  0.24991900  0.99991000  1
  O  O17  1  0.00004000  0.50002500  0.50006300  1
  O  O18  1  0.24992600  0.74998800  0.99989900  1
  O  O19  1  0.50004200  0.00002000  0.50007100  1
  O  O20  1  0.61837100  0.61833900  0.25019100  1
  O  O21  1  0.86809100  0.86806800  0.74975300  1
  O  O22  1  0.13187200  0.13187600  0.25025800  1
  O  O23  1  0.38165300  0.38168400  0.74978800  1
  O  O24  1  0.55854000  0.31420500  0.37288300  1
  O  O25  1  0.80828800  0.56373000  0.87201600  1
  O  O26  1  0.05956800  0.81365200  0.37297900  1
  O  O27  1  0.31017800  0.06336300  0.87335400  1
  O  O28  1  0.69012100  0.93656400  0.12673100  1
  O  O29  1  0.94028000  0.18638200  0.62696000  1
  O  O30  1  0.19161000  0.43605600  0.12777900  1
  O  O31  1  0.44149100  0.68588500  0.62723900  1
  O  O32  1  0.43606400  0.19166600  0.12780300  1
  O  O33  1  0.68586300  0.44149200  0.62724100  1
  O  O34  1  0.93655100  0.69009800  0.12671900  1
  O  O35  1  0.18633600  0.94032500  0.62700200  1
  O  O36  1  0.81367800  0.05951200  0.37299800  1
  O  O37  1  0.06334700  0.31015200  0.87337600  1
  O  O38  1  0.31424100  0.55850500  0.37288200  1
  O  O39  1  0.56375500  0.80828200  0.87202500  1
