# generated using pymatgen
data_Sr2MnNbO6
_symmetry_space_group_name_H-M   'P 1'
_cell_length_a   7.89875200
_cell_length_b   7.89882500
_cell_length_c   10.07462579
_cell_angle_alpha   66.92135770
_cell_angle_beta   66.92152272
_cell_angle_gamma   90.00044973
_symmetry_Int_Tables_number   1
_chemical_formula_structural   Sr2MnNbO6
_chemical_formula_sum   'Sr8 Mn4 Nb4 O24'
_cell_volume   523.13821875
_cell_formula_units_Z   4
loop_
 _symmetry_equiv_pos_site_id
 _symmetry_equiv_pos_as_xyz
  1  'x, y, z'
loop_
 _atom_site_type_symbol
 _atom_site_label
 _atom_site_symmetry_multiplicity
 _atom_site_fract_x
 _atom_site_fract_y
 _atom_site_fract_z
 _atom_site_occupancy
  Sr  Sr0  1  0.37506000  0.37504600  0.75017500  1
  Sr  Sr1  1  0.62501900  0.12538300  0.24980600  1
  Sr  Sr2  1  0.87473200  0.87473300  0.75018500  1
  Sr  Sr3  1  0.12518300  0.62483400  0.24985200  1
  Sr  Sr4  1  0.62497800  0.62480500  0.24983400  1
  Sr  Sr5  1  0.87477100  0.37508400  0.75016900  1
  Sr  Sr6  1  0.12518500  0.12534600  0.24981800  1
  Sr  Sr7  1  0.37507800  0.87477900  0.75018600  1
  Mn  Mn8  1  0.50009700  0.50000700  0.00004500  1
  Mn  Mn9  1  0.74994800  0.24990800  0.50019800  1
  Mn  Mn10  1  0.25005200  0.74998800  0.49990500  1
  Mn  Mn11  1  0.00002600  0.99999100  0.00012900  1
  Nb  Nb12  1  0.49988400  0.99995300  0.00001500  1
  Nb  Nb13  1  0.74984500  0.74969800  0.50047700  1
  Nb  Nb14  1  0.99980400  0.49986000  0.00005000  1
  Nb  Nb15  1  0.25018600  0.25035600  0.49959800  1
  O  O16  1  0.24565000  0.99998900  0.99996600  1
  O  O17  1  0.49545200  0.74968900  0.50076900  1
  O  O18  1  0.74568500  0.49995300  0.00008400  1
  O  O19  1  0.99620800  0.25044200  0.49910300  1
  O  O20  1  0.38117400  0.88116200  0.23773900  1
  O  O21  1  0.63083300  0.63083600  0.73836500  1
  O  O22  1  0.88112500  0.38111100  0.23781200  1
  O  O23  1  0.13137100  0.13135200  0.73729100  1
  O  O24  1  0.50002000  0.74588900  0.99987500  1
  O  O25  1  0.74956500  0.49526400  0.50092600  1
  O  O26  1  0.99996300  0.24558900  0.00004100  1
  O  O27  1  0.25050300  0.99633000  0.49908700  1
  O  O28  1  0.75427900  0.99997700  0.99996200  1
  O  O29  1  0.00389500  0.74966300  0.50078400  1
  O  O30  1  0.25404400  0.49994600  0.00008100  1
  O  O31  1  0.50469700  0.25041900  0.49910900  1
  O  O32  1  0.61893400  0.11891300  0.76215300  1
  O  O33  1  0.86866400  0.86865100  0.26266700  1
  O  O34  1  0.11892000  0.61891300  0.76220800  1
  O  O35  1  0.36918600  0.36918400  0.26158800  1
  O  O36  1  0.50001600  0.25419800  0.99986500  1
  O  O37  1  0.74954300  0.00374100  0.50093400  1
  O  O38  1  0.99994800  0.75424100  0.00004400  1
  O  O39  1  0.25047700  0.50477800  0.49910300  1
