# generated using pymatgen
data_La2CoNiO6
_symmetry_space_group_name_H-M   'P 1'
_cell_length_a   5.49236185
_cell_length_b   7.73805994
_cell_length_c   5.62512071
_cell_angle_alpha   89.35638970
_cell_angle_beta   89.20131698
_cell_angle_gamma   91.54894848
_symmetry_Int_Tables_number   1
_chemical_formula_structural   La2CoNiO6
_chemical_formula_sum   'La4 Co2 Ni2 O12'
_cell_volume   238.94220268
_cell_formula_units_Z   2
loop_
 _symmetry_equiv_pos_site_id
 _symmetry_equiv_pos_as_xyz
  1  'x, y, z'
loop_
 _atom_site_type_symbol
 _atom_site_label
 _atom_site_symmetry_multiplicity
 _atom_site_fract_x
 _atom_site_fract_y
 _atom_site_fract_z
 _atom_site_occupancy
  La  La0  1  0.50065600  0.25008100  0.00211500  1
  La  La1  1  0.00181700  0.74855200  0.50120900  1
  La  La2  1  0.49945700  0.74995600  0.99789200  1
  La  La3  1  0.99835600  0.25146000  0.49880900  1
  Co  Co4  1  0.00003200  0.49999300  0.99996100  1
  Co  Co5  1  0.49990400  0.00003800  0.50001200  1
  Ni  Ni6  1  0.50003100  0.49998000  0.49983900  1
  Ni  Ni7  1  0.99974300  0.00002900  0.00017000  1
  O  O8  1  0.28535500  0.47407300  0.80114900  1
  O  O9  1  0.78528900  0.96889600  0.28970700  1
  O  O10  1  0.20764200  0.53161100  0.28942800  1
  O  O11  1  0.71452300  0.03190500  0.78984300  1
  O  O12  1  0.99950300  0.74582000  0.93399800  1
  O  O13  1  0.50541100  0.23761400  0.43831000  1
  O  O14  1  0.79238200  0.46845000  0.71051600  1
  O  O15  1  0.28544800  0.96811000  0.21009500  1
  O  O16  1  0.00050100  0.25419100  0.06605300  1
  O  O17  1  0.49459800  0.76233000  0.56173100  1
  O  O18  1  0.71472500  0.52583500  0.19868400  1
  O  O19  1  0.21462800  0.03107800  0.71047600  1
