# generated using pymatgen
data_Na2FeO3
_symmetry_space_group_name_H-M   'P 1'
_cell_length_a   5.36467872
_cell_length_b   9.32913479
_cell_length_c   5.72710133
_cell_angle_alpha   73.65371144
_cell_angle_beta   99.26771567
_cell_angle_gamma   90.05761460
_symmetry_Int_Tables_number   1
_chemical_formula_structural   Na2FeO3
_chemical_formula_sum   'Na8 Fe4 O12'
_cell_volume   271.15518946
_cell_formula_units_Z   4
loop_
 _symmetry_equiv_pos_site_id
 _symmetry_equiv_pos_as_xyz
  1  'x, y, z'
loop_
 _atom_site_type_symbol
 _atom_site_label
 _atom_site_symmetry_multiplicity
 _atom_site_fract_x
 _atom_site_fract_y
 _atom_site_fract_z
 _atom_site_occupancy
  Na  Na0  1  0.75487400  0.25197600  0.49923900  1
  Na  Na1  1  0.25490100  0.75186400  0.49946600  1
  Na  Na2  1  0.99974500  0.99986700  0.00013300  1
  Na  Na3  1  0.49972100  0.49983100  0.00020500  1
  Na  Na4  1  0.23500600  0.07943200  0.50142400  1
  Na  Na5  1  0.73505300  0.57949300  0.50140400  1
  Na  Na6  1  0.26155000  0.41941600  0.49945100  1
  Na  Na7  1  0.76154400  0.91929500  0.49942200  1
  Fe  Fe8  1  0.50130900  0.83384000  0.99998000  1
  Fe  Fe9  1  0.99957500  0.66714300  0.00010300  1
  Fe  Fe10  1  0.00135900  0.33392300  0.99985800  1
  Fe  Fe11  1  0.49968400  0.16701700  0.00018200  1
  O  O12  1  0.66151500  0.34963300  0.79452900  1
  O  O13  1  0.16154900  0.84959900  0.79459200  1
  O  O14  1  0.85560800  0.15672000  0.20364500  1
  O  O15  1  0.35564600  0.65666100  0.20379600  1
  O  O16  1  0.33704700  0.27938600  0.20535300  1
  O  O17  1  0.83704000  0.77940700  0.20540100  1
  O  O18  1  0.91370900  0.45816000  0.19879500  1
  O  O19  1  0.41369100  0.95799000  0.19884300  1
  O  O20  1  0.14310300  0.22724000  0.80019100  1
  O  O21  1  0.64302600  0.72715900  0.80018800  1
  O  O22  1  0.58685200  0.02736200  0.79696200  1
  O  O23  1  0.08689100  0.52758700  0.79683800  1
