# generated using pymatgen
data_Co3(OF2)2
_symmetry_space_group_name_H-M   'P 1'
_cell_length_a   4.70110805
_cell_length_b   9.27275184
_cell_length_c   4.68849844
_cell_angle_alpha   90.80798881
_cell_angle_beta   90.01421073
_cell_angle_gamma   89.99250914
_symmetry_Int_Tables_number   1
_chemical_formula_structural   Co3(OF2)2
_chemical_formula_sum   'Co6 O4 F8'
_cell_volume   204.36167032
_cell_formula_units_Z   2
loop_
 _symmetry_equiv_pos_site_id
 _symmetry_equiv_pos_as_xyz
  1  'x, y, z'
loop_
 _atom_site_type_symbol
 _atom_site_label
 _atom_site_symmetry_multiplicity
 _atom_site_fract_x
 _atom_site_fract_y
 _atom_site_fract_z
 _atom_site_occupancy
  Co  Co0  1  0.02415500  0.66278300  0.02757800  1
  Co  Co1  1  0.52416700  0.50387600  0.47236400  1
  Co  Co2  1  0.98886100  0.34016500  0.01267600  1
  Co  Co3  1  0.48887000  0.82649700  0.48731600  1
  Co  Co4  1  0.95737200  0.00623500  0.95745700  1
  Co  Co5  1  0.45733300  0.16043700  0.54266900  1
  O  O6  1  0.82970500  0.48879700  0.18799500  1
  O  O7  1  0.32970900  0.67787300  0.31194100  1
  O  O8  1  0.68022600  0.99545700  0.69283900  1
  O  O9  1  0.18023700  0.17119900  0.80721100  1
  F  F10  1  0.78368700  0.16405400  0.20505000  1
  F  F11  1  0.28365500  0.00265300  0.29500300  1
  F  F12  1  0.72385900  0.67263100  0.70719600  1
  F  F13  1  0.22378900  0.49402800  0.79268700  1
  F  F14  1  0.81395000  0.84241600  0.20068300  1
  F  F15  1  0.31399700  0.32423600  0.29927500  1
  F  F16  1  0.69819600  0.32612600  0.68686300  1
  F  F17  1  0.19823200  0.84053300  0.81319700  1
