# generated using pymatgen
data_Ca3Fe2(WO6)2
_symmetry_space_group_name_H-M   'P 1'
_cell_length_a   5.50950684
_cell_length_b   7.74901008
_cell_length_c   5.53535900
_cell_angle_alpha   90.00001775
_cell_angle_beta   89.99997924
_cell_angle_gamma   90.06184677
_symmetry_Int_Tables_number   1
_chemical_formula_structural   Ca3Fe2(WO6)2
_chemical_formula_sum   'Ca3 Fe2 W2 O12'
_cell_volume   236.32218415
_cell_formula_units_Z   1
loop_
 _symmetry_equiv_pos_site_id
 _symmetry_equiv_pos_as_xyz
  1  'x, y, z'
loop_
 _atom_site_type_symbol
 _atom_site_label
 _atom_site_symmetry_multiplicity
 _atom_site_fract_x
 _atom_site_fract_y
 _atom_site_fract_z
 _atom_site_occupancy
  Ca  Ca0  1  0.49202500  0.75039300  0.00000600  1
  Ca  Ca1  1  0.99716700  0.25117700  0.49999300  1
  Ca  Ca2  1  0.97356800  0.75178500  0.50000200  1
  Fe  Fe3  1  0.97838300  0.49878400  0.99999300  1
  Fe  Fe4  1  0.48169100  0.00257200  0.50000100  1
  W  W5  1  0.97857300  0.00790200  0.00000100  1
  W  W6  1  0.47726600  0.49408400  0.50000000  1
  O  O7  1  0.39668300  0.74532900  0.50000100  1
  O  O8  1  0.57051600  0.25669700  0.50000100  1
  O  O9  1  0.06739400  0.75489500  0.00000100  1
  O  O10  1  0.90173500  0.24441300  0.00000100  1
  O  O11  1  0.72232000  0.55238300  0.74428900  1
  O  O12  1  0.72231900  0.55238400  0.25571100  1
  O  O13  1  0.22232100  0.46198200  0.73582600  1
  O  O14  1  0.22232300  0.46198200  0.26417400  1
  O  O15  1  0.20763100  0.03583300  0.25900500  1
  O  O16  1  0.20762900  0.03583300  0.74099700  1
  O  O17  1  0.73158100  0.94677200  0.24570700  1
  O  O18  1  0.73158000  0.94677100  0.75429400  1
