# generated using pymatgen
data_CoHO2
_symmetry_space_group_name_H-M   'P 1'
_cell_length_a   4.66008917
_cell_length_b   4.80952493
_cell_length_c   4.81215877
_cell_angle_alpha   34.98885279
_cell_angle_beta   37.68918450
_cell_angle_gamma   37.70735855
_symmetry_Int_Tables_number   1
_chemical_formula_structural   CoHO2
_chemical_formula_sum   'Co1 H1 O2'
_cell_volume   34.53048226
_cell_formula_units_Z   1
loop_
 _symmetry_equiv_pos_site_id
 _symmetry_equiv_pos_as_xyz
  1  'x, y, z'
loop_
 _atom_site_type_symbol
 _atom_site_label
 _atom_site_symmetry_multiplicity
 _atom_site_fract_x
 _atom_site_fract_y
 _atom_site_fract_z
 _atom_site_occupancy
  Co  Co0  1  0.00000000  0.00000000  0.00000000  1
  H  H1  1  0.50000000  0.50000000  0.50000000  1
  O  O2  1  0.38970500  0.41864200  0.41800500  1
  O  O3  1  0.61029500  0.58135800  0.58199500  1
