# generated using pymatgen
data_Nb2Co4O9
_symmetry_space_group_name_H-M   'P 1'
_cell_length_a   5.21472082
_cell_length_b   5.22288338
_cell_length_c   14.31262784
_cell_angle_alpha   90.08050155
_cell_angle_beta   90.06389233
_cell_angle_gamma   60.05604724
_symmetry_Int_Tables_number   1
_chemical_formula_structural   Nb2Co4O9
_chemical_formula_sum   'Nb4 Co8 O18'
_cell_volume   337.78154897
_cell_formula_units_Z   2
loop_
 _symmetry_equiv_pos_site_id
 _symmetry_equiv_pos_as_xyz
  1  'x, y, z'
loop_
 _atom_site_type_symbol
 _atom_site_label
 _atom_site_symmetry_multiplicity
 _atom_site_fract_x
 _atom_site_fract_y
 _atom_site_fract_z
 _atom_site_occupancy
  Nb  Nb0  1  0.00093300  0.00006900  0.64284900  1
  Nb  Nb1  1  0.00094000  0.99828600  0.85894900  1
  Nb  Nb2  1  0.99893500  0.00051300  0.35850600  1
  Nb  Nb3  1  0.00013800  0.00021300  0.14139100  1
  Co  Co4  1  0.33352100  0.33333400  0.51344300  1
  Co  Co5  1  0.66637900  0.66641800  0.98604500  1
  Co  Co6  1  0.33350500  0.33416400  0.80561400  1
  Co  Co7  1  0.66651800  0.66654500  0.19517300  1
  Co  Co8  1  0.66842000  0.66514200  0.48717000  1
  Co  Co9  1  0.33604800  0.33204600  0.01218500  1
  Co  Co10  1  0.67251900  0.66314000  0.68894700  1
  Co  Co11  1  0.33326900  0.33376600  0.30459600  1
  O  O12  1  0.71028200  0.28978400  0.25010900  1
  O  O13  1  0.99993000  0.71021500  0.25025500  1
  O  O14  1  0.29006200  0.00029400  0.25018500  1
  O  O15  1  0.29003900  0.71291600  0.75056700  1
  O  O16  1  0.99737300  0.29159200  0.75049400  1
  O  O17  1  0.70857900  0.99983300  0.75030200  1
  O  O18  1  0.34329500  0.97774400  0.58368400  1
  O  O19  1  0.67848300  0.34368100  0.58425600  1
  O  O20  1  0.97831000  0.67747300  0.58462300  1
  O  O21  1  0.32096600  0.02218200  0.91666800  1
  O  O22  1  0.02239700  0.65608000  0.91694300  1
  O  O23  1  0.65517900  0.32186400  0.91600700  1
  O  O24  1  0.65578300  0.02092800  0.41614600  1
  O  O25  1  0.32102500  0.65677100  0.41617200  1
  O  O26  1  0.01913000  0.32312800  0.41654200  1
  O  O27  1  0.67645000  0.98023800  0.08407000  1
  O  O28  1  0.97816000  0.34415000  0.08397200  1
  O  O29  1  0.34343000  0.67749300  0.08413700  1
