# generated using pymatgen
data_Sr2FeOsO6
_symmetry_space_group_name_H-M   'P 1'
_cell_length_a   5.63300566
_cell_length_b   5.63296677
_cell_length_c   9.75299868
_cell_angle_alpha   73.21427317
_cell_angle_beta   89.99992941
_cell_angle_gamma   120.00033635
_symmetry_Int_Tables_number   1
_chemical_formula_structural   Sr2FeOsO6
_chemical_formula_sum   'Sr4 Fe2 Os2 O12'
_cell_volume   252.66548047
_cell_formula_units_Z   2
loop_
 _symmetry_equiv_pos_site_id
 _symmetry_equiv_pos_as_xyz
  1  'x, y, z'
loop_
 _atom_site_type_symbol
 _atom_site_label
 _atom_site_symmetry_multiplicity
 _atom_site_fract_x
 _atom_site_fract_y
 _atom_site_fract_z
 _atom_site_occupancy
  Sr  Sr0  1  0.62380400  0.24761000  0.12853500  1
  Sr  Sr1  1  0.12631600  0.25263100  0.62102100  1
  Sr  Sr2  1  0.87619600  0.75239100  0.37146400  1
  Sr  Sr3  1  0.37368400  0.74736800  0.87897800  1
  Fe  Fe4  1  0.00129200  0.00258500  0.99611200  1
  Fe  Fe5  1  0.49870500  0.99740900  0.50389900  1
  Os  Os6  1  0.75000000  0.49999900  0.75000200  1
  Os  Os7  1  0.25000000  0.50000100  0.24999900  1
  O  O8  1  0.12685600  0.25371100  0.12467900  1
  O  O9  1  0.62690900  0.25381700  0.62666000  1
  O  O10  1  0.37314400  0.25149200  0.37529300  1
  O  O11  1  0.87309900  0.25353200  0.87330600  1
  O  O12  1  0.62164700  0.74850500  0.12470500  1
  O  O13  1  0.11956300  0.74646700  0.62669100  1
  O  O14  1  0.37314800  0.74629600  0.37532100  1
  O  O15  1  0.87309500  0.74619100  0.87333800  1
  O  O16  1  0.12685900  0.74850500  0.12470600  1
  O  O17  1  0.62690400  0.74646700  0.62669200  1
  O  O18  1  0.87834800  0.25149200  0.37529300  1
  O  O19  1  0.38043100  0.25353200  0.87330600  1
