# generated using pymatgen
data_CaFe(GeO3)2
_symmetry_space_group_name_H-M   'P 1'
_cell_length_a   5.51440251
_cell_length_b   10.33367810
_cell_length_c   9.16686818
_cell_angle_alpha   88.93047144
_cell_angle_beta   89.69769270
_cell_angle_gamma   75.90198552
_symmetry_Int_Tables_number   1
_chemical_formula_structural   CaFe(GeO3)2
_chemical_formula_sum   'Ca4 Fe4 Ge8 O24'
_cell_volume   506.54355588
_cell_formula_units_Z   4
loop_
 _symmetry_equiv_pos_site_id
 _symmetry_equiv_pos_as_xyz
  1  'x, y, z'
loop_
 _atom_site_type_symbol
 _atom_site_label
 _atom_site_symmetry_multiplicity
 _atom_site_fract_x
 _atom_site_fract_y
 _atom_site_fract_z
 _atom_site_occupancy
  Ca  Ca0  1  0.75146000  0.50045500  0.19716500  1
  Ca  Ca1  1  0.75142800  0.00044000  0.69659600  1
  Ca  Ca2  1  0.24833200  0.49956700  0.80261500  1
  Ca  Ca3  1  0.24854300  0.99949900  0.30341800  1
  Fe  Fe4  1  0.74888900  0.00024400  0.09043400  1
  Fe  Fe5  1  0.25114800  0.99984200  0.90955400  1
  Fe  Fe6  1  0.74942900  0.50012600  0.59115800  1
  Fe  Fe7  1  0.25069400  0.49980100  0.40851500  1
  Ge  Ge8  1  0.77304900  0.28619800  0.90336400  1
  Ge  Ge9  1  0.77284300  0.78634000  0.40349900  1
  Ge  Ge10  1  0.72786900  0.71467000  0.90068900  1
  Ge  Ge11  1  0.72800400  0.21436800  0.40044900  1
  Ge  Ge12  1  0.22695300  0.71386000  0.09674900  1
  Ge  Ge13  1  0.22704700  0.21350400  0.59651600  1
  Ge  Ge14  1  0.27212800  0.28536500  0.09948200  1
  Ge  Ge15  1  0.27210300  0.78561300  0.59952500  1
  O  O16  1  0.52242400  0.35817400  0.03246400  1
  O  O17  1  0.52246400  0.85840900  0.53259400  1
  O  O18  1  0.97548300  0.64288300  0.03462300  1
  O  O19  1  0.97549500  0.14264900  0.53436000  1
  O  O20  1  0.47739800  0.64186000  0.96754600  1
  O  O21  1  0.47750100  0.14164000  0.46733800  1
  O  O22  1  0.02451000  0.35714500  0.96562300  1
  O  O23  1  0.02440700  0.85717600  0.46566000  1
  O  O24  1  0.14941800  0.36624500  0.25691000  1
  O  O25  1  0.14947700  0.86716100  0.75648600  1
  O  O26  1  0.34553100  0.63259600  0.25814900  1
  O  O27  1  0.34542800  0.13175800  0.75755100  1
  O  O28  1  0.85080500  0.63365300  0.74343600  1
  O  O29  1  0.85063300  0.13290700  0.24343700  1
  O  O30  1  0.65479500  0.36785800  0.74212900  1
  O  O31  1  0.65477700  0.86815400  0.24243500  1
  O  O32  1  0.85607100  0.11154700  0.90792600  1
  O  O33  1  0.85518100  0.61166100  0.40858000  1
  O  O34  1  0.63890400  0.88855000  0.90527000  1
  O  O35  1  0.63923800  0.38813800  0.40530700  1
  O  O36  1  0.14394200  0.88851200  0.09211100  1
  O  O37  1  0.14399200  0.38814900  0.59145700  1
  O  O38  1  0.36102500  0.11149300  0.09479300  1
  O  O39  1  0.36118300  0.61179300  0.59409000  1
