# generated using pymatgen
data_Sr2FeSnO6
_symmetry_space_group_name_H-M   'P 1'
_cell_length_a   5.68883531
_cell_length_b   8.14543908
_cell_length_c   12.09684521
_cell_angle_alpha   70.33613914
_cell_angle_beta   90.00816136
_cell_angle_gamma   90.01174070
_symmetry_Int_Tables_number   1
_chemical_formula_structural   Sr2FeSnO6
_chemical_formula_sum   'Sr8 Fe4 Sn4 O24'
_cell_volume   527.85506676
_cell_formula_units_Z   4
loop_
 _symmetry_equiv_pos_site_id
 _symmetry_equiv_pos_as_xyz
  1  'x, y, z'
loop_
 _atom_site_type_symbol
 _atom_site_label
 _atom_site_symmetry_multiplicity
 _atom_site_fract_x
 _atom_site_fract_y
 _atom_site_fract_z
 _atom_site_occupancy
  Sr  Sr0  1  0.99998800  0.75098300  0.50000800  1
  Sr  Sr1  1  0.99999000  0.50001800  0.99995700  1
  Sr  Sr2  1  0.99999100  0.24896900  0.50010300  1
  Sr  Sr3  1  0.99999000  0.00002700  0.99994400  1
  Sr  Sr4  1  0.50004100  0.62586500  0.75002000  1
  Sr  Sr5  1  0.49999400  0.37414500  0.24997900  1
  Sr  Sr6  1  0.50004000  0.12412100  0.75003400  1
  Sr  Sr7  1  0.49996800  0.87587300  0.24996100  1
  Fe  Fe8  1  0.99999800  0.12496400  0.25002100  1
  Fe  Fe9  1  0.00006500  0.87503800  0.75000200  1
  Fe  Fe10  1  0.00001100  0.37515000  0.74997600  1
  Fe  Fe11  1  0.99999000  0.62491300  0.25001400  1
  Sn  Sn12  1  0.49999100  0.50004000  0.49993300  1
  Sn  Sn13  1  0.50000600  0.25016300  0.99958300  1
  Sn  Sn14  1  0.50002400  0.00002500  0.49995600  1
  Sn  Sn15  1  0.50001000  0.74975300  0.00052700  1
  O  O16  1  0.49997400  0.75007100  0.49996200  1
  O  O17  1  0.49998800  0.49998500  0.00001100  1
  O  O18  1  0.49999000  0.24996100  0.50000200  1
  O  O19  1  0.49999200  0.99998900  0.00000900  1
  O  O20  1  0.99999500  0.63192900  0.74986600  1
  O  O21  1  0.99998700  0.36815300  0.25013100  1
  O  O22  1  0.00004200  0.11811900  0.74991900  1
  O  O23  1  0.99999400  0.88178600  0.25008300  1
  O  O24  1  0.24508900  0.31361700  0.87260200  1
  O  O25  1  0.24483300  0.06359000  0.37281200  1
  O  O26  1  0.24608100  0.81386100  0.87197300  1
  O  O27  1  0.24491000  0.56365300  0.37257300  1
  O  O28  1  0.75507400  0.43637200  0.62739100  1
  O  O29  1  0.75392100  0.18611500  0.12805900  1
  O  O30  1  0.75522100  0.93642400  0.62718000  1
  O  O31  1  0.75487000  0.68635100  0.12744500  1
  O  O32  1  0.24479800  0.43634800  0.62740800  1
  O  O33  1  0.24596900  0.18607500  0.12811000  1
  O  O34  1  0.24472300  0.93639600  0.62722200  1
  O  O35  1  0.24503300  0.68635900  0.12746200  1
  O  O36  1  0.75499000  0.31363100  0.87254600  1
  O  O37  1  0.75526000  0.06361300  0.37275000  1
  O  O38  1  0.75404500  0.81389200  0.87192500  1
  O  O39  1  0.75512500  0.56366600  0.37253900  1
