# generated using pymatgen
data_Mn2Bi3O7
_symmetry_space_group_name_H-M   'P 1'
_cell_length_a   5.82468907
_cell_length_b   5.85056173
_cell_length_c   10.63503543
_cell_angle_alpha   104.92461695
_cell_angle_beta   90.00853854
_cell_angle_gamma   89.98232068
_symmetry_Int_Tables_number   1
_chemical_formula_structural   Mn2Bi3O7
_chemical_formula_sum   'Mn4 Bi6 O14'
_cell_volume   350.19159046
_cell_formula_units_Z   2
loop_
 _symmetry_equiv_pos_site_id
 _symmetry_equiv_pos_as_xyz
  1  'x, y, z'
loop_
 _atom_site_type_symbol
 _atom_site_label
 _atom_site_symmetry_multiplicity
 _atom_site_fract_x
 _atom_site_fract_y
 _atom_site_fract_z
 _atom_site_occupancy
  Mn  Mn0  1  0.01111800  0.15600000  0.78602900  1
  Mn  Mn1  1  0.50571300  0.62445200  0.78860500  1
  Mn  Mn2  1  0.00585300  0.37538400  0.21143000  1
  Mn  Mn3  1  0.51105400  0.84401700  0.21392700  1
  Bi  Bi4  1  0.41182200  0.15033900  0.99958000  1
  Bi  Bi5  1  0.91195000  0.84987000  0.00042300  1
  Bi  Bi6  1  0.03832300  0.95914100  0.36974100  1
  Bi  Bi7  1  0.03511600  0.58189800  0.62740700  1
  Bi  Bi8  1  0.53843200  0.04070400  0.63023900  1
  Bi  Bi9  1  0.53527100  0.41798400  0.37264200  1
  O  O10  1  0.53248500  0.77335200  0.99524800  1
  O  O11  1  0.03239500  0.22691200  0.00480100  1
  O  O12  1  0.42771600  0.06904100  0.43342300  1
  O  O13  1  0.43652400  0.63008200  0.57423900  1
  O  O14  1  0.92765000  0.93083600  0.56650100  1
  O  O15  1  0.93636800  0.36984100  0.42580600  1
  O  O16  1  0.27457900  0.62605300  0.25433200  1
  O  O17  1  0.25427100  0.35318200  0.74470700  1
  O  O18  1  0.77475700  0.37379600  0.74556900  1
  O  O19  1  0.75436900  0.64679600  0.25530400  1
  O  O20  1  0.27994700  0.08605600  0.18636100  1
  O  O21  1  0.26196100  0.92591300  0.81186100  1
  O  O22  1  0.78018700  0.91406200  0.81356200  1
  O  O23  1  0.76213900  0.07428800  0.18826000  1
