# generated using pymatgen
data_Na4FeO5
_symmetry_space_group_name_H-M   'P 1'
_cell_length_a   5.75061559
_cell_length_b   5.72210416
_cell_length_c   8.73639940
_cell_angle_alpha   108.19003112
_cell_angle_beta   76.75162173
_cell_angle_gamma   79.52818493
_symmetry_Int_Tables_number   1
_chemical_formula_structural   Na4FeO5
_chemical_formula_sum   'Na8 Fe2 O10'
_cell_volume   255.67502759
_cell_formula_units_Z   2
loop_
 _symmetry_equiv_pos_site_id
 _symmetry_equiv_pos_as_xyz
  1  'x, y, z'
loop_
 _atom_site_type_symbol
 _atom_site_label
 _atom_site_symmetry_multiplicity
 _atom_site_fract_x
 _atom_site_fract_y
 _atom_site_fract_z
 _atom_site_occupancy
  Na  Na0  1  0.49476800  0.18899500  0.90032300  1
  Na  Na1  1  0.99535700  0.20251100  0.39973900  1
  Na  Na2  1  0.48235700  0.60569000  0.69464600  1
  Na  Na3  1  0.98425900  0.59442900  0.19605700  1
  Na  Na4  1  0.50667400  0.40013000  0.30449000  1
  Na  Na5  1  0.01776500  0.39314100  0.80253400  1
  Na  Na6  1  0.49500800  0.80968900  0.10508000  1
  Na  Na7  1  0.99774700  0.81427000  0.60736600  1
  Fe  Fe8  1  0.51335100  0.00005100  0.49080100  1
  Fe  Fe9  1  0.97334900  0.99678500  0.02867400  1
  O  O10  1  0.31466500  0.00334800  0.69260100  1
  O  O11  1  0.72551600  0.00049800  0.27736300  1
  O  O12  1  0.18130100  0.16441000  0.12075300  1
  O  O13  1  0.68788500  0.17020400  0.61776500  1
  O  O14  1  0.20334100  0.68684300  0.96914200  1
  O  O15  1  0.71705500  0.68304700  0.45819600  1
  O  O16  1  0.78934000  0.30265900  0.03538800  1
  O  O17  1  0.29275500  0.31490200  0.52756400  1
  O  O18  1  0.81183600  0.83027200  0.88758600  1
  O  O19  1  0.31567100  0.83812500  0.38393200  1
