# generated using pymatgen
data_TiFeO4
_symmetry_space_group_name_H-M   'P 1'
_cell_length_a   5.52220826
_cell_length_b   7.72954195
_cell_length_c   7.61166458
_cell_angle_alpha   75.74465028
_cell_angle_beta   69.87974518
_cell_angle_gamma   101.70895679
_symmetry_Int_Tables_number   1
_chemical_formula_structural   TiFeO4
_chemical_formula_sum   'Ti4 Fe4 O16'
_cell_volume   280.51805997
_cell_formula_units_Z   4
loop_
 _symmetry_equiv_pos_site_id
 _symmetry_equiv_pos_as_xyz
  1  'x, y, z'
loop_
 _atom_site_type_symbol
 _atom_site_label
 _atom_site_symmetry_multiplicity
 _atom_site_fract_x
 _atom_site_fract_y
 _atom_site_fract_z
 _atom_site_occupancy
  Ti  Ti0  1  0.62469700  0.12640300  0.30870900  1
  Ti  Ti1  1  0.63537600  0.12340900  0.81442700  1
  Ti  Ti2  1  0.11910400  0.62667400  0.56779000  1
  Ti  Ti3  1  0.11752400  0.62463100  0.06011400  1
  Fe  Fe4  1  0.99102400  0.00217500  0.50066400  1
  Fe  Fe5  1  0.48528500  0.50519000  0.25247100  1
  Fe  Fe6  1  0.01663600  0.99503300  0.99779800  1
  Fe  Fe7  1  0.50878000  0.49618200  0.74823300  1
  O  O8  1  0.30893700  0.22922700  0.36630200  1
  O  O9  1  0.32130100  0.22447800  0.86302100  1
  O  O10  1  0.81528500  0.72639500  0.61421900  1
  O  O11  1  0.82061700  0.73122800  0.11176300  1
  O  O12  1  0.93619600  0.02405100  0.26860900  1
  O  O13  1  0.94030600  0.02062100  0.75074500  1
  O  O14  1  0.43321100  0.52490000  0.50194600  1
  O  O15  1  0.42653200  0.51819000  0.02227400  1
  O  O16  1  0.78861200  0.39765800  0.20238100  1
  O  O17  1  0.81505400  0.39291400  0.69974600  1
  O  O18  1  0.30020500  0.90645700  0.44730000  1
  O  O19  1  0.31986900  0.89545500  0.94679100  1
  O  O20  1  0.18632200  0.60520200  0.30210000  1
  O  O21  1  0.19308200  0.60185500  0.80132100  1
  O  O22  1  0.69282300  0.10183700  0.55048900  1
  O  O23  1  0.70322100  0.09983700  0.05078600  1
