# generated using pymatgen
data_MnO2
_symmetry_space_group_name_H-M   'P 1'
_cell_length_a   7.17139435
_cell_length_b   7.17139474
_cell_length_c   7.17139464
_cell_angle_alpha   23.52919495
_cell_angle_beta   23.52920047
_cell_angle_gamma   23.52920042
_symmetry_Int_Tables_number   1
_chemical_formula_structural   MnO2
_chemical_formula_sum   'Mn1 O2'
_cell_volume   51.61974228
_cell_formula_units_Z   1
loop_
 _symmetry_equiv_pos_site_id
 _symmetry_equiv_pos_as_xyz
  1  'x, y, z'
loop_
 _atom_site_type_symbol
 _atom_site_label
 _atom_site_symmetry_multiplicity
 _atom_site_fract_x
 _atom_site_fract_y
 _atom_site_fract_z
 _atom_site_occupancy
  Mn  Mn0  1  0.00000000  0.00000000  0.00000000  1
  O  O1  1  0.62081800  0.62081800  0.62081800  1
  O  O2  1  0.37918200  0.37918200  0.37918200  1
