# generated using pymatgen
data_Y(FeO2)2
_symmetry_space_group_name_H-M   'P 1'
_cell_length_a   3.50859293
_cell_length_b   8.72540500
_cell_length_c   6.13770514
_cell_angle_alpha   95.69399350
_cell_angle_beta   90.00699787
_cell_angle_gamma   78.39900526
_symmetry_Int_Tables_number   1
_chemical_formula_structural   Y(FeO2)2
_chemical_formula_sum   'Y2 Fe4 O8'
_cell_volume   183.11454611
_cell_formula_units_Z   2
loop_
 _symmetry_equiv_pos_site_id
 _symmetry_equiv_pos_as_xyz
  1  'x, y, z'
loop_
 _atom_site_type_symbol
 _atom_site_label
 _atom_site_symmetry_multiplicity
 _atom_site_fract_x
 _atom_site_fract_y
 _atom_site_fract_z
 _atom_site_occupancy
  Y  Y0  1  0.49872300  0.00254600  0.50334900  1
  Y  Y1  1  0.00127000  0.99745400  0.99669500  1
  Fe  Fe2  1  0.32056700  0.35875100  0.89021700  1
  Fe  Fe3  1  0.68027300  0.63931900  0.10942700  1
  Fe  Fe4  1  0.81973100  0.36070300  0.39050900  1
  Fe  Fe5  1  0.17940000  0.64135400  0.60960600  1
  O  O6  1  0.18874400  0.62226700  0.94767600  1
  O  O7  1  0.69678300  0.60649600  0.42047000  1
  O  O8  1  0.31122500  0.37777600  0.55241300  1
  O  O9  1  0.80327000  0.39339800  0.07952600  1
  O  O10  1  0.43986100  0.12013000  0.85304200  1
  O  O11  1  0.93489300  0.13019500  0.34796200  1
  O  O12  1  0.06015600  0.87982300  0.64697500  1
  O  O13  1  0.56510600  0.86979000  0.15213300  1
