# generated using pymatgen
data_SrLaFeCoO6
_symmetry_space_group_name_H-M   'P 1'
_cell_length_a   5.50165822
_cell_length_b   9.53616866
_cell_length_c   5.50177151
_cell_angle_alpha   106.77313736
_cell_angle_beta   60.00063401
_cell_angle_gamma   90.00005142
_symmetry_Int_Tables_number   1
_chemical_formula_structural   SrLaFeCoO6
_chemical_formula_sum   'Sr2 La2 Fe2 Co2 O12'
_cell_volume   235.69208187
_cell_formula_units_Z   2
loop_
 _symmetry_equiv_pos_site_id
 _symmetry_equiv_pos_as_xyz
  1  'x, y, z'
loop_
 _atom_site_type_symbol
 _atom_site_label
 _atom_site_symmetry_multiplicity
 _atom_site_fract_x
 _atom_site_fract_y
 _atom_site_fract_z
 _atom_site_occupancy
  Sr  Sr0  1  0.87584200  0.37231600  0.24831700  1
  Sr  Sr1  1  0.37434100  0.87716200  0.25131900  1
  La  La2  1  0.12286700  0.63187300  0.75426200  1
  La  La3  1  0.62807700  0.11823300  0.74384600  1
  Fe  Fe4  1  0.75033200  0.74916300  0.49934700  1
  Fe  Fe5  1  0.25033000  0.24956200  0.49932900  1
  Co  Co6  1  0.50111100  0.49701200  0.99777400  1
  Co  Co7  1  0.00003600  0.00073700  0.99992800  1
  O  O8  1  0.87326000  0.37580100  0.75139400  1
  O  O9  1  0.36652600  0.87833900  0.75559200  1
  O  O10  1  0.63309100  0.12183500  0.24595700  1
  O  O11  1  0.12747400  0.62528500  0.24891000  1
  O  O12  1  0.37534900  0.37580000  0.75139000  1
  O  O13  1  0.87788400  0.87833800  0.75559300  1
  O  O14  1  0.12095200  0.12183600  0.24595800  1
  O  O15  1  0.62361500  0.62528200  0.24891100  1
  O  O16  1  0.62364900  0.62527300  0.75270800  1
  O  O17  1  0.12211500  0.12202400  0.75577700  1
  O  O18  1  0.37566500  0.37565200  0.24867000  1
  O  O19  1  0.87748600  0.87847800  0.24502200  1
