# generated using pymatgen
data_Na2V2O5
_symmetry_space_group_name_H-M   'P 1'
_cell_length_a   5.41109044
_cell_length_b   5.57535914
_cell_length_c   8.24430905
_cell_angle_alpha   109.76963531
_cell_angle_beta   109.07375496
_cell_angle_gamma   90.02141942
_symmetry_Int_Tables_number   1
_chemical_formula_structural   Na2V2O5
_chemical_formula_sum   'Na4 V4 O10'
_cell_volume   219.48427032
_cell_formula_units_Z   2
loop_
 _symmetry_equiv_pos_site_id
 _symmetry_equiv_pos_as_xyz
  1  'x, y, z'
loop_
 _atom_site_type_symbol
 _atom_site_label
 _atom_site_symmetry_multiplicity
 _atom_site_fract_x
 _atom_site_fract_y
 _atom_site_fract_z
 _atom_site_occupancy
  Na  Na0  1  0.60713700  0.13555100  0.21514500  1
  Na  Na1  1  0.39267000  0.86300900  0.78462900  1
  Na  Na2  1  0.10710600  0.57984000  0.21512800  1
  Na  Na3  1  0.89278700  0.42154700  0.78466900  1
  V  V4  1  0.01153900  0.00148900  0.00025000  1
  V  V5  1  0.51134200  0.49877200  0.00028000  1
  V  V6  1  0.20817100  0.18040900  0.50001200  1
  V  V7  1  0.70845900  0.81950300  0.50027400  1
  O  O8  1  0.24021600  0.22398400  0.97712400  1
  O  O9  1  0.28743400  0.74413700  0.02270700  1
  O  O10  1  0.73952800  0.25271100  0.97675800  1
  O  O11  1  0.78793100  0.77840500  0.02217100  1
  O  O12  1  0.16746900  0.20318000  0.28352700  1
  O  O13  1  0.88489800  0.79826300  0.71710100  1
  O  O14  1  0.66824900  0.58247000  0.28311100  1
  O  O15  1  0.38445200  0.41699500  0.71744900  1
  O  O16  1  0.86398100  0.12010900  0.49941500  1
  O  O17  1  0.36463400  0.87962700  0.50025100  1
