# generated using pymatgen
data_Ba2LaMn2O7
_symmetry_space_group_name_H-M   'P 1'
_cell_length_a   5.67516337
_cell_length_b   10.80004522
_cell_length_c   5.67518034
_cell_angle_alpha   105.23167010
_cell_angle_beta   89.99938606
_cell_angle_gamma   90.00009644
_symmetry_Int_Tables_number   1
_chemical_formula_structural   Ba2LaMn2O7
_chemical_formula_sum   'Ba4 La2 Mn4 O14'
_cell_volume   335.62403300
_cell_formula_units_Z   2
loop_
 _symmetry_equiv_pos_site_id
 _symmetry_equiv_pos_as_xyz
  1  'x, y, z'
loop_
 _atom_site_type_symbol
 _atom_site_label
 _atom_site_symmetry_multiplicity
 _atom_site_fract_x
 _atom_site_fract_y
 _atom_site_fract_z
 _atom_site_occupancy
  Ba  Ba0  1  0.00000000  0.36247100  0.68124200  1
  Ba  Ba1  1  0.50000000  0.36228600  0.18115100  1
  Ba  Ba2  1  0.50000000  0.63752900  0.81875900  1
  Ba  Ba3  1  0.00000100  0.63771400  0.31884900  1
  La  La4  1  0.99999900  0.00000200  0.49999800  1
  La  La5  1  0.50000200  0.99999800  0.99999800  1
  Mn  Mn6  1  0.00000100  0.81576500  0.90790100  1
  Mn  Mn7  1  0.50000000  0.18424300  0.59210300  1
  Mn  Mn8  1  0.50000000  0.81161500  0.40583300  1
  Mn  Mn9  1  0.99999900  0.18837700  0.09416400  1
  O  O10  1  0.50000100  0.99587300  0.49792500  1
  O  O11  1  0.99999900  0.00412800  0.00207700  1
  O  O12  1  0.00000000  0.62957000  0.81483600  1
  O  O13  1  0.50000100  0.62704000  0.31356700  1
  O  O14  1  0.50000000  0.37043000  0.68516500  1
  O  O15  1  0.00000000  0.37295900  0.18643200  1
  O  O16  1  0.76005200  0.82793700  0.67421300  1
  O  O17  1  0.23993300  0.82793200  0.15377200  1
  O  O18  1  0.76006100  0.82793100  0.15377400  1
  O  O19  1  0.23995000  0.82793700  0.67421000  1
  O  O20  1  0.73994800  0.17206300  0.82578600  1
  O  O21  1  0.26006400  0.17206800  0.34622900  1
  O  O22  1  0.73993700  0.17206900  0.34622400  1
  O  O23  1  0.26005100  0.17206400  0.82579200  1
