# generated using pymatgen
data_SrCrO2
_symmetry_space_group_name_H-M   'P 1'
_cell_length_a   5.35285619
_cell_length_b   6.72403553
_cell_length_c   6.72402587
_cell_angle_alpha   74.47488095
_cell_angle_beta   82.76853795
_cell_angle_gamma   82.76860045
_symmetry_Int_Tables_number   1
_chemical_formula_structural   SrCrO2
_chemical_formula_sum   'Sr4 Cr4 O8'
_cell_volume   230.25292051
_cell_formula_units_Z   4
loop_
 _symmetry_equiv_pos_site_id
 _symmetry_equiv_pos_as_xyz
  1  'x, y, z'
loop_
 _atom_site_type_symbol
 _atom_site_label
 _atom_site_symmetry_multiplicity
 _atom_site_fract_x
 _atom_site_fract_y
 _atom_site_fract_z
 _atom_site_occupancy
  Sr  Sr0  1  0.50228200  0.25156600  0.75156700  1
  Sr  Sr1  1  0.99770700  0.49843600  0.99843300  1
  Sr  Sr2  1  0.50228100  0.75156800  0.25156500  1
  Sr  Sr3  1  0.99771000  0.99843200  0.49843300  1
  Cr  Cr4  1  0.01008700  0.49410400  0.49409800  1
  Cr  Cr5  1  0.48990700  0.75590700  0.75590500  1
  Cr  Cr6  1  0.01000500  0.99410800  0.99411400  1
  Cr  Cr7  1  0.49002000  0.25588300  0.25588900  1
  O  O8  1  0.00162000  0.24893600  0.74893800  1
  O  O9  1  0.49841500  0.50104200  0.00104200  1
  O  O10  1  0.00161900  0.74893700  0.24893700  1
  O  O11  1  0.49841700  0.00104300  0.50104400  1
  O  O12  1  0.24991200  0.62504900  0.62504700  1
  O  O13  1  0.75004100  0.87496200  0.87496100  1
  O  O14  1  0.24990600  0.12505300  0.12505200  1
  O  O15  1  0.75007100  0.37497500  0.37497500  1
