# generated using pymatgen
data_Na2MnO2
_symmetry_space_group_name_H-M   'P 1'
_cell_length_a   5.83102550
_cell_length_b   10.10897249
_cell_length_c   6.01284120
_cell_angle_alpha   102.91720770
_cell_angle_beta   118.72947333
_cell_angle_gamma   73.09192762
_symmetry_Int_Tables_number   1
_chemical_formula_structural   Na2MnO2
_chemical_formula_sum   'Na8 Mn4 O8'
_cell_volume   295.88004360
_cell_formula_units_Z   4
loop_
 _symmetry_equiv_pos_site_id
 _symmetry_equiv_pos_as_xyz
  1  'x, y, z'
loop_
 _atom_site_type_symbol
 _atom_site_label
 _atom_site_symmetry_multiplicity
 _atom_site_fract_x
 _atom_site_fract_y
 _atom_site_fract_z
 _atom_site_occupancy
  Na  Na0  1  0.22392800  0.32645400  0.97945200  1
  Na  Na1  1  0.72393400  0.82647300  0.47944100  1
  Na  Na2  1  0.17845200  0.57708500  0.73131500  1
  Na  Na3  1  0.67842700  0.07710800  0.23131300  1
  Na  Na4  1  0.82157300  0.42289200  0.26868700  1
  Na  Na5  1  0.32154800  0.92291500  0.76868500  1
  Na  Na6  1  0.77606600  0.67352700  0.02055900  1
  Na  Na7  1  0.27607200  0.17354600  0.52054800  1
  Mn  Mn8  1  0.37740800  0.62255000  0.37722200  1
  Mn  Mn9  1  0.12259200  0.87745000  0.12277700  1
  Mn  Mn10  1  0.87740600  0.12256300  0.87722500  1
  Mn  Mn11  1  0.62259500  0.37743700  0.62277600  1
  O  O12  1  0.76727700  0.54918700  0.64772500  1
  O  O13  1  0.26725900  0.04922200  0.14771600  1
  O  O14  1  0.41542500  0.70145600  0.10444000  1
  O  O15  1  0.91543200  0.20145500  0.60443700  1
  O  O16  1  0.58456800  0.29854500  0.89556300  1
  O  O17  1  0.08457500  0.79854400  0.39556000  1
  O  O18  1  0.23274100  0.45077800  0.35228400  1
  O  O19  1  0.73272300  0.95081300  0.85227500  1
