# generated using pymatgen
data_FePH6NO5
_symmetry_space_group_name_H-M   'P 1'
_cell_length_a   7.47873876
_cell_length_b   10.22885285
_cell_length_c   7.51282366
_cell_angle_alpha   72.14665076
_cell_angle_beta   99.54074746
_cell_angle_gamma   72.29555428
_symmetry_Int_Tables_number   1
_chemical_formula_structural   FePH6NO5
_chemical_formula_sum   'Fe4 P4 H24 N4 O20'
_cell_volume   499.42959014
_cell_formula_units_Z   4
loop_
 _symmetry_equiv_pos_site_id
 _symmetry_equiv_pos_as_xyz
  1  'x, y, z'
loop_
 _atom_site_type_symbol
 _atom_site_label
 _atom_site_symmetry_multiplicity
 _atom_site_fract_x
 _atom_site_fract_y
 _atom_site_fract_z
 _atom_site_occupancy
  Fe  Fe0  1  0.99405400  0.01865500  0.49374700  1
  Fe  Fe1  1  0.01280900  0.98126600  0.01236400  1
  Fe  Fe2  1  0.49167200  0.02436100  0.98958900  1
  Fe  Fe3  1  0.51573500  0.97563300  0.51356300  1
  P  P4  1  0.88538900  0.80275000  0.38660300  1
  P  P5  1  0.38721900  0.80554100  0.88576000  1
  P  P6  1  0.19242300  0.19431700  0.19144700  1
  P  P7  1  0.68810500  0.19721600  0.68954800  1
  H  H8  1  0.38127100  0.54315700  0.88487500  1
  H  H9  1  0.88316500  0.54187500  0.38593500  1
  H  H10  1  0.92433200  0.45681600  0.92798700  1
  H  H11  1  0.42507100  0.45815800  0.42782700  1
  H  H12  1  0.20043200  0.54609400  0.70385400  1
  H  H13  1  0.70098100  0.54706500  0.20469400  1
  H  H14  1  0.24805300  0.45288900  0.25184600  1
  H  H15  1  0.74640800  0.45391400  0.74991300  1
  H  H16  1  0.43076600  0.41563600  0.77868200  1
  H  H17  1  0.93002400  0.41477800  0.27885800  1
  H  H18  1  0.28442300  0.40978400  0.92965400  1
  H  H19  1  0.78310200  0.41061400  0.42997400  1
  H  H20  1  0.19398100  0.58944400  0.34060800  1
  H  H21  1  0.69442400  0.59021600  0.83955800  1
  H  H22  1  0.84660800  0.58432800  0.69437400  1
  H  H23  1  0.34509400  0.58516000  0.19368000  1
  H  H24  1  0.25928200  0.19257100  0.61907900  1
  H  H25  1  0.76210000  0.18663600  0.12669300  1
  H  H26  1  0.11934800  0.19321500  0.75182700  1
  H  H27  1  0.62397000  0.18824400  0.26242900  1
  H  H28  1  0.31224500  0.80678900  0.44482500  1
  H  H29  1  0.81206600  0.81209700  0.94987500  1
  H  H30  1  0.94928300  0.81356300  0.81316300  1
  H  H31  1  0.45128600  0.80755400  0.31116800  1
  N  N32  1  0.32470600  0.47810700  0.82496300  1
  N  N33  1  0.82473100  0.47789300  0.32527300  1
  N  N34  1  0.80285500  0.52188000  0.80311700  1
  N  N35  1  0.30274600  0.52209800  0.30322800  1
  O  O36  1  0.21443100  0.83792100  0.71494900  1
  O  O37  1  0.71645600  0.83331600  0.21458200  1
  O  O38  1  0.05189100  0.16205300  0.05291300  1
  O  O39  1  0.54986000  0.16643200  0.54819800  1
  O  O40  1  0.99313300  0.63221000  0.50145200  1
  O  O41  1  0.48956400  0.63480500  0.00032600  1
  O  O42  1  0.12466200  0.36502200  0.13521600  1
  O  O43  1  0.62559900  0.36782300  0.63334700  1
  O  O44  1  0.24306900  0.20648400  0.74053600  1
  O  O45  1  0.75012200  0.19713200  0.25098400  1
  O  O46  1  0.94727400  0.80309700  0.94781600  1
  O  O47  1  0.44911600  0.79372700  0.44655900  1
  O  O48  1  0.03449600  0.87258600  0.31676400  1
  O  O49  1  0.53777200  0.87199400  0.81366000  1
  O  O50  1  0.81030300  0.87790200  0.52969800  1
  O  O51  1  0.31712900  0.88375400  0.02704300  1
  O  O52  1  0.68756600  0.12263300  0.90769100  1
  O  O53  1  0.20036400  0.11620500  0.41088600  1
  O  O54  1  0.40940900  0.12747000  0.18621400  1
  O  O55  1  0.90702600  0.12712000  0.68998900  1
