# generated using pymatgen
data_AlV2O4
_symmetry_space_group_name_H-M   'P 1'
_cell_length_a   5.94854279
_cell_length_b   5.97918822
_cell_length_c   10.22863095
_cell_angle_alpha   72.81524657
_cell_angle_beta   90.99411043
_cell_angle_gamma   120.58191607
_symmetry_Int_Tables_number   1
_chemical_formula_structural   AlV2O4
_chemical_formula_sum   'Al4 V8 O16'
_cell_volume   295.28336601
_cell_formula_units_Z   4
loop_
 _symmetry_equiv_pos_site_id
 _symmetry_equiv_pos_as_xyz
  1  'x, y, z'
loop_
 _atom_site_type_symbol
 _atom_site_label
 _atom_site_symmetry_multiplicity
 _atom_site_fract_x
 _atom_site_fract_y
 _atom_site_fract_z
 _atom_site_occupancy
  Al  Al0  1  0.68814600  0.37375400  0.93588300  1
  Al  Al1  1  0.19569600  0.37786600  0.43547500  1
  Al  Al2  1  0.81190300  0.62627100  0.56413500  1
  Al  Al3  1  0.30430600  0.62216600  0.06449800  1
  V  V4  1  0.24997200  0.49993600  0.75000000  1
  V  V5  1  0.25000900  0.00009100  0.74998900  1
  V  V6  1  0.24999400  0.00001400  0.25000400  1
  V  V7  1  0.99695300  0.99892500  0.99933600  1
  V  V8  1  0.50306100  0.00105300  0.50067700  1
  V  V9  1  0.75000900  0.49999100  0.25000100  1
  V  V10  1  0.75001800  0.00000500  0.24999700  1
  V  V11  1  0.74997200  0.99997700  0.74998600  1
  O  O12  1  0.86829500  0.74526300  0.37809300  1
  O  O13  1  0.37321300  0.75546700  0.87733700  1
  O  O14  1  0.63171800  0.25472200  0.12192100  1
  O  O15  1  0.12671400  0.24451600  0.62263700  1
  O  O16  1  0.86586400  0.24729700  0.87283000  1
  O  O17  1  0.38416800  0.26249700  0.37354300  1
  O  O18  1  0.12425000  0.75665800  0.62591900  1
  O  O19  1  0.61822200  0.74347200  0.13192800  1
  O  O20  1  0.63134300  0.25324000  0.62864400  1
  O  O21  1  0.11648200  0.25286400  0.12611800  1
  O  O22  1  0.37577800  0.24333800  0.87412700  1
  O  O23  1  0.88176700  0.25650900  0.36805800  1
  O  O24  1  0.63407700  0.75264000  0.62718700  1
  O  O25  1  0.11585400  0.73751300  0.12646700  1
  O  O26  1  0.86866100  0.74677600  0.87135000  1
  O  O27  1  0.38355100  0.74718100  0.37386100  1
