# generated using pymatgen
data_CrO
_symmetry_space_group_name_H-M   'P 1'
_cell_length_a   4.10984559
_cell_length_b   5.44988699
_cell_length_c   4.46821797
_cell_angle_alpha   89.99996102
_cell_angle_beta   90.00008230
_cell_angle_gamma   91.54429763
_symmetry_Int_Tables_number   1
_chemical_formula_structural   CrO
_chemical_formula_sum   'Cr4 O4'
_cell_volume   100.04366289
_cell_formula_units_Z   4
loop_
 _symmetry_equiv_pos_site_id
 _symmetry_equiv_pos_as_xyz
  1  'x, y, z'
loop_
 _atom_site_type_symbol
 _atom_site_label
 _atom_site_symmetry_multiplicity
 _atom_site_fract_x
 _atom_site_fract_y
 _atom_site_fract_z
 _atom_site_occupancy
  Cr  Cr0  1  0.40003900  0.90005700  0.50002700  1
  Cr  Cr1  1  0.40004300  0.40006000  0.99997500  1
  Cr  Cr2  1  0.90004700  0.90005100  0.00002100  1
  Cr  Cr3  1  0.90004800  0.40006000  0.49997500  1
  O  O4  1  0.65000500  0.14994200  0.24273000  1
  O  O5  1  0.15000800  0.14994400  0.74273200  1
  O  O6  1  0.65000500  0.64994400  0.25727200  1
  O  O7  1  0.15000900  0.64994100  0.75726800  1
