# generated using pymatgen
data_Sr2HfFeO6
_symmetry_space_group_name_H-M   'P 1'
_cell_length_a   5.70381955
_cell_length_b   9.81338468
_cell_length_c   5.66406099
_cell_angle_alpha   106.87375987
_cell_angle_beta   119.87597191
_cell_angle_gamma   73.21220912
_symmetry_Int_Tables_number   1
_chemical_formula_structural   Sr2HfFeO6
_chemical_formula_sum   'Sr4 Hf2 Fe2 O12'
_cell_volume   259.06547073
_cell_formula_units_Z   2
loop_
 _symmetry_equiv_pos_site_id
 _symmetry_equiv_pos_as_xyz
  1  'x, y, z'
loop_
 _atom_site_type_symbol
 _atom_site_label
 _atom_site_symmetry_multiplicity
 _atom_site_fract_x
 _atom_site_fract_y
 _atom_site_fract_z
 _atom_site_occupancy
  Sr  Sr0  1  0.61575200  0.12546700  0.37093600  1
  Sr  Sr1  1  0.13234700  0.62503900  0.87864200  1
  Sr  Sr2  1  0.86768900  0.37492400  0.12135300  1
  Sr  Sr3  1  0.38424700  0.87449500  0.62907100  1
  Hf  Hf4  1  0.23860700  0.25009000  0.74463300  1
  Hf  Hf5  1  0.76137000  0.74995700  0.25535600  1
  Fe  Fe6  1  0.50006300  0.50006000  0.49997900  1
  Fe  Fe7  1  0.99981100  0.00011900  0.99998000  1
  O  O8  1  0.59815600  0.11448900  0.85712200  1
  O  O9  1  0.16933000  0.63053800  0.39940600  1
  O  O10  1  0.83067600  0.36944100  0.60058300  1
  O  O11  1  0.40182500  0.88547500  0.14287800  1
  O  O12  1  0.34903700  0.38235400  0.11960300  1
  O  O13  1  0.90794400  0.87439900  0.65243000  1
  O  O14  1  0.09207900  0.12558300  0.34762700  1
  O  O15  1  0.65099500  0.61761300  0.88041900  1
  O  O16  1  0.09137200  0.12639300  0.87188000  1
  O  O17  1  0.65170300  0.61757000  0.38533900  1
  O  O18  1  0.34833900  0.38240200  0.61464900  1
  O  O19  1  0.90865800  0.87359300  0.12811400  1
