# generated using pymatgen
data_MgCr(GeO3)2
_symmetry_space_group_name_H-M   'P 1'
_cell_length_a   5.31260677
_cell_length_b   6.66786623
_cell_length_c   6.66803836
_cell_angle_alpha   85.11086896
_cell_angle_beta   84.43719856
_cell_angle_gamma   84.43678525
_symmetry_Int_Tables_number   1
_chemical_formula_structural   MgCr(GeO3)2
_chemical_formula_sum   'Mg2 Cr2 Ge4 O12'
_cell_volume   233.30061868
_cell_formula_units_Z   2
loop_
 _symmetry_equiv_pos_site_id
 _symmetry_equiv_pos_as_xyz
  1  'x, y, z'
loop_
 _atom_site_type_symbol
 _atom_site_label
 _atom_site_symmetry_multiplicity
 _atom_site_fract_x
 _atom_site_fract_y
 _atom_site_fract_z
 _atom_site_occupancy
  Mg  Mg0  1  0.74999300  0.27090300  0.72908600  1
  Mg  Mg1  1  0.24999300  0.72909900  0.27090000  1
  Cr  Cr2  1  0.25006200  0.08917700  0.91087600  1
  Cr  Cr3  1  0.74999000  0.91083200  0.08919700  1
  Ge  Ge4  1  0.77753300  0.39816500  0.20957000  1
  Ge  Ge5  1  0.72246600  0.79042500  0.60182200  1
  Ge  Ge6  1  0.22247100  0.60183100  0.79043000  1
  Ge  Ge7  1  0.27752000  0.20956400  0.39818100  1
  O  O8  1  0.59127400  0.29117500  0.43355900  1
  O  O9  1  0.90872600  0.56644200  0.70881700  1
  O  O10  1  0.40872200  0.70882100  0.56643700  1
  O  O11  1  0.09127200  0.43355400  0.29117400  1
  O  O12  1  0.11164000  0.14603700  0.62795900  1
  O  O13  1  0.38835800  0.37203800  0.85395400  1
  O  O14  1  0.88835300  0.85396200  0.37202600  1
  O  O15  1  0.61163500  0.62796600  0.14603800  1
  O  O16  1  0.83950500  0.21637200  0.03117400  1
  O  O17  1  0.66048000  0.96881900  0.78361800  1
  O  O18  1  0.16048400  0.78363700  0.96881600  1
  O  O19  1  0.33952300  0.03118200  0.21636600  1
