# generated using pymatgen
data_MnZn2WO6
_symmetry_space_group_name_H-M   'P 1'
_cell_length_a   5.32219654
_cell_length_b   7.76460344
_cell_length_c   5.65111475
_cell_angle_alpha   94.75778469
_cell_angle_beta   90.02632860
_cell_angle_gamma   89.96679707
_symmetry_Int_Tables_number   1
_chemical_formula_structural   MnZn2WO6
_chemical_formula_sum   'Mn2 Zn4 W2 O12'
_cell_volume   232.72612920
_cell_formula_units_Z   2
loop_
 _symmetry_equiv_pos_site_id
 _symmetry_equiv_pos_as_xyz
  1  'x, y, z'
loop_
 _atom_site_type_symbol
 _atom_site_label
 _atom_site_symmetry_multiplicity
 _atom_site_fract_x
 _atom_site_fract_y
 _atom_site_fract_z
 _atom_site_occupancy
  Mn  Mn0  1  0.50856300  0.99353600  0.50552400  1
  Mn  Mn1  1  0.00867200  0.49350600  0.00548200  1
  Zn  Zn2  1  0.50822300  0.28168300  0.92937400  1
  Zn  Zn3  1  0.00809900  0.78171000  0.42934000  1
  Zn  Zn4  1  0.00831100  0.24951500  0.49300800  1
  Zn  Zn5  1  0.50837700  0.74946400  0.99309500  1
  W  W6  1  0.50817600  0.49429600  0.50338400  1
  W  W7  1  0.00821100  0.99428300  0.00339500  1
  O  O8  1  0.22007400  0.40379300  0.69284900  1
  O  O9  1  0.72002300  0.90383700  0.19291200  1
  O  O10  1  0.15721400  0.04434700  0.33244900  1
  O  O11  1  0.65718500  0.54435500  0.83243800  1
  O  O12  1  0.64793200  0.25571300  0.54386300  1
  O  O13  1  0.14793400  0.75570000  0.04383100  1
  O  O14  1  0.31499800  0.05524100  0.85793700  1
  O  O15  1  0.81499700  0.55525200  0.35794900  1
  O  O16  1  0.86555100  0.22039400  0.02352700  1
  O  O17  1  0.36545800  0.72039700  0.52354900  1
  O  O18  1  0.34386800  0.41362700  0.21527800  1
  O  O19  1  0.84389000  0.91364500  0.71528000  1
