# generated using pymatgen
data_AlV2O4
_symmetry_space_group_name_H-M   'P 1'
_cell_length_a   6.01019575
_cell_length_b   8.33174678
_cell_length_c   5.95775995
_cell_angle_alpha   90.22274794
_cell_angle_beta   88.93089723
_cell_angle_gamma   90.21282331
_symmetry_Int_Tables_number   1
_chemical_formula_structural   AlV2O4
_chemical_formula_sum   'Al4 V8 O16'
_cell_volume   298.28121796
_cell_formula_units_Z   4
loop_
 _symmetry_equiv_pos_site_id
 _symmetry_equiv_pos_as_xyz
  1  'x, y, z'
loop_
 _atom_site_type_symbol
 _atom_site_label
 _atom_site_symmetry_multiplicity
 _atom_site_fract_x
 _atom_site_fract_y
 _atom_site_fract_z
 _atom_site_occupancy
  Al  Al0  1  0.25185600  0.62948000  0.99758600  1
  Al  Al1  1  0.74922600  0.12720700  0.50219500  1
  Al  Al2  1  0.74787700  0.37060200  0.00212700  1
  Al  Al3  1  0.25037800  0.87269000  0.49737800  1
  V  V4  1  0.24781000  0.24722500  0.75540800  1
  V  V5  1  0.75201400  0.75248500  0.24497000  1
  V  V6  1  0.50005200  0.99994600  0.99993200  1
  V  V7  1  0.00040700  0.49967800  0.49971000  1
  V  V8  1  0.24760400  0.25637600  0.25807300  1
  V  V9  1  0.75195400  0.74409800  0.74239900  1
  V  V10  1  0.50031600  0.50008900  0.49999600  1
  V  V11  1  0.00012700  0.00018000  0.99975900  1
  O  O12  1  0.50081100  0.24551200  0.00359900  1
  O  O13  1  0.00411900  0.74976100  0.49297200  1
  O  O14  1  0.49876900  0.75450100  0.99702800  1
  O  O15  1  0.99596600  0.24975500  0.50713600  1
  O  O16  1  0.00457400  0.75106600  0.99233800  1
  O  O17  1  0.50528800  0.25423400  0.50247400  1
  O  O18  1  0.74558900  0.49567200  0.25243500  1
  O  O19  1  0.25313900  0.99321000  0.75381900  1
  O  O20  1  0.74649900  0.49093100  0.74933800  1
  O  O21  1  0.25150200  0.99908700  0.24921500  1
  O  O22  1  0.25478800  0.50389000  0.74754000  1
  O  O23  1  0.74697700  0.00677800  0.24592200  1
  O  O24  1  0.99544200  0.24919400  0.00789600  1
  O  O25  1  0.49438700  0.74586200  0.49764700  1
  O  O26  1  0.25402000  0.50895800  0.25042000  1
  O  O27  1  0.74850800  0.00153300  0.75069100  1
