# generated using pymatgen
data_SrSnO3
_symmetry_space_group_name_H-M   'P 1'
_cell_length_a   5.79168614
_cell_length_b   5.79168614
_cell_length_c   5.79168614
_cell_angle_alpha   120.00020717
_cell_angle_beta   119.47603514
_cell_angle_gamma   90.45478381
_symmetry_Int_Tables_number   1
_chemical_formula_structural   SrSnO3
_chemical_formula_sum   'Sr2 Sn2 O6'
_cell_volume   137.90806563
_cell_formula_units_Z   2
loop_
 _symmetry_equiv_pos_site_id
 _symmetry_equiv_pos_as_xyz
  1  'x, y, z'
loop_
 _atom_site_type_symbol
 _atom_site_label
 _atom_site_symmetry_multiplicity
 _atom_site_fract_x
 _atom_site_fract_y
 _atom_site_fract_z
 _atom_site_occupancy
  Sr  Sr0  1  0.25961600  0.25000000  0.00961600  1
  Sr  Sr1  1  0.74038400  0.75000000  0.99038400  1
  Sn  Sn2  1  0.50000000  0.00000000  0.50000000  1
  Sn  Sn3  1  0.00000000  0.50000000  0.50000000  1
  O  O4  1  0.29470900  0.29470900  0.50000000  1
  O  O5  1  0.70529100  0.20529100  0.00000000  1
  O  O6  1  0.70529100  0.70529100  0.50000000  1
  O  O7  1  0.29470900  0.79470900  0.00000000  1
  O  O8  1  0.17006200  0.75000000  0.42006200  1
  O  O9  1  0.82993800  0.25000000  0.57993800  1
