# generated using pymatgen
data_Ba2YCr3O7
_symmetry_space_group_name_H-M   'P 1'
_cell_length_a   5.63360735
_cell_length_b   5.63361442
_cell_length_c   11.63182300
_cell_angle_alpha   89.99993525
_cell_angle_beta   90.00009919
_cell_angle_gamma   88.60433567
_symmetry_Int_Tables_number   1
_chemical_formula_structural   Ba2YCr3O7
_chemical_formula_sum   'Ba4 Y2 Cr6 O14'
_cell_volume   369.05629647
_cell_formula_units_Z   2
loop_
 _symmetry_equiv_pos_site_id
 _symmetry_equiv_pos_as_xyz
  1  'x, y, z'
loop_
 _atom_site_type_symbol
 _atom_site_label
 _atom_site_symmetry_multiplicity
 _atom_site_fract_x
 _atom_site_fract_y
 _atom_site_fract_z
 _atom_site_occupancy
  Ba  Ba0  1  0.50001900  0.99999000  0.81868200  1
  Ba  Ba1  1  0.00001700  0.49998600  0.81868200  1
  Ba  Ba2  1  0.50002000  0.99998700  0.18131100  1
  Ba  Ba3  1  0.00002300  0.49998600  0.18131100  1
  Y  Y4  1  0.49998700  0.00000400  0.50003200  1
  Y  Y5  1  0.99998800  0.50000500  0.50003200  1
  Cr  Cr6  1  0.99996100  0.00004800  0.99988800  1
  Cr  Cr7  1  0.49999100  0.50000300  0.64709300  1
  Cr  Cr8  1  0.49999200  0.49999600  0.35291200  1
  Cr  Cr9  1  0.49996000  0.50005100  0.99988600  1
  Cr  Cr10  1  0.99999300  0.00000500  0.64709200  1
  Cr  Cr11  1  0.99999200  0.99999700  0.35294500  1
  O  O12  1  0.25003700  0.24997400  0.99996300  1
  O  O13  1  0.75003800  0.74997000  0.99996200  1
  O  O14  1  0.74999500  0.24999200  0.62223900  1
  O  O15  1  0.24998400  0.75000600  0.62223900  1
  O  O16  1  0.74998400  0.25000900  0.37785500  1
  O  O17  1  0.24999700  0.74999400  0.37785400  1
  O  O18  1  0.74999000  0.75001100  0.62343200  1
  O  O19  1  0.24998600  0.25000100  0.62343200  1
  O  O20  1  0.74998500  0.74999600  0.37663700  1
  O  O21  1  0.24999300  0.25000500  0.37663700  1
  O  O22  1  0.50001600  0.49999900  0.82314700  1
  O  O23  1  0.00001500  0.99999800  0.82314800  1
  O  O24  1  0.50002100  0.49999500  0.17679300  1
  O  O25  1  0.00001500  0.99999500  0.17680200  1
