# generated using pymatgen
data_Na(CoO2)3
_symmetry_space_group_name_H-M   'P 1'
_cell_length_a   4.99804330
_cell_length_b   4.96034404
_cell_length_c   5.94600766
_cell_angle_alpha   73.49623942
_cell_angle_beta   98.09163471
_cell_angle_gamma   119.73297114
_symmetry_Int_Tables_number   1
_chemical_formula_structural   Na(CoO2)3
_chemical_formula_sum   'Na1 Co3 O6'
_cell_volume   122.73225915
_cell_formula_units_Z   1
loop_
 _symmetry_equiv_pos_site_id
 _symmetry_equiv_pos_as_xyz
  1  'x, y, z'
loop_
 _atom_site_type_symbol
 _atom_site_label
 _atom_site_symmetry_multiplicity
 _atom_site_fract_x
 _atom_site_fract_y
 _atom_site_fract_z
 _atom_site_occupancy
  Na  Na0  1  0.33181900  0.16607100  0.49996000  1
  Co  Co1  1  0.67122700  0.33558700  0.00011400  1
  Co  Co2  1  0.33224500  0.66614500  0.99996500  1
  Co  Co3  1  0.00109300  0.00050700  0.99995600  1
  O  O4  1  0.31356900  0.92713000  0.17318800  1
  O  O5  1  0.02139500  0.27708700  0.17432400  1
  O  O6  1  0.66311800  0.61458200  0.16995000  1
  O  O7  1  0.66341100  0.04864400  0.83012400  1
  O  O8  1  0.31392300  0.38651800  0.82687200  1
  O  O9  1  0.02153500  0.74439600  0.82554700  1
