# generated using pymatgen
data_Mn5SnO8
_symmetry_space_group_name_H-M   'P 1'
_cell_length_a   6.16413005
_cell_length_b   10.67118740
_cell_length_c   6.29562136
_cell_angle_alpha   87.82835574
_cell_angle_beta   61.37456240
_cell_angle_gamma   73.61706046
_symmetry_Int_Tables_number   1
_chemical_formula_structural   Mn5SnO8
_chemical_formula_sum   'Mn10 Sn2 O16'
_cell_volume   346.40845314
_cell_formula_units_Z   2
loop_
 _symmetry_equiv_pos_site_id
 _symmetry_equiv_pos_as_xyz
  1  'x, y, z'
loop_
 _atom_site_type_symbol
 _atom_site_label
 _atom_site_symmetry_multiplicity
 _atom_site_fract_x
 _atom_site_fract_y
 _atom_site_fract_z
 _atom_site_occupancy
  Mn  Mn0  1  0.24158000  0.62575400  0.86988800  1
  Mn  Mn1  1  0.62383100  0.81077300  0.42787600  1
  Mn  Mn2  1  0.14130200  0.80902500  0.41808400  1
  Mn  Mn3  1  0.62390300  0.81277900  0.94229400  1
  Mn  Mn4  1  0.62162200  0.31068000  0.45114900  1
  Mn  Mn5  1  0.23517600  0.12366600  0.38481700  1
  Mn  Mn6  1  0.61489600  0.31295200  0.94189800  1
  Mn  Mn7  1  0.13417600  0.31056500  0.93746800  1
  Mn  Mn8  1  0.62381400  0.56879200  0.18898700  1
  Mn  Mn9  1  0.61963500  0.06724900  0.69595000  1
  Sn  Sn10  1  0.01504700  0.00072500  0.99744200  1
  Sn  Sn11  1  0.01540600  0.49966500  0.50224700  1
  O  O12  1  0.39845600  0.43217400  0.29787300  1
  O  O13  1  0.41161200  0.93339200  0.80002500  1
  O  O14  1  0.86589400  0.43964900  0.32068000  1
  O  O15  1  0.84540800  0.94183200  0.82349800  1
  O  O16  1  0.88653200  0.19818000  0.06244500  1
  O  O17  1  0.89276200  0.69975000  0.54722700  1
  O  O18  1  0.88997400  0.42755900  0.82903400  1
  O  O19  1  0.89044900  0.92940800  0.32278300  1
  O  O20  1  0.40096000  0.69931800  0.04269300  1
  O  O21  1  0.39539900  0.17461300  0.57915400  1
  O  O22  1  0.84239300  0.70514100  0.06068100  1
  O  O23  1  0.83660900  0.18100000  0.59789500  1
  O  O24  1  0.35534000  0.19420500  0.04784200  1
  O  O25  1  0.35806600  0.69764900  0.53454800  1
  O  O26  1  0.35810900  0.42185600  0.81589400  1
  O  O27  1  0.36164700  0.92164800  0.30962700  1
