# generated using pymatgen
data_SrLaVFeO6
_symmetry_space_group_name_H-M   'P 1'
_cell_length_a   5.56731855
_cell_length_b   5.53039647
_cell_length_c   9.62989791
_cell_angle_alpha   73.73092943
_cell_angle_beta   90.01418142
_cell_angle_gamma   60.55353050
_symmetry_Int_Tables_number   1
_chemical_formula_structural   SrLaVFeO6
_chemical_formula_sum   'Sr2 La2 V2 Fe2 O12'
_cell_volume   244.45806681
_cell_formula_units_Z   2
loop_
 _symmetry_equiv_pos_site_id
 _symmetry_equiv_pos_as_xyz
  1  'x, y, z'
loop_
 _atom_site_type_symbol
 _atom_site_label
 _atom_site_symmetry_multiplicity
 _atom_site_fract_x
 _atom_site_fract_y
 _atom_site_fract_z
 _atom_site_occupancy
  Sr  Sr0  1  0.37809300  0.25226500  0.12408000  1
  Sr  Sr1  1  0.87570800  0.24476100  0.62875400  1
  La  La2  1  0.12519700  0.75472400  0.36917200  1
  La  La3  1  0.62188200  0.76340500  0.87265800  1
  V  V4  1  0.75413000  0.49677000  0.25242900  1
  V  V5  1  0.24695700  0.50456100  0.74902800  1
  Fe  Fe6  1  0.49962500  0.00261900  0.49818100  1
  Fe  Fe7  1  0.00022700  0.00099600  0.00119800  1
  O  O8  1  0.67349900  0.18882300  0.36156500  1
  O  O9  1  0.16701500  0.21296600  0.86135900  1
  O  O10  1  0.65367400  0.67563300  0.39998600  1
  O  O11  1  0.15200000  0.69968600  0.90023700  1
  O  O12  1  0.14347100  0.21673400  0.35382600  1
  O  O13  1  0.63947500  0.22779000  0.85681500  1
  O  O14  1  0.85146400  0.79057400  0.14411000  1
  O  O15  1  0.34297200  0.77716600  0.64059500  1
  O  O16  1  0.83805900  0.33655100  0.09226400  1
  O  O17  1  0.33537100  0.32215700  0.58881100  1
  O  O18  1  0.35455100  0.77051100  0.15062900  1
  O  O19  1  0.84663400  0.76131000  0.65430400  1
