# generated using pymatgen
data_P
_symmetry_space_group_name_H-M   'P 1'
_cell_length_a   6.81542443
_cell_length_b   6.81542443
_cell_length_c   6.00087216
_cell_angle_alpha   89.84714772
_cell_angle_beta   89.84714772
_cell_angle_gamma   83.15697418
_symmetry_Int_Tables_number   1
_chemical_formula_structural   P
_chemical_formula_sum   P8
_cell_volume   276.75315258
_cell_formula_units_Z   8
loop_
 _symmetry_equiv_pos_site_id
 _symmetry_equiv_pos_as_xyz
  1  'x, y, z'
loop_
 _atom_site_type_symbol
 _atom_site_label
 _atom_site_symmetry_multiplicity
 _atom_site_fract_x
 _atom_site_fract_y
 _atom_site_fract_z
 _atom_site_occupancy
  P  P0  1  0.83750200  0.83750200  0.75502000  1
  P  P1  1  0.16249800  0.16249800  0.24498000  1
  P  P2  1  0.71786500  0.71786500  0.45027100  1
  P  P3  1  0.28213500  0.28213500  0.54972900  1
  P  P4  1  0.52869000  0.77228300  0.74742400  1
  P  P5  1  0.22771700  0.47131000  0.25257600  1
  P  P6  1  0.47131000  0.22771700  0.25257600  1
  P  P7  1  0.77228300  0.52869000  0.74742400  1
