# generated using pymatgen
data_LaCoO3
_symmetry_space_group_name_H-M   'P 1'
_cell_length_a   5.55835292
_cell_length_b   9.40183245
_cell_length_c   5.54780225
_cell_angle_alpha   90.11985765
_cell_angle_beta   60.68547882
_cell_angle_gamma   72.89825823
_symmetry_Int_Tables_number   1
_chemical_formula_structural   LaCoO3
_chemical_formula_sum   'La4 Co4 O12'
_cell_volume   237.87742730
_cell_formula_units_Z   4
loop_
 _symmetry_equiv_pos_site_id
 _symmetry_equiv_pos_as_xyz
  1  'x, y, z'
loop_
 _atom_site_type_symbol
 _atom_site_label
 _atom_site_symmetry_multiplicity
 _atom_site_fract_x
 _atom_site_fract_y
 _atom_site_fract_z
 _atom_site_occupancy
  La  La0  1  0.25228200  0.87556200  0.11864600  1
  La  La1  1  0.24876600  0.37304600  0.63244700  1
  La  La2  1  0.75247000  0.62539500  0.37255400  1
  La  La3  1  0.74891600  0.12719400  0.87366500  1
  Co  Co4  1  0.50486600  0.99952300  0.49523900  1
  Co  Co5  1  0.00110700  0.75055600  0.74554400  1
  Co  Co6  1  0.49501900  0.50333100  0.00446600  1
  Co  Co7  1  0.00030400  0.24846900  0.25487700  1
  O  O8  1  0.31923600  0.61873500  0.36527800  1
  O  O9  1  0.32891000  0.11948000  0.85342800  1
  O  O10  1  0.67835500  0.88167100  0.13486900  1
  O  O11  1  0.67385200  0.37406400  0.65163600  1
  O  O12  1  0.74356700  0.62932000  0.80983800  1
  O  O13  1  0.74931700  0.12679600  0.30545200  1
  O  O14  1  0.26367000  0.87519100  0.67707000  1
  O  O15  1  0.24379500  0.36803600  0.19585000  1
  O  O16  1  0.18358700  0.12306200  0.44341300  1
  O  O17  1  0.17654500  0.62717000  0.94486200  1
  O  O18  1  0.82259200  0.37444500  0.06964500  1
  O  O19  1  0.81284300  0.87895600  0.55121300  1
