# generated using pymatgen
data_CsCoO2
_symmetry_space_group_name_H-M   'P 1'
_cell_length_a   6.09786840
_cell_length_b   5.97805320
_cell_length_c   8.52832000
_cell_angle_alpha   90.00024802
_cell_angle_beta   90.00015103
_cell_angle_gamma   90.13636350
_symmetry_Int_Tables_number   1
_chemical_formula_structural   CsCoO2
_chemical_formula_sum   'Cs4 Co4 O8'
_cell_volume   310.88522335
_cell_formula_units_Z   4
loop_
 _symmetry_equiv_pos_site_id
 _symmetry_equiv_pos_as_xyz
  1  'x, y, z'
loop_
 _atom_site_type_symbol
 _atom_site_label
 _atom_site_symmetry_multiplicity
 _atom_site_fract_x
 _atom_site_fract_y
 _atom_site_fract_z
 _atom_site_occupancy
  Cs  Cs0  1  0.99999900  0.00000100  0.49847900  1
  Cs  Cs1  1  0.50000000  0.50000100  0.00449000  1
  Cs  Cs2  1  0.50000000  0.99999800  0.75166400  1
  Cs  Cs3  1  0.00000100  0.50000000  0.24546300  1
  Co  Co4  1  0.50000100  0.50000000  0.49855000  1
  Co  Co5  1  0.00000300  0.49999600  0.75142600  1
  Co  Co6  1  0.00000000  0.00000000  0.00105800  1
  Co  Co7  1  0.50000200  0.99999900  0.24933600  1
  O  O8  1  0.24999700  0.99893800  0.12501700  1
  O  O9  1  0.74997100  0.50021400  0.62493600  1
  O  O10  1  0.50163600  0.74283200  0.36588500  1
  O  O11  1  0.99874100  0.25703000  0.88393000  1
  O  O12  1  0.49836000  0.25716900  0.36588500  1
  O  O13  1  0.00125600  0.74296800  0.88392800  1
  O  O14  1  0.75000400  0.00106300  0.12502100  1
  O  O15  1  0.25002800  0.49979000  0.62493300  1
