# generated using pymatgen
data_HoSi
_symmetry_space_group_name_H-M   'P 1'
_cell_length_a   3.82029400
_cell_length_b   5.66803300
_cell_length_c   7.87121700
_cell_angle_alpha   90.00000000
_cell_angle_beta   90.00000000
_cell_angle_gamma   90.00000000
_symmetry_Int_Tables_number   1
_chemical_formula_structural   HoSi
_chemical_formula_sum   'Ho4 Si4'
_cell_volume   170.43981025
_cell_formula_units_Z   4
loop_
 _symmetry_equiv_pos_site_id
 _symmetry_equiv_pos_as_xyz
  1  'x, y, z'
loop_
 _atom_site_type_symbol
 _atom_site_label
 _atom_site_symmetry_multiplicity
 _atom_site_fract_x
 _atom_site_fract_y
 _atom_site_fract_z
 _atom_site_occupancy
  Ho  Ho0  1  0.25000000  0.11483300  0.82069500  1
  Ho  Ho1  1  0.75000000  0.88516700  0.17930500  1
  Ho  Ho2  1  0.75000000  0.61483300  0.67930500  1
  Ho  Ho3  1  0.25000000  0.38516700  0.32069500  1
  Si  Si4  1  0.25000000  0.63034300  0.96165400  1
  Si  Si5  1  0.75000000  0.36965700  0.03834600  1
  Si  Si6  1  0.75000000  0.13034300  0.53834600  1
  Si  Si7  1  0.25000000  0.86965700  0.46165400  1
