# generated using pymatgen
data_FePH6NO5
_symmetry_space_group_name_H-M   'P 1'
_cell_length_a   5.72200603
_cell_length_b   9.01698508
_cell_length_c   9.64512323
_cell_angle_alpha   89.98465696
_cell_angle_beta   89.98527664
_cell_angle_gamma   90.00499908
_symmetry_Int_Tables_number   1
_chemical_formula_structural   FePH6NO5
_chemical_formula_sum   'Fe4 P4 H24 N4 O20'
_cell_volume   497.64244055
_cell_formula_units_Z   4
loop_
 _symmetry_equiv_pos_site_id
 _symmetry_equiv_pos_as_xyz
  1  'x, y, z'
loop_
 _atom_site_type_symbol
 _atom_site_label
 _atom_site_symmetry_multiplicity
 _atom_site_fract_x
 _atom_site_fract_y
 _atom_site_fract_z
 _atom_site_occupancy
  Fe  Fe0  1  0.49936200  0.02552500  0.75404000  1
  Fe  Fe1  1  0.99967300  0.97634300  0.50341300  1
  Fe  Fe2  1  0.50075800  0.01965600  0.25322000  1
  Fe  Fe3  1  0.00033300  0.97852300  0.00395600  1
  P  P4  1  0.50033300  0.80275500  0.03876300  1
  P  P5  1  0.49747600  0.80508000  0.53818300  1
  P  P6  1  0.00200900  0.19435800  0.28893700  1
  P  P7  1  0.99997100  0.19701600  0.78779900  1
  H  H8  1  0.49999100  0.54300600  0.40438800  1
  H  H9  1  0.49995500  0.54191600  0.90597500  1
  H  H10  1  0.99961200  0.45778600  0.15546800  1
  H  H11  1  0.00002900  0.45732000  0.65493200  1
  H  H12  1  0.49974200  0.54601500  0.22441300  1
  H  H13  1  0.50008900  0.54715300  0.72605000  1
  H  H14  1  0.99992800  0.45261100  0.47506900  1
  H  H15  1  0.99998900  0.45465400  0.97562200  1
  H  H16  1  0.64954700  0.41304300  0.31195900  1
  H  H17  1  0.64908600  0.41285000  0.81165100  1
  H  H18  1  0.35165100  0.41226200  0.31211100  1
  H  H19  1  0.35106500  0.41267700  0.81165000  1
  H  H20  1  0.85074400  0.58798000  0.06279100  1
  H  H21  1  0.85082100  0.58664200  0.56109600  1
  H  H22  1  0.14891300  0.58814300  0.06287400  1
  H  H23  1  0.14866100  0.58697000  0.56117800  1
  H  H24  1  0.63752100  0.18870000  0.03640900  1
  H  H25  1  0.63648200  0.19230600  0.53644100  1
  H  H26  1  0.36403200  0.18886300  0.03630400  1
  H  H27  1  0.36310600  0.19161300  0.53318400  1
  H  H28  1  0.86352800  0.80707500  0.28470500  1
  H  H29  1  0.86324200  0.81294400  0.78680700  1
  H  H30  1  0.13583100  0.80766800  0.28294800  1
  H  H31  1  0.13774400  0.81291500  0.78652400  1
  N  N32  1  0.50000500  0.47789600  0.31346800  1
  N  N33  1  0.49993400  0.47785700  0.81397000  1
  N  N34  1  0.99994700  0.52293300  0.06434500  1
  N  N35  1  0.00006200  0.52160400  0.56325100  1
  O  O36  1  0.50137400  0.83585800  0.38210100  1
  O  O37  1  0.50006700  0.83611000  0.88301500  1
  O  O38  1  0.99992000  0.16151500  0.13274200  1
  O  O39  1  0.99879900  0.16594400  0.63199100  1
  O  O40  1  0.50067700  0.63142600  0.06191800  1
  O  O41  1  0.50313100  0.63470200  0.56331300  1
  O  O42  1  0.99634400  0.36528800  0.31176300  1
  O  O43  1  0.99882400  0.36768800  0.81324700  1
  O  O44  1  0.50067100  0.20022700  0.09814300  1
  O  O45  1  0.49780000  0.20570900  0.59611900  1
  O  O46  1  0.00080000  0.79389800  0.34576500  1
  O  O47  1  0.00054800  0.80130800  0.84795300  1
  O  O48  1  0.71866900  0.87308300  0.11335400  1
  O  O49  1  0.70929200  0.88231400  0.61393200  1
  O  O50  1  0.28117300  0.87255700  0.11300500  1
  O  O51  1  0.27436100  0.87406800  0.60882900  1
  O  O52  1  0.78708900  0.11976900  0.36387300  1
  O  O53  1  0.78476900  0.12338700  0.86315300  1
  O  O54  1  0.22312400  0.12635500  0.36140600  1
  O  O55  1  0.22139700  0.12613600  0.85988400  1
