# generated using pymatgen
data_AlV2O4
_symmetry_space_group_name_H-M   'P 1'
_cell_length_a   5.89385577
_cell_length_b   10.39319197
_cell_length_c   5.89381698
_cell_angle_alpha   90.11265272
_cell_angle_beta   60.25103647
_cell_angle_gamma   73.51791159
_symmetry_Int_Tables_number   1
_chemical_formula_structural   AlV2O4
_chemical_formula_sum   'Al4 V8 O16'
_cell_volume   296.11908083
_cell_formula_units_Z   4
loop_
 _symmetry_equiv_pos_site_id
 _symmetry_equiv_pos_as_xyz
  1  'x, y, z'
loop_
 _atom_site_type_symbol
 _atom_site_label
 _atom_site_symmetry_multiplicity
 _atom_site_fract_x
 _atom_site_fract_y
 _atom_site_fract_z
 _atom_site_occupancy
  Al  Al0  1  0.61947800  0.31026900  0.94053700  1
  Al  Al1  1  0.63013900  0.80869700  0.43438000  1
  Al  Al2  1  0.36976200  0.18970700  0.57031000  1
  Al  Al3  1  0.37438200  0.69129200  0.06098400  1
  V  V4  1  0.99738900  0.99976200  0.99925100  1
  V  V5  1  0.00060700  0.50023900  0.50276200  1
  V  V6  1  0.50279200  0.49992200  0.49667200  1
  V  V7  1  0.00322100  0.00004000  0.49733200  1
  V  V8  1  0.00878900  0.75003200  0.74113800  1
  V  V9  1  0.50605700  0.99920500  0.00190500  1
  V  V10  1  0.99737500  0.50079800  0.99469300  1
  V  V11  1  0.98870300  0.25001300  0.26133600  1
  O  O12  1  0.25251700  0.12834000  0.37626200  1
  O  O13  1  0.24307700  0.63009600  0.87761000  1
  O  O14  1  0.75219400  0.37163500  0.11909500  1
  O  O15  1  0.75228400  0.86994500  0.62687600  1
  O  O16  1  0.75091200  0.36903400  0.62694500  1
  O  O17  1  0.74984200  0.87211300  0.12196500  1
  O  O18  1  0.24645900  0.37268600  0.63487400  1
  O  O19  1  0.26396000  0.87419900  0.11424300  1
  O  O20  1  0.74210700  0.13097200  0.38010200  1
  O  O21  1  0.75024400  0.62789600  0.87794800  1
  O  O22  1  0.73779900  0.12729200  0.88088000  1
  O  O23  1  0.75998700  0.62580400  0.36182000  1
  O  O24  1  0.25104300  0.12663500  0.88650800  1
  O  O25  1  0.24895000  0.63013000  0.37026800  1
  O  O26  1  0.24022800  0.37336100  0.12226700  1
  O  O27  1  0.25970300  0.86988800  0.62104000  1
