# generated using pymatgen
data_SrNiO3
_symmetry_space_group_name_H-M   'P 1'
_cell_length_a   3.89340266
_cell_length_b   11.12972517
_cell_length_c   5.48377977
_cell_angle_alpha   89.98498803
_cell_angle_beta   89.97147250
_cell_angle_gamma   90.03248363
_symmetry_Int_Tables_number   1
_chemical_formula_structural   SrNiO3
_chemical_formula_sum   'Sr4 Ni4 O12'
_cell_volume   237.62582014
_cell_formula_units_Z   4
loop_
 _symmetry_equiv_pos_site_id
 _symmetry_equiv_pos_as_xyz
  1  'x, y, z'
loop_
 _atom_site_type_symbol
 _atom_site_label
 _atom_site_symmetry_multiplicity
 _atom_site_fract_x
 _atom_site_fract_y
 _atom_site_fract_z
 _atom_site_occupancy
  Sr  Sr0  1  0.00001800  0.12416400  0.25001400  1
  Sr  Sr1  1  0.99996900  0.37634200  0.75000400  1
  Sr  Sr2  1  0.99997000  0.62285400  0.24994900  1
  Sr  Sr3  1  0.00002700  0.87660800  0.75004900  1
  Ni  Ni4  1  0.49995900  0.62602500  0.74990200  1
  Ni  Ni5  1  0.50004200  0.87397100  0.25011200  1
  Ni  Ni6  1  0.50002700  0.12744600  0.75014800  1
  Ni  Ni7  1  0.49998600  0.37267800  0.24983300  1
  O  O8  1  0.50000500  0.24993700  0.99992200  1
  O  O9  1  0.50001200  0.50593100  0.49965100  1
  O  O10  1  0.50000600  0.75003400  0.99997700  1
  O  O11  1  0.49997900  0.99406300  0.50032900  1
  O  O12  1  0.49999700  0.24994300  0.50005400  1
  O  O13  1  0.50003300  0.50578000  0.99980800  1
  O  O14  1  0.50000000  0.75004100  0.50002200  1
  O  O15  1  0.49996600  0.99420800  0.00021800  1
  O  O16  1  0.00003300  0.13002200  0.75014500  1
  O  O17  1  0.99997000  0.36990100  0.24986000  1
  O  O18  1  0.99994600  0.63277300  0.75007500  1
  O  O19  1  0.00005200  0.86727800  0.24993000  1
