# generated using pymatgen
data_Mn5O3F5
_symmetry_space_group_name_H-M   'P 1'
_cell_length_a   6.37439997
_cell_length_b   11.14556144
_cell_length_c   6.36961191
_cell_angle_alpha   72.75927401
_cell_angle_beta   61.01750436
_cell_angle_gamma   89.85448961
_symmetry_Int_Tables_number   1
_chemical_formula_structural   Mn5O3F5
_chemical_formula_sum   'Mn10 O6 F10'
_cell_volume   372.64899741
_cell_formula_units_Z   2
loop_
 _symmetry_equiv_pos_site_id
 _symmetry_equiv_pos_as_xyz
  1  'x, y, z'
loop_
 _atom_site_type_symbol
 _atom_site_label
 _atom_site_symmetry_multiplicity
 _atom_site_fract_x
 _atom_site_fract_y
 _atom_site_fract_z
 _atom_site_occupancy
  Mn  Mn0  1  0.04204600  0.68160300  0.39024200  1
  Mn  Mn1  1  0.97300600  0.99366100  0.97028300  1
  Mn  Mn2  1  0.81291600  0.44417700  0.38217800  1
  Mn  Mn3  1  0.57273500  0.68928000  0.37928300  1
  Mn  Mn4  1  0.07485100  0.69430600  0.89004800  1
  Mn  Mn5  1  0.57090300  0.18157100  0.36109900  1
  Mn  Mn6  1  0.46403600  0.49405200  0.97915600  1
  Mn  Mn7  1  0.32639000  0.94409800  0.36898400  1
  Mn  Mn8  1  0.08438600  0.19421900  0.37978500  1
  Mn  Mn9  1  0.56928800  0.18954400  0.88322000  1
  O  O10  1  0.66375600  0.06562000  0.12865500  1
  O  O11  1  0.14732700  0.57560700  0.12160400  1
  O  O12  1  0.40389900  0.29289900  0.14529700  1
  O  O13  1  0.93837000  0.79277600  0.11132900  1
  O  O14  1  0.19665700  0.07564000  0.57172800  1
  O  O15  1  0.69427400  0.56576400  0.59800100  1
  F  F16  1  0.19342700  0.05971100  0.11094900  1
  F  F17  1  0.67075100  0.55968700  0.13380300  1
  F  F18  1  0.92365900  0.30953000  0.61625800  1
  F  F19  1  0.42641100  0.80962300  0.61389800  1
  F  F20  1  0.94006700  0.29939700  0.18481200  1
  F  F21  1  0.39566700  0.79840500  0.19525600  1
  F  F22  1  0.74542500  0.09409600  0.58879000  1
  F  F23  1  0.18347500  0.59406700  0.65137700  1
  F  F24  1  0.49352200  0.29856300  0.59751000  1
  F  F25  1  0.98477200  0.79944600  0.64113100  1
