# generated using pymatgen
data_Mn3(OF2)2
_symmetry_space_group_name_H-M   'P 1'
_cell_length_a   4.66848700
_cell_length_b   9.82455873
_cell_length_c   4.78021307
_cell_angle_alpha   90.53200839
_cell_angle_beta   90.00139450
_cell_angle_gamma   90.00011587
_symmetry_Int_Tables_number   1
_chemical_formula_structural   Mn3(OF2)2
_chemical_formula_sum   'Mn6 O4 F8'
_cell_volume   219.23896346
_cell_formula_units_Z   2
loop_
 _symmetry_equiv_pos_site_id
 _symmetry_equiv_pos_as_xyz
  1  'x, y, z'
loop_
 _atom_site_type_symbol
 _atom_site_label
 _atom_site_symmetry_multiplicity
 _atom_site_fract_x
 _atom_site_fract_y
 _atom_site_fract_z
 _atom_site_occupancy
  Mn  Mn0  1  0.00048500  0.34100900  0.04188200  1
  Mn  Mn1  1  0.50047600  0.49232200  0.45811500  1
  Mn  Mn2  1  0.96631600  0.66622600  0.99531200  1
  Mn  Mn3  1  0.46632700  0.16710800  0.50470200  1
  Mn  Mn4  1  0.00079300  0.99198200  0.04022300  1
  Mn  Mn5  1  0.50079200  0.84135600  0.45977100  1
  O  O6  1  0.80578100  0.49125700  0.19662700  1
  O  O7  1  0.80445600  0.83768800  0.19054000  1
  O  O8  1  0.30445400  0.99565000  0.30945300  1
  O  O9  1  0.30578100  0.34207600  0.30336600  1
  F  F10  1  0.81125300  0.16781000  0.23075900  1
  F  F11  1  0.31125700  0.66552500  0.26924600  1
  F  F12  1  0.68198900  0.66337200  0.64672000  1
  F  F13  1  0.18199000  0.16995800  0.85327500  1
  F  F14  1  0.71217400  0.00466400  0.72850500  1
  F  F15  1  0.71675300  0.33064900  0.73249700  1
  F  F16  1  0.21675600  0.50268100  0.76750700  1
  F  F17  1  0.21216700  0.82867100  0.77149800  1
