# generated using pymatgen
data_Sr3Cr2O8
_symmetry_space_group_name_H-M   'P 1'
_cell_length_a   5.65500756
_cell_length_b   7.52292300
_cell_length_c   9.41744697
_cell_angle_alpha   69.74655090
_cell_angle_beta   89.79813258
_cell_angle_gamma   90.02453022
_symmetry_Int_Tables_number   1
_chemical_formula_structural   Sr3Cr2O8
_chemical_formula_sum   'Sr6 Cr4 O16'
_cell_volume   375.86457569
_cell_formula_units_Z   2
loop_
 _symmetry_equiv_pos_site_id
 _symmetry_equiv_pos_as_xyz
  1  'x, y, z'
loop_
 _atom_site_type_symbol
 _atom_site_label
 _atom_site_symmetry_multiplicity
 _atom_site_fract_x
 _atom_site_fract_y
 _atom_site_fract_z
 _atom_site_occupancy
  Sr  Sr0  1  0.00099000  0.00068600  0.99900100  1
  Sr  Sr1  1  0.49797400  0.49907400  0.50127400  1
  Sr  Sr2  1  0.00053000  0.59636100  0.79617600  1
  Sr  Sr3  1  0.49965000  0.09239300  0.29809400  1
  Sr  Sr4  1  0.00029600  0.40770500  0.20184300  1
  Sr  Sr5  1  0.49949800  0.90352400  0.70391100  1
  Cr  Cr6  1  0.50065100  0.68746500  0.09453300  1
  Cr  Cr7  1  0.99920400  0.81252300  0.40551800  1
  Cr  Cr8  1  0.99883700  0.18923300  0.59384700  1
  Cr  Cr9  1  0.50101200  0.31055700  0.90629200  1
  O  O10  1  0.00528400  0.63936500  0.32769100  1
  O  O11  1  0.49821500  0.14987400  0.81592700  1
  O  O12  1  0.00322500  0.35027600  0.68386900  1
  O  O13  1  0.49578300  0.86132400  0.17163300  1
  O  O14  1  0.24925600  0.78619300  0.51706500  1
  O  O15  1  0.74789300  0.28608600  0.01896700  1
  O  O16  1  0.74797100  0.78970500  0.51541200  1
  O  O17  1  0.25368800  0.28367400  0.02067600  1
  O  O18  1  0.99539000  0.03595100  0.26914500  1
  O  O19  1  0.50313300  0.53448800  0.76827600  1
  O  O20  1  0.99672200  0.96525500  0.73183600  1
  O  O21  1  0.50424700  0.46397700  0.23077700  1
  O  O22  1  0.75215000  0.21390800  0.48104700  1
  O  O23  1  0.25039600  0.71361400  0.98318500  1
  O  O24  1  0.24599400  0.21650100  0.47928200  1
  O  O25  1  0.75201100  0.71028800  0.98472500  1
