# generated using pymatgen
data_Na2CoO3
_symmetry_space_group_name_H-M   'P 1'
_cell_length_a   5.41495312
_cell_length_b   7.17669336
_cell_length_c   6.97633735
_cell_angle_alpha   80.15452097
_cell_angle_beta   95.58211684
_cell_angle_gamma   96.72255912
_symmetry_Int_Tables_number   1
_chemical_formula_structural   Na2CoO3
_chemical_formula_sum   'Na8 Co4 O12'
_cell_volume   264.45319802
_cell_formula_units_Z   4
loop_
 _symmetry_equiv_pos_site_id
 _symmetry_equiv_pos_as_xyz
  1  'x, y, z'
loop_
 _atom_site_type_symbol
 _atom_site_label
 _atom_site_symmetry_multiplicity
 _atom_site_fract_x
 _atom_site_fract_y
 _atom_site_fract_z
 _atom_site_occupancy
  Na  Na0  1  0.25270800  0.74751200  0.75159200  1
  Na  Na1  1  0.75127900  0.25094100  0.25036000  1
  Na  Na2  1  0.00586600  0.99928400  0.99804200  1
  Na  Na3  1  0.49594600  0.49921400  0.50150500  1
  Na  Na4  1  0.24714100  0.08619500  0.40436700  1
  Na  Na5  1  0.74227200  0.58743100  0.90351300  1
  Na  Na6  1  0.25179800  0.41288600  0.09749600  1
  Na  Na7  1  0.75495800  0.91369400  0.59290200  1
  Co  Co8  1  0.52311300  0.84076700  0.17477900  1
  Co  Co9  1  0.98352800  0.67008700  0.32783900  1
  Co  Co10  1  0.99876000  0.32757500  0.66885800  1
  Co  Co11  1  0.49005200  0.16266500  0.83347900  1
  O  O12  1  0.59032200  0.89801000  0.90824600  1
  O  O13  1  0.08491700  0.38823600  0.41274400  1
  O  O14  1  0.91032200  0.62202000  0.58338200  1
  O  O15  1  0.41674100  0.10727500  0.09490400  1
  O  O16  1  0.38460900  0.80295500  0.40201700  1
  O  O17  1  0.83869400  0.28678700  0.90171100  1
  O  O18  1  0.33070100  0.40212800  0.78977100  1
  O  O19  1  0.86693800  0.92111900  0.29019500  1
  O  O20  1  0.10063800  0.69223400  0.09669400  1
  O  O21  1  0.66089700  0.21174200  0.59309300  1
  O  O22  1  0.18905900  0.07410000  0.71844400  1
  O  O23  1  0.62874200  0.59514200  0.20406700  1
