# generated using pymatgen
data_CoHO2
_symmetry_space_group_name_H-M   'P 1'
_cell_length_a   4.94574555
_cell_length_b   6.16244517
_cell_length_c   5.10196877
_cell_angle_alpha   94.84531948
_cell_angle_beta   95.04877089
_cell_angle_gamma   113.46248532
_symmetry_Int_Tables_number   1
_chemical_formula_structural   CoHO2
_chemical_formula_sum   'Co4 H4 O8'
_cell_volume   140.86704821
_cell_formula_units_Z   4
loop_
 _symmetry_equiv_pos_site_id
 _symmetry_equiv_pos_as_xyz
  1  'x, y, z'
loop_
 _atom_site_type_symbol
 _atom_site_label
 _atom_site_symmetry_multiplicity
 _atom_site_fract_x
 _atom_site_fract_y
 _atom_site_fract_z
 _atom_site_occupancy
  Co  Co0  1  0.99978100  0.75003800  0.50033700  1
  Co  Co1  1  0.00373200  0.49334400  0.99553300  1
  Co  Co2  1  0.00022800  0.25065300  0.50020400  1
  Co  Co3  1  0.99563900  0.00727700  0.00355900  1
  H  H4  1  0.46067100  0.11078500  0.74668900  1
  H  H5  1  0.54134700  0.63950200  0.75370000  1
  H  H6  1  0.45772000  0.86021900  0.24628500  1
  H  H7  1  0.53960000  0.38845400  0.25408300  1
  O  O8  1  0.22740100  0.05179500  0.70937300  1
  O  O9  1  0.21717800  0.55490100  0.70020300  1
  O  O10  1  0.22586700  0.80220900  0.20556000  1
  O  O11  1  0.21933000  0.30754500  0.20341300  1
  O  O12  1  0.78104900  0.19430100  0.79476100  1
  O  O13  1  0.77360200  0.69757900  0.79488500  1
  O  O14  1  0.78389300  0.94434500  0.29902200  1
  O  O15  1  0.77296300  0.44705300  0.29239200  1
