# generated using pymatgen
data_NaCoO2
_symmetry_space_group_name_H-M   'P 1'
_cell_length_a   2.84700259
_cell_length_b   6.33607649
_cell_length_c   9.42767710
_cell_angle_alpha   90.01211375
_cell_angle_beta   89.98914686
_cell_angle_gamma   90.07531066
_symmetry_Int_Tables_number   1
_chemical_formula_structural   NaCoO2
_chemical_formula_sum   'Na4 Co4 O8'
_cell_volume   170.06407464
_cell_formula_units_Z   4
loop_
 _symmetry_equiv_pos_site_id
 _symmetry_equiv_pos_as_xyz
  1  'x, y, z'
loop_
 _atom_site_type_symbol
 _atom_site_label
 _atom_site_symmetry_multiplicity
 _atom_site_fract_x
 _atom_site_fract_y
 _atom_site_fract_z
 _atom_site_occupancy
  Na  Na0  1  0.24971600  0.12486300  0.12389500  1
  Na  Na1  1  0.25057500  0.12303600  0.62328800  1
  Na  Na2  1  0.75022400  0.87831100  0.37434100  1
  Na  Na3  1  0.74928700  0.87358000  0.87391800  1
  Co  Co4  1  0.25052700  0.62154900  0.62218300  1
  Co  Co5  1  0.74935800  0.37784000  0.86991100  1
  Co  Co6  1  0.24996000  0.62046000  0.12747900  1
  Co  Co7  1  0.75021000  0.37981100  0.37501900  1
  O  O8  1  0.25048800  0.58260800  0.38027400  1
  O  O9  1  0.24947000  0.57948900  0.87479500  1
  O  O10  1  0.75000300  0.41973700  0.13378000  1
  O  O11  1  0.74986700  0.41877500  0.62591500  1
  O  O12  1  0.24989300  0.17851700  0.37363200  1
  O  O13  1  0.24929200  0.17737200  0.87414100  1
  O  O14  1  0.74964500  0.82172600  0.12350300  1
  O  O15  1  0.75148400  0.82232500  0.62392300  1
