# generated using pymatgen
data_Ca2VWO6
_symmetry_space_group_name_H-M   'P 1'
_cell_length_a   5.50359438
_cell_length_b   5.67621100
_cell_length_c   7.86924397
_cell_angle_alpha   89.99963618
_cell_angle_beta   90.26001752
_cell_angle_gamma   90.00028776
_symmetry_Int_Tables_number   1
_chemical_formula_structural   Ca2VWO6
_chemical_formula_sum   'Ca4 V2 W2 O12'
_cell_volume   245.82921092
_cell_formula_units_Z   2
loop_
 _symmetry_equiv_pos_site_id
 _symmetry_equiv_pos_as_xyz
  1  'x, y, z'
loop_
 _atom_site_type_symbol
 _atom_site_label
 _atom_site_symmetry_multiplicity
 _atom_site_fract_x
 _atom_site_fract_y
 _atom_site_fract_z
 _atom_site_occupancy
  Ca  Ca0  1  0.98751100  0.05232600  0.25220700  1
  Ca  Ca1  1  0.51249100  0.55233400  0.24781800  1
  Ca  Ca2  1  0.01248900  0.94767400  0.74779200  1
  Ca  Ca3  1  0.48750800  0.44766800  0.75218100  1
  V  V4  1  0.00000000  0.49999900  0.50000000  1
  V  V5  1  0.50000200  0.99999900  0.00000100  1
  W  W6  1  0.50000000  0.99999900  0.50000000  1
  W  W7  1  0.00000000  0.50000000  0.99999900  1
  O  O8  1  0.68698500  0.28432200  0.44588800  1
  O  O9  1  0.81301700  0.78432200  0.05411300  1
  O  O10  1  0.31301400  0.71567900  0.55411100  1
  O  O11  1  0.18698400  0.21567700  0.94588700  1
  O  O12  1  0.21234300  0.19166900  0.54704500  1
  O  O13  1  0.28765500  0.69166700  0.95295500  1
  O  O14  1  0.78765800  0.80833100  0.45295500  1
  O  O15  1  0.71234400  0.30833300  0.04704500  1
  O  O16  1  0.09737500  0.46644000  0.23840200  1
  O  O17  1  0.40261800  0.96644200  0.26159800  1
  O  O18  1  0.59738200  0.03355900  0.73840100  1
  O  O19  1  0.90262600  0.53355900  0.76159700  1
