# generated using pymatgen
data_CoPH6NO5
_symmetry_space_group_name_H-M   'P 1'
_cell_length_a   5.67590000
_cell_length_b   8.94165216
_cell_length_c   9.61428630
_cell_angle_alpha   89.97497721
_cell_angle_beta   89.99767042
_cell_angle_gamma   90.00184542
_symmetry_Int_Tables_number   1
_chemical_formula_structural   CoPH6NO5
_chemical_formula_sum   'Co4 P4 H24 N4 O20'
_cell_volume   487.94347568
_cell_formula_units_Z   4
loop_
 _symmetry_equiv_pos_site_id
 _symmetry_equiv_pos_as_xyz
  1  'x, y, z'
loop_
 _atom_site_type_symbol
 _atom_site_label
 _atom_site_symmetry_multiplicity
 _atom_site_fract_x
 _atom_site_fract_y
 _atom_site_fract_z
 _atom_site_occupancy
  Co  Co0  1  0.49997900  0.02029400  0.76449400  1
  Co  Co1  1  0.99999900  0.97573000  0.51067600  1
  Co  Co2  1  0.49999300  0.02474200  0.25982200  1
  Co  Co3  1  0.00001100  0.97955800  0.01348100  1
  P  P4  1  0.49998500  0.80638900  0.04542500  1
  P  P5  1  0.50002800  0.80912900  0.54557900  1
  P  P6  1  0.99996800  0.19194300  0.29580100  1
  P  P7  1  0.99995700  0.19246600  0.79537400  1
  H  H8  1  0.50000000  0.54289000  0.41651300  1
  H  H9  1  0.50003200  0.54141200  0.91580600  1
  H  H10  1  0.99995600  0.45776900  0.16576500  1
  H  H11  1  0.00008500  0.45826600  0.66663400  1
  H  H12  1  0.49997600  0.54650700  0.23656900  1
  H  H13  1  0.50008900  0.54711400  0.73618200  1
  H  H14  1  0.99999900  0.45307300  0.48691300  1
  H  H15  1  0.00002500  0.45342800  0.98603500  1
  H  H16  1  0.65036800  0.41152200  0.32342400  1
  H  H17  1  0.65016400  0.41095400  0.82162100  1
  H  H18  1  0.34961200  0.41151700  0.32344100  1
  H  H19  1  0.34961800  0.41110300  0.82159600  1
  H  H20  1  0.84975500  0.58881900  0.07230400  1
  H  H21  1  0.84960200  0.58889200  0.57255100  1
  H  H22  1  0.15027200  0.58879400  0.07232500  1
  H  H23  1  0.15039000  0.58892500  0.57250900  1
  H  H24  1  0.63851200  0.18798600  0.04634600  1
  H  H25  1  0.63857200  0.18690000  0.55201700  1
  H  H26  1  0.36144800  0.18800300  0.04645500  1
  H  H27  1  0.36135600  0.18688700  0.55194700  1
  H  H28  1  0.86132600  0.81273400  0.29757600  1
  H  H29  1  0.86169400  0.81225000  0.80069300  1
  H  H30  1  0.13865800  0.81278200  0.29750200  1
  H  H31  1  0.13862600  0.81221600  0.80081000  1
  N  N32  1  0.49999100  0.47715300  0.32516700  1
  N  N33  1  0.49999700  0.47671300  0.82399300  1
  N  N34  1  0.99999000  0.52309700  0.07434400  1
  N  N35  1  0.00001200  0.52328100  0.57479300  1
  O  O36  1  0.50008900  0.83775600  0.38866500  1
  O  O37  1  0.49999500  0.83335200  0.88810000  1
  O  O38  1  0.99994500  0.16514000  0.13838100  1
  O  O39  1  0.99989700  0.16390800  0.63863000  1
  O  O40  1  0.49990000  0.63484900  0.07347400  1
  O  O41  1  0.50001600  0.63726200  0.57289600  1
  O  O42  1  0.99999100  0.36341100  0.32378300  1
  O  O43  1  0.00039600  0.36428200  0.82296600  1
  O  O44  1  0.50003400  0.20097800  0.10745100  1
  O  O45  1  0.49991400  0.20187400  0.61234700  1
  O  O46  1  0.00003800  0.79906200  0.35830600  1
  O  O47  1  0.00007700  0.79797200  0.86142800  1
  O  O48  1  0.71871000  0.88149700  0.11819000  1
  O  O49  1  0.71888900  0.88364700  0.61933800  1
  O  O50  1  0.28141300  0.88160000  0.11827700  1
  O  O51  1  0.28114700  0.88365700  0.61930200  1
  O  O52  1  0.78105200  0.11687900  0.36883400  1
  O  O53  1  0.78134100  0.11760400  0.86899000  1
  O  O54  1  0.21886500  0.11686800  0.36883300  1
  O  O55  1  0.21825100  0.11716600  0.86895000  1
