# generated using pymatgen
data_VO2
_symmetry_space_group_name_H-M   'P 1'
_cell_length_a   5.65014140
_cell_length_b   5.67673687
_cell_length_c   5.65112753
_cell_angle_alpha   64.42007342
_cell_angle_beta   101.35894115
_cell_angle_gamma   68.44203494
_symmetry_Int_Tables_number   1
_chemical_formula_structural   VO2
_chemical_formula_sum   'V4 O8'
_cell_volume   137.71615347
_cell_formula_units_Z   4
loop_
 _symmetry_equiv_pos_site_id
 _symmetry_equiv_pos_as_xyz
  1  'x, y, z'
loop_
 _atom_site_type_symbol
 _atom_site_label
 _atom_site_symmetry_multiplicity
 _atom_site_fract_x
 _atom_site_fract_y
 _atom_site_fract_z
 _atom_site_occupancy
  V  V0  1  0.00000700  0.00000100  0.99997900  1
  V  V1  1  0.49998400  0.50001700  0.99998900  1
  V  V2  1  0.17608300  0.24999900  0.42607300  1
  V  V3  1  0.82392500  0.75001000  0.57392700  1
  O  O4  1  0.73046500  0.46958600  0.76448200  1
  O  O5  1  0.26594000  0.97008700  0.79945100  1
  O  O6  1  0.73407000  0.02990700  0.20055900  1
  O  O7  1  0.26953800  0.53041000  0.23553300  1
  O  O8  1  0.18198200  0.53592900  0.71752300  1
  O  O9  1  0.75343000  0.96405100  0.71794300  1
  O  O10  1  0.24657600  0.03593300  0.28205800  1
  O  O11  1  0.81800000  0.46407000  0.28248400  1
