# generated using pymatgen
data_Mn5SnO8
_symmetry_space_group_name_H-M   'P 1'
_cell_length_a   6.15341570
_cell_length_b   10.62514516
_cell_length_c   6.33457787
_cell_angle_alpha   88.86269257
_cell_angle_beta   61.42258349
_cell_angle_gamma   74.02124497
_symmetry_Int_Tables_number   1
_chemical_formula_structural   Mn5SnO8
_chemical_formula_sum   'Mn10 Sn2 O16'
_cell_volume   346.57080391
_cell_formula_units_Z   2
loop_
 _symmetry_equiv_pos_site_id
 _symmetry_equiv_pos_as_xyz
  1  'x, y, z'
loop_
 _atom_site_type_symbol
 _atom_site_label
 _atom_site_symmetry_multiplicity
 _atom_site_fract_x
 _atom_site_fract_y
 _atom_site_fract_z
 _atom_site_occupancy
  Mn  Mn0  1  0.23819300  0.62851600  0.87205300  1
  Mn  Mn1  1  0.62110400  0.80891300  0.43672300  1
  Mn  Mn2  1  0.13668200  0.80787200  0.42937900  1
  Mn  Mn3  1  0.61871400  0.81379300  0.95183800  1
  Mn  Mn4  1  0.62332900  0.07040900  0.68597400  1
  Mn  Mn5  1  0.23941300  0.12853300  0.37220500  1
  Mn  Mn6  1  0.62183300  0.30893900  0.93671500  1
  Mn  Mn7  1  0.13788600  0.30779300  0.92921700  1
  Mn  Mn8  1  0.61934600  0.31374200  0.45155600  1
  Mn  Mn9  1  0.62252400  0.57032000  0.18590100  1
  Sn  Sn10  1  0.01655100  0.99133700  0.00523900  1
  Sn  Sn11  1  0.01637700  0.49119700  0.50524000  1
  O  O12  1  0.40844000  0.42616100  0.30880500  1
  O  O13  1  0.40852200  0.92627700  0.80864300  1
  O  O14  1  0.85196100  0.43392900  0.32889000  1
  O  O15  1  0.85148800  0.93393200  0.82961400  1
  O  O16  1  0.89894400  0.19113100  0.04147400  1
  O  O17  1  0.89768300  0.69112000  0.54217500  1
  O  O18  1  0.88695200  0.42915000  0.83581900  1
  O  O19  1  0.88557000  0.92931200  0.33592700  1
  O  O20  1  0.39616900  0.69948700  0.05036700  1
  O  O21  1  0.39661700  0.19947400  0.55091300  1
  O  O22  1  0.83870800  0.70522900  0.06652100  1
  O  O23  1  0.83971200  0.20525300  0.56585400  1
  O  O24  1  0.35894600  0.19504600  0.03629100  1
  O  O25  1  0.35821100  0.69493400  0.53598800  1
  O  O26  1  0.35556200  0.42407800  0.82502700  1
  O  O27  1  0.35456300  0.92412300  0.32565300  1
