# generated using pymatgen
data_VO2
_symmetry_space_group_name_H-M   'P 1'
_cell_length_a   3.00917964
_cell_length_b   8.75815357
_cell_length_c   10.66702419
_cell_angle_alpha   89.71984576
_cell_angle_beta   89.75879487
_cell_angle_gamma   91.80899712
_symmetry_Int_Tables_number   1
_chemical_formula_structural   VO2
_chemical_formula_sum   'V8 O16'
_cell_volume   280.98175448
_cell_formula_units_Z   8
loop_
 _symmetry_equiv_pos_site_id
 _symmetry_equiv_pos_as_xyz
  1  'x, y, z'
loop_
 _atom_site_type_symbol
 _atom_site_label
 _atom_site_symmetry_multiplicity
 _atom_site_fract_x
 _atom_site_fract_y
 _atom_site_fract_z
 _atom_site_occupancy
  V  V0  1  0.73503600  0.06040100  0.11587200  1
  V  V1  1  0.76159100  0.07014100  0.60826600  1
  V  V2  1  0.76273300  0.56706800  0.89494200  1
  V  V3  1  0.24616200  0.42600000  0.10511500  1
  V  V4  1  0.77173300  0.56049300  0.38355500  1
  V  V5  1  0.22540700  0.44233300  0.61366100  1
  V  V6  1  0.22029700  0.93758600  0.89155900  1
  V  V7  1  0.24583700  0.93265100  0.39677000  1
  O  O8  1  0.21583500  0.71252600  0.36007200  1
  O  O9  1  0.78266000  0.29051900  0.63838300  1
  O  O10  1  0.78125700  0.79090100  0.86072300  1
  O  O11  1  0.24719900  0.20769400  0.13463400  1
  O  O12  1  0.26664000  0.60953900  0.01639400  1
  O  O13  1  0.74653200  0.38549000  0.98064100  1
  O  O14  1  0.74112000  0.88856700  0.51747900  1
  O  O15  1  0.26544700  0.11300600  0.48281100  1
  O  O16  1  0.74965800  0.98314200  0.28318000  1
  O  O17  1  0.25782700  0.02251500  0.71658400  1
  O  O18  1  0.26235600  0.52326900  0.78344500  1
  O  O19  1  0.74645900  0.47652900  0.21410900  1
  O  O20  1  0.22954700  0.92509200  0.07432200  1
  O  O21  1  0.74261200  0.07224700  0.93047800  1
  O  O22  1  0.74454300  0.57216000  0.57255800  1
  O  O23  1  0.25151500  0.43013000  0.42444800  1
