# generated using pymatgen
data_CaMn2O4
_symmetry_space_group_name_H-M   'P 1'
_cell_length_a   6.30433193
_cell_length_b   10.70878365
_cell_length_c   6.34762025
_cell_angle_alpha   75.12819257
_cell_angle_beta   60.21642908
_cell_angle_gamma   90.00512430
_symmetry_Int_Tables_number   1
_chemical_formula_structural   CaMn2O4
_chemical_formula_sum   'Ca4 Mn8 O16'
_cell_volume   355.29159585
_cell_formula_units_Z   4
loop_
 _symmetry_equiv_pos_site_id
 _symmetry_equiv_pos_as_xyz
  1  'x, y, z'
loop_
 _atom_site_type_symbol
 _atom_site_label
 _atom_site_symmetry_multiplicity
 _atom_site_fract_x
 _atom_site_fract_y
 _atom_site_fract_z
 _atom_site_occupancy
  Ca  Ca0  1  0.01637500  0.01107500  0.96753200  1
  Ca  Ca1  1  0.51650700  0.51129000  0.96741100  1
  Ca  Ca2  1  0.93641500  0.31132300  0.12711300  1
  Ca  Ca3  1  0.43609000  0.81111400  0.12770900  1
  Mn  Mn4  1  0.43726100  0.31440300  0.62085900  1
  Mn  Mn5  1  0.93634400  0.81348600  0.62183200  1
  Mn  Mn6  1  0.68604400  0.06047200  0.62761400  1
  Mn  Mn7  1  0.18592700  0.56075600  0.62822900  1
  Mn  Mn8  1  0.94232500  0.31449400  0.62064700  1
  Mn  Mn9  1  0.44174700  0.81349500  0.62196000  1
  Mn  Mn10  1  0.85916500  0.61264300  0.28172500  1
  Mn  Mn11  1  0.35965300  0.11359700  0.28042000  1
  O  O12  1  0.56167600  0.16620500  0.87507400  1
  O  O13  1  0.06254900  0.66564800  0.87451100  1
  O  O14  1  0.30375200  0.45764000  0.39325700  1
  O  O15  1  0.80386100  0.95706200  0.39291600  1
  O  O16  1  0.55836400  0.18249400  0.42903900  1
  O  O17  1  0.05932000  0.68227500  0.43080300  1
  O  O18  1  0.77738700  0.40947100  0.44536200  1
  O  O19  1  0.27767100  0.91069800  0.44463400  1
  O  O20  1  0.01233400  0.18258900  0.42924600  1
  O  O21  1  0.50992900  0.68233000  0.43077600  1
  O  O22  1  0.87783100  0.44020900  0.81575600  1
  O  O23  1  0.37683800  0.93964100  0.81655600  1
  O  O24  1  0.10101600  0.22289100  0.79777000  1
  O  O25  1  0.60069300  0.72264600  0.79854400  1
  O  O26  1  0.30650500  0.44023300  0.81595600  1
  O  O27  1  0.80641400  0.93982100  0.81676000  1
