# generated using pymatgen
data_Co5SbO8
_symmetry_space_group_name_H-M   'P 1'
_cell_length_a   6.02294068
_cell_length_b   6.00276551
_cell_length_c   10.71155191
_cell_angle_alpha   74.05083784
_cell_angle_beta   90.25502960
_cell_angle_gamma   59.78608341
_symmetry_Int_Tables_number   1
_chemical_formula_structural   Co5SbO8
_chemical_formula_sum   'Co10 Sb2 O16'
_cell_volume   316.99365241
_cell_formula_units_Z   2
loop_
 _symmetry_equiv_pos_site_id
 _symmetry_equiv_pos_as_xyz
  1  'x, y, z'
loop_
 _atom_site_type_symbol
 _atom_site_label
 _atom_site_symmetry_multiplicity
 _atom_site_fract_x
 _atom_site_fract_y
 _atom_site_fract_z
 _atom_site_occupancy
  Co  Co0  1  0.67854400  0.14582200  0.54698700  1
  Co  Co1  1  0.32406300  0.85911100  0.45289100  1
  Co  Co2  1  0.82154200  0.85408200  0.95310700  1
  Co  Co3  1  0.25117600  0.49925300  0.25011600  1
  Co  Co4  1  0.74965900  0.50012500  0.75019300  1
  Co  Co5  1  0.17784500  0.13975900  0.04697100  1
  Co  Co6  1  0.75082900  0.49934100  0.25031900  1
  Co  Co7  1  0.25001200  0.50036800  0.74990900  1
  Co  Co8  1  0.75117000  0.99880300  0.24988400  1
  Co  Co9  1  0.24959300  0.00006300  0.74999300  1
  Sb  Sb10  1  0.49887600  0.49672900  0.00003100  1
  Sb  Sb11  1  0.00103300  0.50328900  0.50024100  1
  O  O12  1  0.63151700  0.27624800  0.35134500  1
  O  O13  1  0.09112500  0.28128000  0.85019400  1
  O  O14  1  0.86930400  0.72303400  0.14870500  1
  O  O15  1  0.40798600  0.71997500  0.64908900  1
  O  O16  1  0.38276200  0.26796600  0.12095900  1
  O  O17  1  0.87914300  0.27859200  0.62472500  1
  O  O18  1  0.84577200  0.26984500  0.12389900  1
  O  O19  1  0.34851300  0.26575900  0.62154300  1
  O  O20  1  0.38542100  0.73179400  0.11781400  1
  O  O21  1  0.88368500  0.73766700  0.61783400  1
  O  O22  1  0.65362200  0.73115700  0.37575500  1
  O  O23  1  0.15145500  0.73436700  0.87846200  1
  O  O24  1  0.11331100  0.26827200  0.38236700  1
  O  O25  1  0.61569900  0.26261700  0.88223600  1
  O  O26  1  0.11631000  0.73282100  0.37924000  1
  O  O27  1  0.62003300  0.72186300  0.87519000  1
