# generated using pymatgen
data_TiV3O8
_symmetry_space_group_name_H-M   'P 1'
_cell_length_a   3.79058109
_cell_length_b   12.85187366
_cell_length_c   6.43668691
_cell_angle_alpha   77.27999102
_cell_angle_beta   107.14491970
_cell_angle_gamma   98.50188187
_symmetry_Int_Tables_number   1
_chemical_formula_structural   TiV3O8
_chemical_formula_sum   'Ti2 V6 O16'
_cell_volume   291.12278060
_cell_formula_units_Z   2
loop_
 _symmetry_equiv_pos_site_id
 _symmetry_equiv_pos_as_xyz
  1  'x, y, z'
loop_
 _atom_site_type_symbol
 _atom_site_label
 _atom_site_symmetry_multiplicity
 _atom_site_fract_x
 _atom_site_fract_y
 _atom_site_fract_z
 _atom_site_occupancy
  Ti  Ti0  1  0.69133800  0.64121000  0.74215600  1
  Ti  Ti1  1  0.69138400  0.14120500  0.24145200  1
  V  V2  1  0.35778000  0.65244800  0.14396300  1
  V  V3  1  0.59243700  0.35083200  0.84778900  1
  V  V4  1  0.29709600  0.36216700  0.23656200  1
  V  V5  1  0.44019700  0.15245100  0.64377500  1
  V  V6  1  0.60522600  0.85079100  0.34805100  1
  V  V7  1  0.30183500  0.86231000  0.73674900  1
  O  O8  1  0.14291800  0.85407700  0.42629200  1
  O  O9  1  0.13617800  0.35392800  0.92603900  1
  O  O10  1  0.23933700  0.67311700  0.80425100  1
  O  O11  1  0.23791800  0.17300400  0.30437100  1
  O  O12  1  0.36478300  0.99662200  0.73810400  1
  O  O13  1  0.37065200  0.49654100  0.23743500  1
  O  O14  1  0.44584100  0.81302900  0.07599500  1
  O  O15  1  0.44304200  0.31303900  0.57589800  1
  O  O16  1  0.56568500  0.68191600  0.43329800  1
  O  O17  1  0.54989700  0.18195900  0.93303900  1
  O  O18  1  0.63477300  0.50148900  0.77256900  1
  O  O19  1  0.63752500  0.00145500  0.27242600  1
  O  O20  1  0.76038500  0.82528500  0.69100400  1
  O  O21  1  0.75551800  0.32513800  0.19094800  1
  O  O22  1  0.86968400  0.64804500  0.08900200  1
  O  O23  1  0.86856800  0.14794200  0.58883700  1
