# generated using pymatgen
data_NaV2O4
_symmetry_space_group_name_H-M   'P 1'
_cell_length_a   2.94714401
_cell_length_b   9.27565023
_cell_length_c   10.87477441
_cell_angle_alpha   89.76154141
_cell_angle_beta   90.00829665
_cell_angle_gamma   89.99876883
_symmetry_Int_Tables_number   1
_chemical_formula_structural   NaV2O4
_chemical_formula_sum   'Na4 V8 O16'
_cell_volume   297.27761743
_cell_formula_units_Z   4
loop_
 _symmetry_equiv_pos_site_id
 _symmetry_equiv_pos_as_xyz
  1  'x, y, z'
loop_
 _atom_site_type_symbol
 _atom_site_label
 _atom_site_symmetry_multiplicity
 _atom_site_fract_x
 _atom_site_fract_y
 _atom_site_fract_z
 _atom_site_occupancy
  Na  Na0  1  0.74998700  0.25611300  0.84662000  1
  Na  Na1  1  0.74997800  0.75514100  0.65350600  1
  Na  Na2  1  0.24998300  0.24419100  0.34856500  1
  Na  Na3  1  0.25001300  0.74587700  0.15167900  1
  V  V4  1  0.75000100  0.43443500  0.61088900  1
  V  V5  1  0.25000000  0.08016200  0.60477500  1
  V  V6  1  0.74988800  0.92045100  0.39576800  1
  V  V7  1  0.75000600  0.41548700  0.10622700  1
  V  V8  1  0.24999100  0.56693000  0.38844500  1
  V  V9  1  0.25003900  0.06525800  0.10943400  1
  V  V10  1  0.74998900  0.93403400  0.88912100  1
  V  V11  1  0.24998200  0.57822100  0.89650900  1
  O  O12  1  0.25002200  0.47957900  0.21414000  1
  O  O13  1  0.25029700  0.98024400  0.28379800  1
  O  O14  1  0.74991600  0.01958900  0.71757700  1
  O  O15  1  0.75000200  0.52050200  0.78175600  1
  O  O16  1  0.74998100  0.42395100  0.42708500  1
  O  O17  1  0.25000500  0.57686700  0.57076600  1
  O  O18  1  0.24998600  0.07647300  0.92512200  1
  O  O19  1  0.75003400  0.92379600  0.06957900  1
  O  O20  1  0.75001800  0.11279400  0.48100600  1
  O  O21  1  0.24983800  0.88681300  0.51912300  1
  O  O22  1  0.24999000  0.38540300  0.98383900  1
  O  O23  1  0.74999500  0.60774700  0.02303100  1
  O  O24  1  0.75006400  0.70975100  0.34927600  1
  O  O25  1  0.24997900  0.29080600  0.64876400  1
  O  O26  1  0.24998700  0.79014700  0.85289100  1
  O  O27  1  0.75003100  0.21923700  0.15070700  1
