# generated using pymatgen
data_Sr2La2MnZnO8
_symmetry_space_group_name_H-M   'P 1'
_cell_length_a   5.48941003
_cell_length_b   5.48940932
_cell_length_c   13.25883972
_cell_angle_alpha   78.20446482
_cell_angle_beta   78.20416023
_cell_angle_gamma   90.70065120
_symmetry_Int_Tables_number   1
_chemical_formula_structural   Sr2La2MnZnO8
_chemical_formula_sum   'Sr4 La4 Mn2 Zn2 O16'
_cell_volume   382.23197907
_cell_formula_units_Z   2
loop_
 _symmetry_equiv_pos_site_id
 _symmetry_equiv_pos_as_xyz
  1  'x, y, z'
loop_
 _atom_site_type_symbol
 _atom_site_label
 _atom_site_symmetry_multiplicity
 _atom_site_fract_x
 _atom_site_fract_y
 _atom_site_fract_z
 _atom_site_occupancy
  Sr  Sr0  1  0.18113900  0.18115500  0.63752800  1
  Sr  Sr1  1  0.68114100  0.68112000  0.63753100  1
  Sr  Sr2  1  0.31884100  0.31883000  0.36247100  1
  Sr  Sr3  1  0.81882600  0.81883700  0.36247300  1
  La  La4  1  0.42792200  0.92789600  0.14560200  1
  La  La5  1  0.92851900  0.42854200  0.14459600  1
  La  La6  1  0.07210100  0.57214300  0.85440000  1
  La  La7  1  0.57151500  0.07147800  0.85541000  1
  Mn  Mn8  1  0.25002800  0.75005500  0.49996400  1
  Mn  Mn9  1  0.75001400  0.25002500  0.49999900  1
  Zn  Zn10  1  0.50002300  0.49998200  0.00000100  1
  Zn  Zn11  1  0.00001400  0.00004800  0.00000100  1
  O  O12  1  0.33300400  0.83300600  0.33324700  1
  O  O13  1  0.83087500  0.33087900  0.33746400  1
  O  O14  1  0.16691800  0.66693300  0.66675300  1
  O  O15  1  0.66912900  0.16912100  0.66254100  1
  O  O16  1  0.08724900  0.08708900  0.82572000  1
  O  O17  1  0.58712900  0.58727500  0.82572800  1
  O  O18  1  0.41279100  0.41291700  0.17427700  1
  O  O19  1  0.91289800  0.91276600  0.17428400  1
  O  O20  1  0.99071500  0.00924100  0.49999900  1
  O  O21  1  0.50924900  0.49070700  0.50000000  1
  O  O22  1  0.49999400  0.00000000  0.50001600  1
  O  O23  1  0.99989000  0.49989300  0.49998300  1
  O  O24  1  0.75001300  0.25003300  0.00000100  1
  O  O25  1  0.25002600  0.75000000  0.00000400  1
  O  O26  1  0.25003800  0.25002600  0.00000300  1
  O  O27  1  0.74999800  0.75000300  0.00000500  1
