# generated using pymatgen
data_V2O3
_symmetry_space_group_name_H-M   'P 1'
_cell_length_a   3.11156919
_cell_length_b   6.89020777
_cell_length_c   7.61419757
_cell_angle_alpha   81.36893012
_cell_angle_beta   90.71645392
_cell_angle_gamma   76.54371534
_symmetry_Int_Tables_number   1
_chemical_formula_structural   V2O3
_chemical_formula_sum   'V6 O9'
_cell_volume   156.77310112
_cell_formula_units_Z   3
loop_
 _symmetry_equiv_pos_site_id
 _symmetry_equiv_pos_as_xyz
  1  'x, y, z'
loop_
 _atom_site_type_symbol
 _atom_site_label
 _atom_site_symmetry_multiplicity
 _atom_site_fract_x
 _atom_site_fract_y
 _atom_site_fract_z
 _atom_site_occupancy
  V  V0  1  0.96167000  0.06605800  0.18155700  1
  V  V1  1  0.64547000  0.69728800  0.49588500  1
  V  V2  1  0.31218900  0.36810400  0.86999900  1
  V  V3  1  0.01861000  0.93346800  0.81613100  1
  V  V4  1  0.36332400  0.29294600  0.50886300  1
  V  V5  1  0.68869500  0.63097900  0.13331500  1
  O  O6  1  0.47997100  0.99688700  0.99870300  1
  O  O7  1  0.55362900  0.89687400  0.65993100  1
  O  O8  1  0.45911300  0.11954100  0.32563300  1
  O  O9  1  0.17143100  0.65110000  0.96317900  1
  O  O10  1  0.82569000  0.35018000  0.03777100  1
  O  O11  1  0.13643200  0.76980300  0.29243400  1
  O  O12  1  0.88410700  0.23003800  0.71302700  1
  O  O13  1  0.21420300  0.55000500  0.63071600  1
  O  O14  1  0.78546600  0.44672800  0.37285500  1
