# generated using pymatgen
data_Sr3MnFeO7
_symmetry_space_group_name_H-M   'P 1'
_cell_length_a   5.54333858
_cell_length_b   5.54361080
_cell_length_c   10.44883636
_cell_angle_alpha   90.01159792
_cell_angle_beta   105.39179422
_cell_angle_gamma   89.95599580
_symmetry_Int_Tables_number   1
_chemical_formula_structural   Sr3MnFeO7
_chemical_formula_sum   'Sr6 Mn2 Fe2 O14'
_cell_volume   309.57727815
_cell_formula_units_Z   2
loop_
 _symmetry_equiv_pos_site_id
 _symmetry_equiv_pos_as_xyz
  1  'x, y, z'
loop_
 _atom_site_type_symbol
 _atom_site_label
 _atom_site_symmetry_multiplicity
 _atom_site_fract_x
 _atom_site_fract_y
 _atom_site_fract_z
 _atom_site_occupancy
  Sr  Sr0  1  0.81786200  0.50001500  0.63579000  1
  Sr  Sr1  1  0.31780000  0.99999900  0.63576300  1
  Sr  Sr2  1  0.68247500  0.00001600  0.36468600  1
  Sr  Sr3  1  0.18243800  0.49999700  0.36477100  1
  Sr  Sr4  1  0.49991000  0.99997800  0.99967200  1
  Sr  Sr5  1  0.99987300  0.50001100  0.99968000  1
  Mn  Mn6  1  0.59784100  0.49999000  0.19560900  1
  Mn  Mn7  1  0.09806900  0.99999600  0.19607000  1
  Fe  Fe8  1  0.90282700  0.99995300  0.80581900  1
  Fe  Fe9  1  0.40287800  0.49999600  0.80588500  1
  O  O10  1  0.80665400  0.99996800  0.61343200  1
  O  O11  1  0.30612700  0.50005200  0.61264900  1
  O  O12  1  0.69338000  0.49992800  0.38649800  1
  O  O13  1  0.19272800  0.00005300  0.38531900  1
  O  O14  1  0.50021500  0.50003200  0.00042700  1
  O  O15  1  0.99989800  0.99996000  0.99999000  1
  O  O16  1  0.64235400  0.73810900  0.80866200  1
  O  O17  1  0.16628900  0.26187800  0.80867300  1
  O  O18  1  0.14148600  0.76252200  0.80772000  1
  O  O19  1  0.66613700  0.23754900  0.80761800  1
  O  O20  1  0.84595200  0.75032000  0.19146800  1
  O  O21  1  0.34556700  0.24965300  0.19144800  1
  O  O22  1  0.34557800  0.74992600  0.19123700  1
  O  O23  1  0.84566000  0.25010100  0.19111400  1
