# generated using pymatgen
data_CaYMn2O6
_symmetry_space_group_name_H-M   'P 1'
_cell_length_a   5.37890063
_cell_length_b   5.61834635
_cell_length_c   7.46892700
_cell_angle_alpha   90.00005556
_cell_angle_beta   89.99839927
_cell_angle_gamma   92.34483958
_symmetry_Int_Tables_number   1
_chemical_formula_structural   CaYMn2O6
_chemical_formula_sum   'Ca2 Y2 Mn4 O12'
_cell_volume   225.52591277
_cell_formula_units_Z   2
loop_
 _symmetry_equiv_pos_site_id
 _symmetry_equiv_pos_as_xyz
  1  'x, y, z'
loop_
 _atom_site_type_symbol
 _atom_site_label
 _atom_site_symmetry_multiplicity
 _atom_site_fract_x
 _atom_site_fract_y
 _atom_site_fract_z
 _atom_site_occupancy
  Ca  Ca0  1  0.51130800  0.55643100  0.25000500  1
  Ca  Ca1  1  0.00982500  0.94385900  0.75001200  1
  Y  Y2  1  0.98554600  0.06742600  0.25000800  1
  Y  Y3  1  0.48235400  0.43117500  0.74999900  1
  Mn  Mn4  1  0.49966400  0.99542700  0.50000500  1
  Mn  Mn5  1  0.99767700  0.50556000  0.50004600  1
  Mn  Mn6  1  0.99767300  0.50563600  0.99990800  1
  Mn  Mn7  1  0.49968000  0.99556500  0.99996900  1
  O  O8  1  0.39377700  0.96896800  0.25001100  1
  O  O9  1  0.90089700  0.52492200  0.74997300  1
  O  O10  1  0.08372000  0.47357300  0.24996900  1
  O  O11  1  0.59255500  0.03452800  0.75000300  1
  O  O12  1  0.79284600  0.81476500  0.04906400  1
  O  O13  1  0.30998600  0.69721700  0.94945200  1
  O  O14  1  0.30994300  0.69712700  0.55056400  1
  O  O15  1  0.79284000  0.81467600  0.45096200  1
  O  O16  1  0.70130300  0.29067100  0.45277400  1
  O  O17  1  0.21852500  0.19582400  0.54458800  1
  O  O18  1  0.21855500  0.19588900  0.95544300  1
  O  O19  1  0.70132700  0.29076000  0.04724400  1
