# generated using pymatgen
data_Ba2YTlCo2O7
_symmetry_space_group_name_H-M   'P 1'
_cell_length_a   5.64486257
_cell_length_b   12.62093216
_cell_length_c   5.56570410
_cell_angle_alpha   90.00125965
_cell_angle_beta   89.92819188
_cell_angle_gamma   90.00996789
_symmetry_Int_Tables_number   1
_chemical_formula_structural   Ba2YTlCo2O7
_chemical_formula_sum   'Ba4 Y2 Tl2 Co4 O14'
_cell_volume   396.51951885
_cell_formula_units_Z   2
loop_
 _symmetry_equiv_pos_site_id
 _symmetry_equiv_pos_as_xyz
  1  'x, y, z'
loop_
 _atom_site_type_symbol
 _atom_site_label
 _atom_site_symmetry_multiplicity
 _atom_site_fract_x
 _atom_site_fract_y
 _atom_site_fract_z
 _atom_site_occupancy
  Ba  Ba0  1  0.99704700  0.20828800  0.50311300  1
  Ba  Ba1  1  0.50306500  0.20830000  0.00282300  1
  Ba  Ba2  1  0.99693900  0.79174900  0.50297500  1
  Ba  Ba3  1  0.50309900  0.79174100  0.00271700  1
  Y  Y4  1  0.99988800  0.49995900  0.50214700  1
  Y  Y5  1  0.50042500  0.49996200  0.00213400  1
  Tl  Tl6  1  0.04056800  0.00004800  0.03714900  1
  Tl  Tl7  1  0.46026900  0.00004000  0.53524100  1
  Co  Co8  1  0.50003600  0.36982400  0.50223400  1
  Co  Co9  1  0.50001000  0.63002600  0.50216700  1
  Co  Co10  1  0.00023100  0.36845900  0.00230500  1
  Co  Co11  1  0.00039600  0.63133900  0.00222800  1
  O  O12  1  0.05871100  0.00006900  0.45043400  1
  O  O13  1  0.43951700  0.00005100  0.94983700  1
  O  O14  1  0.98909500  0.16903300  0.99556500  1
  O  O15  1  0.51033200  0.16821700  0.49512200  1
  O  O16  1  0.51014700  0.83193100  0.49499700  1
  O  O17  1  0.98872800  0.83126900  0.99540500  1
  O  O18  1  0.25014800  0.38580800  0.25251700  1
  O  O19  1  0.74972400  0.38650100  0.75287700  1
  O  O20  1  0.25038300  0.38567500  0.75241500  1
  O  O21  1  0.75080400  0.38637900  0.25301600  1
  O  O22  1  0.25018800  0.61388400  0.75234600  1
  O  O23  1  0.75070200  0.61355200  0.25304500  1
  O  O24  1  0.25004800  0.61411800  0.25238500  1
  O  O25  1  0.74950600  0.61378300  0.75280500  1
