# generated using pymatgen
data_VCr2O4
_symmetry_space_group_name_H-M   'P 1'
_cell_length_a   6.07895869
_cell_length_b   6.08379871
_cell_length_c   6.12704615
_cell_angle_alpha   59.93071830
_cell_angle_beta   119.20253117
_cell_angle_gamma   120.35283403
_symmetry_Int_Tables_number   1
_chemical_formula_structural   VCr2O4
_chemical_formula_sum   'V2 Cr4 O8'
_cell_volume   160.64760741
_cell_formula_units_Z   2
loop_
 _symmetry_equiv_pos_site_id
 _symmetry_equiv_pos_as_xyz
  1  'x, y, z'
loop_
 _atom_site_type_symbol
 _atom_site_label
 _atom_site_symmetry_multiplicity
 _atom_site_fract_x
 _atom_site_fract_y
 _atom_site_fract_z
 _atom_site_occupancy
  V  V0  1  0.11480600  0.36451500  0.36542600  1
  V  V1  1  0.88009500  0.63119600  0.62742700  1
  Cr  Cr2  1  0.50046800  0.99986500  0.50149700  1
  Cr  Cr3  1  0.99746500  0.99827500  0.99924400  1
  Cr  Cr4  1  0.50062000  0.50448300  0.99656800  1
  Cr  Cr5  1  0.50001600  0.99855300  0.99878700  1
  O  O6  1  0.26114500  0.24618900  0.77217000  1
  O  O7  1  0.77004600  0.22941400  0.80267700  1
  O  O8  1  0.25722100  0.23809200  0.23711100  1
  O  O9  1  0.71838600  0.24308800  0.23272000  1
  O  O10  1  0.29112300  0.76029900  0.77280600  1
  O  O11  1  0.74232300  0.76701200  0.76657200  1
  O  O12  1  0.23095100  0.75361300  0.21276000  1
  O  O13  1  0.73533400  0.76540700  0.21423400  1
