# generated using pymatgen
data_MgMn2O4
_symmetry_space_group_name_H-M   'P 1'
_cell_length_a   6.04913042
_cell_length_b   6.04583960
_cell_length_c   10.45921603
_cell_angle_alpha   91.00193883
_cell_angle_beta   105.92568975
_cell_angle_gamma   119.89096392
_symmetry_Int_Tables_number   1
_chemical_formula_structural   MgMn2O4
_chemical_formula_sum   'Mg4 Mn8 O16'
_cell_volume   313.39836668
_cell_formula_units_Z   4
loop_
 _symmetry_equiv_pos_site_id
 _symmetry_equiv_pos_as_xyz
  1  'x, y, z'
loop_
 _atom_site_type_symbol
 _atom_site_label
 _atom_site_symmetry_multiplicity
 _atom_site_fract_x
 _atom_site_fract_y
 _atom_site_fract_z
 _atom_site_occupancy
  Mg  Mg0  1  0.99343700  0.51840200  0.50091400  1
  Mg  Mg1  1  0.98387300  0.00598700  0.00034300  1
  Mg  Mg2  1  0.37603400  0.43721000  0.81306000  1
  Mg  Mg3  1  0.37297000  0.93970100  0.31239800  1
  Mn  Mn4  1  0.37713900  0.93548600  0.81205700  1
  Mn  Mn5  1  0.37246400  0.43806500  0.31323100  1
  Mn  Mn6  1  0.38121600  0.19258100  0.56248200  1
  Mn  Mn7  1  0.36880600  0.68155800  0.06155300  1
  Mn  Mn8  1  0.87704500  0.43705200  0.81245700  1
  Mn  Mn9  1  0.87469300  0.93902500  0.31282900  1
  Mn  Mn10  1  0.76677200  0.86677400  0.62403800  1
  Mn  Mn11  1  0.75535800  0.36022100  0.12382800  1
  O  O12  1  0.66156600  0.09987700  0.69812400  1
  O  O13  1  0.59552900  0.53798600  0.19728600  1
  O  O14  1  0.08973800  0.77794000  0.92834000  1
  O  O15  1  0.14771900  0.33967000  0.42901600  1
  O  O16  1  0.18243000  0.07420900  0.69123000  1
  O  O17  1  0.16919700  0.56933900  0.19424200  1
  O  O18  1  0.62152000  0.29789100  0.91567300  1
  O  O19  1  0.61273600  0.79527700  0.41353000  1
  O  O20  1  0.62813500  0.52132100  0.69565800  1
  O  O21  1  0.61523000  0.01325600  0.19057500  1
  O  O22  1  0.12269900  0.34580100  0.93128100  1
  O  O23  1  0.13043800  0.85823700  0.43483400  1
  O  O24  1  0.13025900  0.57422500  0.70695700  1
  O  O25  1  0.13015000  0.07975700  0.20689400  1
  O  O26  1  0.57875900  0.80240200  0.93506100  1
  O  O27  1  0.58409000  0.31074600  0.43211000  1
