# generated using pymatgen
data_Ba2YTlCo2O7
_symmetry_space_group_name_H-M   'P 1'
_cell_length_a   3.95918291
_cell_length_b   7.84507137
_cell_length_c   12.76175935
_cell_angle_alpha   90.00718841
_cell_angle_beta   89.99461798
_cell_angle_gamma   89.50915361
_symmetry_Int_Tables_number   1
_chemical_formula_structural   Ba2YTlCo2O7
_chemical_formula_sum   'Ba4 Y2 Tl2 Co4 O14'
_cell_volume   396.36662028
_cell_formula_units_Z   2
loop_
 _symmetry_equiv_pos_site_id
 _symmetry_equiv_pos_as_xyz
  1  'x, y, z'
loop_
 _atom_site_type_symbol
 _atom_site_label
 _atom_site_symmetry_multiplicity
 _atom_site_fract_x
 _atom_site_fract_y
 _atom_site_fract_z
 _atom_site_occupancy
  Ba  Ba0  1  0.50165900  0.25510000  0.20651700  1
  Ba  Ba1  1  0.50289300  0.74740500  0.20551800  1
  Ba  Ba2  1  0.49939800  0.24643800  0.79295500  1
  Ba  Ba3  1  0.50218700  0.75554600  0.79232500  1
  Y  Y4  1  0.50128900  0.25584200  0.50215600  1
  Y  Y5  1  0.50392400  0.74697000  0.50237900  1
  Tl  Tl6  1  0.03513100  0.02167900  0.00186200  1
  Tl  Tl7  1  0.04481100  0.51776300  0.99434900  1
  Co  Co8  1  0.00241700  0.50144600  0.37345600  1
  Co  Co9  1  0.00356300  0.00148500  0.62408100  1
  Co  Co10  1  0.00165000  0.00127000  0.37538100  1
  Co  Co11  1  0.99725100  0.50048700  0.64260800  1
  O  O12  1  0.44008100  0.23217200  0.99927700  1
  O  O13  1  0.46157800  0.71702300  0.99735900  1
  O  O14  1  0.99333600  0.99610500  0.16585000  1
  O  O15  1  0.99115200  0.49625700  0.16132400  1
  O  O16  1  0.99209300  0.99687400  0.83841600  1
  O  O17  1  0.99453400  0.49639300  0.82262700  1
  O  O18  1  0.00350800  0.25616200  0.38558000  1
  O  O19  1  0.00308900  0.74664700  0.38625100  1
  O  O20  1  0.50248100  0.50195800  0.38913900  1
  O  O21  1  0.50234900  0.00158600  0.38686600  1
  O  O22  1  0.50514300  0.50150000  0.61610500  1
  O  O23  1  0.50430000  0.00243200  0.61323700  1
  O  O24  1  0.00444000  0.24771700  0.61157500  1
  O  O25  1  0.00573700  0.75573900  0.61281000  1
