# generated using pymatgen
data_MgMn2O4
_symmetry_space_group_name_H-M   'P 1'
_cell_length_a   6.02613863
_cell_length_b   8.57419267
_cell_length_c   6.06991486
_cell_angle_alpha   90.04709274
_cell_angle_beta   88.13687634
_cell_angle_gamma   89.60521454
_symmetry_Int_Tables_number   1
_chemical_formula_structural   MgMn2O4
_chemical_formula_sum   'Mg4 Mn8 O16'
_cell_volume   313.45467952
_cell_formula_units_Z   4
loop_
 _symmetry_equiv_pos_site_id
 _symmetry_equiv_pos_as_xyz
  1  'x, y, z'
loop_
 _atom_site_type_symbol
 _atom_site_label
 _atom_site_symmetry_multiplicity
 _atom_site_fract_x
 _atom_site_fract_y
 _atom_site_fract_z
 _atom_site_occupancy
  Mg  Mg0  1  0.98555700  0.00701300  0.99039500  1
  Mg  Mg1  1  0.48279300  0.50197800  0.49648500  1
  Mg  Mg2  1  0.74601600  0.62387700  0.00032900  1
  Mg  Mg3  1  0.25013400  0.12670700  0.49736500  1
  Mn  Mn4  1  0.50016700  0.87926500  0.75511700  1
  Mn  Mn5  1  0.50111400  0.87405200  0.25041200  1
  Mn  Mn6  1  0.25269100  0.62037100  0.99998000  1
  Mn  Mn7  1  0.51519100  0.24441500  0.00527800  1
  Mn  Mn8  1  0.01655700  0.74558300  0.50565200  1
  Mn  Mn9  1  0.99991400  0.37169900  0.24790200  1
  Mn  Mn10  1  0.00104200  0.37509000  0.74956400  1
  Mn  Mn11  1  0.74848400  0.12852300  0.49964900  1
  O  O12  1  0.22912700  0.36778100  0.02605600  1
  O  O13  1  0.74806500  0.89990100  0.52547500  1
  O  O14  1  0.26164600  0.87886200  0.97865500  1
  O  O15  1  0.75566700  0.35904700  0.47065700  1
  O  O16  1  0.79264800  0.38038700  0.00915900  1
  O  O17  1  0.29268100  0.88585100  0.50470400  1
  O  O18  1  0.00525100  0.60193000  0.22757500  1
  O  O19  1  0.50986900  0.13485200  0.71266400  1
  O  O20  1  0.01062400  0.60170200  0.77516100  1
  O  O21  1  0.52387500  0.10468300  0.27859300  1
  O  O22  1  0.48646300  0.64501800  0.23370000  1
  O  O23  1  0.97836100  0.14623800  0.72131800  1
  O  O24  1  0.49035500  0.61724400  0.77999100  1
  O  O25  1  0.99092800  0.14031700  0.27019600  1
  O  O26  1  0.71648100  0.86857900  0.99880200  1
  O  O27  1  0.20830200  0.36903200  0.48916500  1
