# generated using pymatgen
data_Mg2CrWO6
_symmetry_space_group_name_H-M   'P 1'
_cell_length_a   5.18594358
_cell_length_b   5.53122536
_cell_length_c   8.98665859
_cell_angle_alpha   105.74435256
_cell_angle_beta   89.83543671
_cell_angle_gamma   62.33233799
_symmetry_Int_Tables_number   1
_chemical_formula_structural   Mg2CrWO6
_chemical_formula_sum   'Mg4 Cr2 W2 O12'
_cell_volume   217.21232178
_cell_formula_units_Z   2
loop_
 _symmetry_equiv_pos_site_id
 _symmetry_equiv_pos_as_xyz
  1  'x, y, z'
loop_
 _atom_site_type_symbol
 _atom_site_label
 _atom_site_symmetry_multiplicity
 _atom_site_fract_x
 _atom_site_fract_y
 _atom_site_fract_z
 _atom_site_occupancy
  Mg  Mg0  1  0.57780200  0.85431900  0.14613500  1
  Mg  Mg1  1  0.08013600  0.85324100  0.64763400  1
  Mg  Mg2  1  0.83325800  0.35664800  0.39489800  1
  Mg  Mg3  1  0.32915800  0.35219100  0.89496900  1
  Cr  Cr4  1  0.26876300  0.47111900  0.24675600  1
  Cr  Cr5  1  0.77051100  0.47851200  0.75107900  1
  W  W6  1  0.52090100  0.97342200  0.49819100  1
  W  W7  1  0.01920600  0.97310400  0.99906400  1
  O  O8  1  0.72865500  0.19279600  0.55490300  1
  O  O9  1  0.24676700  0.18879100  0.05437200  1
  O  O10  1  0.27770100  0.18943000  0.35695400  1
  O  O11  1  0.77694700  0.19013300  0.86126600  1
  O  O12  1  0.21269000  0.18899000  0.69071800  1
  O  O13  1  0.71575400  0.19612300  0.18692000  1
  O  O14  1  0.36021100  0.69764800  0.44134700  1
  O  O15  1  0.85782800  0.68954900  0.94263500  1
  O  O16  1  0.82797300  0.69057400  0.30391400  1
  O  O17  1  0.32600600  0.69181000  0.80905800  1
  O  O18  1  0.79958800  0.68670800  0.60645000  1
  O  O19  1  0.29418800  0.69260100  0.10666200  1
