# generated using pymatgen
data_NaMn3V4O12
_symmetry_space_group_name_H-M   'P 1'
_cell_length_a   6.50599690
_cell_length_b   6.47388987
_cell_length_c   6.50397094
_cell_angle_alpha   109.86290972
_cell_angle_beta   109.55558236
_cell_angle_gamma   109.20568392
_symmetry_Int_Tables_number   1
_chemical_formula_structural   NaMn3V4O12
_chemical_formula_sum   'Na1 Mn3 V4 O12'
_cell_volume   210.32538001
_cell_formula_units_Z   1
loop_
 _symmetry_equiv_pos_site_id
 _symmetry_equiv_pos_as_xyz
  1  'x, y, z'
loop_
 _atom_site_type_symbol
 _atom_site_label
 _atom_site_symmetry_multiplicity
 _atom_site_fract_x
 _atom_site_fract_y
 _atom_site_fract_z
 _atom_site_occupancy
  Na  Na0  1  0.00001200  0.99996300  0.99997800  1
  Mn  Mn1  1  0.50041100  0.00039200  0.49994600  1
  Mn  Mn2  1  0.00019200  0.49993400  0.50024600  1
  Mn  Mn3  1  0.49997000  0.50036200  0.00036200  1
  V  V4  1  0.00009800  0.99990600  0.49999800  1
  V  V5  1  0.50001000  0.00009400  0.99989100  1
  V  V6  1  0.99990700  0.49998300  0.00009200  1
  V  V7  1  0.50001100  0.50002800  0.50000800  1
  O  O8  1  0.69165500  0.82141800  0.50301700  1
  O  O9  1  0.68266300  0.17787700  0.87021000  1
  O  O10  1  0.31733800  0.82196300  0.12961000  1
  O  O11  1  0.30831500  0.17854100  0.49679400  1
  O  O12  1  0.81766800  0.50387800  0.68815800  1
  O  O13  1  0.18212300  0.87270700  0.69185200  1
  O  O14  1  0.81775000  0.12716400  0.30821000  1
  O  O15  1  0.18218800  0.49580200  0.31176800  1
  O  O16  1  0.51187200  0.69767000  0.82516800  1
  O  O17  1  0.87117700  0.69694100  0.18793200  1
  O  O18  1  0.12869200  0.30309600  0.81201700  1
  O  O19  1  0.48795000  0.30228100  0.17474200  1
