# generated using pymatgen
data_MnSiO3
_symmetry_space_group_name_H-M   'P 1'
_cell_length_a   5.43571155
_cell_length_b   6.87581544
_cell_length_c   6.87580819
_cell_angle_alpha   85.59475214
_cell_angle_beta   75.72566509
_cell_angle_gamma   75.72544938
_symmetry_Int_Tables_number   1
_chemical_formula_structural   MnSiO3
_chemical_formula_sum   'Mn4 Si4 O12'
_cell_volume   241.32456861
_cell_formula_units_Z   4
loop_
 _symmetry_equiv_pos_site_id
 _symmetry_equiv_pos_as_xyz
  1  'x, y, z'
loop_
 _atom_site_type_symbol
 _atom_site_label
 _atom_site_symmetry_multiplicity
 _atom_site_fract_x
 _atom_site_fract_y
 _atom_site_fract_z
 _atom_site_occupancy
  Mn  Mn0  1  0.74998600  0.26056300  0.23945300  1
  Mn  Mn1  1  0.75015800  0.89820700  0.60167600  1
  Mn  Mn2  1  0.25000000  0.73945200  0.76056200  1
  Mn  Mn3  1  0.24997800  0.10187800  0.39814300  1
  Si  Si4  1  0.22865700  0.20983000  0.88237200  1
  Si  Si5  1  0.27133500  0.61762500  0.29016100  1
  Si  Si6  1  0.77133300  0.79014900  0.11762900  1
  Si  Si7  1  0.72864000  0.38237500  0.70986400  1
  O  O8  1  0.95560900  0.36195700  0.83875400  1
  O  O9  1  0.54437100  0.66125500  0.13804800  1
  O  O10  1  0.04436400  0.63802200  0.16128200  1
  O  O11  1  0.45561100  0.33872900  0.86199100  1
  O  O12  1  0.14195400  0.13611800  0.11334400  1
  O  O13  1  0.35802200  0.38666200  0.36389100  1
  O  O14  1  0.85801000  0.86386700  0.88666800  1
  O  O15  1  0.64197300  0.61333800  0.63613900  1
  O  O16  1  0.33879800  0.03298400  0.71436100  1
  O  O17  1  0.16122900  0.78563000  0.46701000  1
  O  O18  1  0.66120500  0.96700200  0.28564800  1
  O  O19  1  0.83876900  0.21436100  0.53300400  1
