# generated using pymatgen
data_CaCr2O4
_symmetry_space_group_name_H-M   'P 1'
_cell_length_a   3.04639500
_cell_length_b   5.15527956
_cell_length_c   10.09651300
_cell_angle_alpha   89.99922223
_cell_angle_beta   90.00014333
_cell_angle_gamma   107.18430228
_symmetry_Int_Tables_number   1
_chemical_formula_structural   CaCr2O4
_chemical_formula_sum   'Ca2 Cr4 O8'
_cell_volume   151.48743061
_cell_formula_units_Z   2
loop_
 _symmetry_equiv_pos_site_id
 _symmetry_equiv_pos_as_xyz
  1  'x, y, z'
loop_
 _atom_site_type_symbol
 _atom_site_label
 _atom_site_symmetry_multiplicity
 _atom_site_fract_x
 _atom_site_fract_y
 _atom_site_fract_z
 _atom_site_occupancy
  Ca  Ca0  1  0.38852600  0.77709300  0.74999900  1
  Ca  Ca1  1  0.61146100  0.22289300  0.24999800  1
  Cr  Cr2  1  0.13427700  0.26857800  0.93135300  1
  Cr  Cr3  1  0.86571100  0.73137100  0.43136000  1
  Cr  Cr4  1  0.86573100  0.73140800  0.06864500  1
  Cr  Cr5  1  0.13434300  0.26873600  0.56867000  1
  O  O6  1  0.94244700  0.88479200  0.25000000  1
  O  O7  1  0.05754000  0.11518700  0.74999300  1
  O  O8  1  0.49999100  0.99997800  0.99998900  1
  O  O9  1  0.49999700  0.00000000  0.50000100  1
  O  O10  1  0.23536000  0.47062800  0.39301600  1
  O  O11  1  0.76463600  0.52938300  0.60699400  1
  O  O12  1  0.76462100  0.52934400  0.89300400  1
  O  O13  1  0.23535900  0.47060900  0.10697800  1
