# generated using pymatgen
data_Na3V3O8
_symmetry_space_group_name_H-M   'P 1'
_cell_length_a   5.62576232
_cell_length_b   8.87041848
_cell_length_c   8.90707564
_cell_angle_alpha   66.40844622
_cell_angle_beta   71.62970167
_cell_angle_gamma   71.52992269
_symmetry_Int_Tables_number   1
_chemical_formula_structural   Na3V3O8
_chemical_formula_sum   'Na6 V6 O16'
_cell_volume   377.17552544
_cell_formula_units_Z   2
loop_
 _symmetry_equiv_pos_site_id
 _symmetry_equiv_pos_as_xyz
  1  'x, y, z'
loop_
 _atom_site_type_symbol
 _atom_site_label
 _atom_site_symmetry_multiplicity
 _atom_site_fract_x
 _atom_site_fract_y
 _atom_site_fract_z
 _atom_site_occupancy
  Na  Na0  1  0.50163300  0.49630600  0.50029800  1
  Na  Na1  1  0.99845700  0.00381500  0.99966200  1
  Na  Na2  1  0.83080900  0.50433700  0.83418400  1
  Na  Na3  1  0.32992100  0.00335800  0.33608800  1
  Na  Na4  1  0.16991500  0.49666900  0.16394500  1
  Na  Na5  1  0.66908500  0.99571400  0.66583500  1
  V  V6  1  0.75003000  0.24997900  0.24993200  1
  V  V7  1  0.11281900  0.22044000  0.55375900  1
  V  V8  1  0.38725500  0.27950900  0.94628800  1
  V  V9  1  0.25003600  0.74993400  0.74994900  1
  V  V10  1  0.61344300  0.72017500  0.05307300  1
  V  V11  1  0.88648800  0.77977600  0.44695600  1
  O  O12  1  0.99064500  0.34239700  0.67579800  1
  O  O13  1  0.49193800  0.84187000  0.17500400  1
  O  O14  1  0.00794100  0.65809000  0.32494800  1
  O  O15  1  0.50923200  0.15753100  0.82417600  1
  O  O16  1  0.41029000  0.75562300  0.92151200  1
  O  O17  1  0.90956000  0.25636200  0.42215800  1
  O  O18  1  0.66263100  0.50291200  0.17141200  1
  O  O19  1  0.16138200  0.00400600  0.67267700  1
  O  O20  1  0.08869200  0.24355300  0.07769700  1
  O  O21  1  0.58730200  0.74472400  0.57852000  1
  O  O22  1  0.91262100  0.75531400  0.92150300  1
  O  O23  1  0.41129200  0.25653900  0.42227400  1
  O  O24  1  0.33858300  0.49595300  0.82738500  1
  O  O25  1  0.83728700  0.99706000  0.32862800  1
  O  O26  1  0.59043100  0.24364800  0.07788500  1
  O  O27  1  0.08968300  0.74441000  0.57845500  1
