# generated using pymatgen
data_TaMnO4
_symmetry_space_group_name_H-M   'P 1'
_cell_length_a   6.80958397
_cell_length_b   7.71579735
_cell_length_c   7.04064046
_cell_angle_alpha   60.87336090
_cell_angle_beta   94.01137752
_cell_angle_gamma   65.24189793
_symmetry_Int_Tables_number   1
_chemical_formula_structural   TaMnO4
_chemical_formula_sum   'Ta4 Mn4 O16'
_cell_volume   275.41055656
_cell_formula_units_Z   4
loop_
 _symmetry_equiv_pos_site_id
 _symmetry_equiv_pos_as_xyz
  1  'x, y, z'
loop_
 _atom_site_type_symbol
 _atom_site_label
 _atom_site_symmetry_multiplicity
 _atom_site_fract_x
 _atom_site_fract_y
 _atom_site_fract_z
 _atom_site_occupancy
  Ta  Ta0  1  0.70082700  0.33260700  0.45373600  1
  Ta  Ta1  1  0.20101900  0.33263800  0.95376100  1
  Ta  Ta2  1  0.79898300  0.66736000  0.04624100  1
  Ta  Ta3  1  0.29917300  0.66738900  0.54626500  1
  Mn  Mn4  1  0.70467900  0.84416800  0.45181500  1
  Mn  Mn5  1  0.29531900  0.15583400  0.54818000  1
  Mn  Mn6  1  0.20465900  0.84435400  0.95172400  1
  Mn  Mn7  1  0.79534100  0.15564200  0.04827900  1
  O  O8  1  0.46297700  0.88553200  0.87774300  1
  O  O9  1  0.96298300  0.88564600  0.37760700  1
  O  O10  1  0.03701400  0.11435600  0.62239000  1
  O  O11  1  0.53702800  0.11446600  0.12225800  1
  O  O12  1  0.91677600  0.86685800  0.98330600  1
  O  O13  1  0.41696200  0.86684700  0.48321900  1
  O  O14  1  0.58303800  0.13315500  0.51678100  1
  O  O15  1  0.08322700  0.13314300  0.01669300  1
  O  O16  1  0.36767600  0.61992100  0.28904400  1
  O  O17  1  0.86770700  0.61998000  0.78895400  1
  O  O18  1  0.13229100  0.38002000  0.21104800  1
  O  O19  1  0.63232400  0.38008100  0.71095400  1
  O  O20  1  0.77362700  0.60475700  0.33986300  1
  O  O21  1  0.27358400  0.60475500  0.83989300  1
  O  O22  1  0.72641500  0.39524500  0.16010800  1
  O  O23  1  0.22637200  0.39524300  0.66013800  1
