# generated using pymatgen
data_BN
_symmetry_space_group_name_H-M   'P 1'
_cell_length_a   4.42422300
_cell_length_b   4.42422300
_cell_length_c   2.55035600
_cell_angle_alpha   90.00000000
_cell_angle_beta   90.00000000
_cell_angle_gamma   90.00000000
_symmetry_Int_Tables_number   1
_chemical_formula_structural   BN
_chemical_formula_sum   'B4 N4'
_cell_volume   49.92002860
_cell_formula_units_Z   4
loop_
 _symmetry_equiv_pos_site_id
 _symmetry_equiv_pos_as_xyz
  1  'x, y, z'
loop_
 _atom_site_type_symbol
 _atom_site_label
 _atom_site_symmetry_multiplicity
 _atom_site_fract_x
 _atom_site_fract_y
 _atom_site_fract_z
 _atom_site_occupancy
  B  B0  1  0.17428300  0.82571700  0.50000000  1
  B  B1  1  0.32571700  0.32571700  0.00000000  1
  B  B2  1  0.67428300  0.67428300  0.00000000  1
  B  B3  1  0.82571700  0.17428300  0.50000000  1
  N  N4  1  0.81260100  0.81260100  0.50000000  1
  N  N5  1  0.31260100  0.68739900  0.00000000  1
  N  N6  1  0.68739900  0.31260100  0.00000000  1
  N  N7  1  0.18739900  0.18739900  0.50000000  1
