# generated using pymatgen
data_Ba2TaMnO6
_symmetry_space_group_name_H-M   'P 1'
_cell_length_a   5.78159532
_cell_length_b   5.78266840
_cell_length_c   19.38548581
_cell_angle_alpha   99.83320023
_cell_angle_beta   99.87410202
_cell_angle_gamma   61.29777304
_symmetry_Int_Tables_number   1
_chemical_formula_structural   Ba2TaMnO6
_chemical_formula_sum   'Ba8 Ta4 Mn4 O24'
_cell_volume   557.11949471
_cell_formula_units_Z   4
loop_
 _symmetry_equiv_pos_site_id
 _symmetry_equiv_pos_as_xyz
  1  'x, y, z'
loop_
 _atom_site_type_symbol
 _atom_site_label
 _atom_site_symmetry_multiplicity
 _atom_site_fract_x
 _atom_site_fract_y
 _atom_site_fract_z
 _atom_site_occupancy
  Ba  Ba0  1  0.24220600  0.25939200  0.74999600  1
  Ba  Ba1  1  0.50791900  0.49119900  0.50030200  1
  Ba  Ba2  1  0.00784200  0.99190900  0.00030700  1
  Ba  Ba3  1  0.74228700  0.75861600  0.24992300  1
  Ba  Ba4  1  0.61705600  0.63412400  0.87474000  1
  Ba  Ba5  1  0.88200700  0.86540100  0.62470000  1
  Ba  Ba6  1  0.38281400  0.36590800  0.12504700  1
  Ba  Ba7  1  0.11713200  0.13355800  0.37474400  1
  Ta  Ta8  1  0.92494800  0.95140700  0.81258800  1
  Ta  Ta9  1  0.19984900  0.17391100  0.56239600  1
  Ta  Ta10  1  0.69996500  0.67425600  0.06244100  1
  Ta  Ta11  1  0.42501800  0.45072300  0.31260500  1
  Mn  Mn12  1  0.31230800  0.31304300  0.93751900  1
  Mn  Mn13  1  0.56226800  0.56256000  0.68750200  1
  Mn  Mn14  1  0.06280000  0.06237700  0.18755800  1
  Mn  Mn15  1  0.81232400  0.81245800  0.43742400  1
  O  O16  1  0.21082200  0.78258800  0.75217500  1
  O  O17  1  0.51986400  0.98280500  0.50114500  1
  O  O18  1  0.02006500  0.48311500  0.00124900  1
  O  O19  1  0.71136100  0.27992700  0.25240000  1
  O  O20  1  0.60524000  0.14233700  0.87389300  1
  O  O21  1  0.91386000  0.34280600  0.62272800  1
  O  O22  1  0.41390800  0.84283700  0.12275900  1
  O  O23  1  0.10515500  0.64209900  0.37383100  1
  O  O24  1  0.10998100  0.14376400  0.87524000  1
  O  O25  1  0.39384900  0.35708800  0.62532700  1
  O  O26  1  0.89391800  0.85732800  0.12537300  1
  O  O27  1  0.60920700  0.64367300  0.37521800  1
  O  O28  1  0.73105600  0.76829400  0.74971800  1
  O  O29  1  0.01575800  0.98114900  0.49959600  1
  O  O30  1  0.51591600  0.48127600  0.99964100  1
  O  O31  1  0.23095600  0.26774100  0.24970000  1
  O  O32  1  0.73280800  0.27395300  0.75183200  1
  O  O33  1  0.02932500  0.46107900  0.50247700  1
  O  O34  1  0.52948400  0.96143600  0.00256600  1
  O  O35  1  0.23334500  0.77269400  0.25169700  1
  O  O36  1  0.09584000  0.66402200  0.87251300  1
  O  O37  1  0.39188000  0.85152400  0.62319000  1
  O  O38  1  0.89211000  0.35190000  0.12334300  1
  O  O39  1  0.59555200  0.16372300  0.37259800  1
