# generated using pymatgen
data_Ba2YCr3O7
_symmetry_space_group_name_H-M   'P 1'
_cell_length_a   5.63193073
_cell_length_b   12.35671993
_cell_length_c   5.63197598
_cell_angle_alpha   102.82933625
_cell_angle_beta   91.47500989
_cell_angle_gamma   102.82929951
_symmetry_Int_Tables_number   1
_chemical_formula_structural   Ba2YCr3O7
_chemical_formula_sum   'Ba4 Y2 Cr6 O14'
_cell_volume   371.45409934
_cell_formula_units_Z   2
loop_
 _symmetry_equiv_pos_site_id
 _symmetry_equiv_pos_as_xyz
  1  'x, y, z'
loop_
 _atom_site_type_symbol
 _atom_site_label
 _atom_site_symmetry_multiplicity
 _atom_site_fract_x
 _atom_site_fract_y
 _atom_site_fract_z
 _atom_site_occupancy
  Ba  Ba0  1  0.40894700  0.81790900  0.90895800  1
  Ba  Ba1  1  0.90894500  0.81791200  0.40895400  1
  Ba  Ba2  1  0.09007300  0.18016200  0.59007900  1
  Ba  Ba3  1  0.59007100  0.18016200  0.09008100  1
  Y  Y4  1  0.25111500  0.50217900  0.75109400  1
  Y  Y5  1  0.75111100  0.50218100  0.25110900  1
  Cr  Cr6  1  0.49942500  0.99893800  0.49944500  1
  Cr  Cr7  1  0.00029200  0.00064200  0.00030400  1
  Cr  Cr8  1  0.82178700  0.64355700  0.82178800  1
  Cr  Cr9  1  0.32420100  0.64836500  0.32418900  1
  Cr  Cr10  1  0.67274800  0.34547900  0.67274200  1
  Cr  Cr11  1  0.17554000  0.35103100  0.17552700  1
  O  O12  1  0.74993300  0.00248500  0.25248800  1
  O  O13  1  0.25247200  0.00248700  0.74995200  1
  O  O14  1  0.06288800  0.62104900  0.06286700  1
  O  O15  1  0.55820700  0.62105000  0.55820000  1
  O  O16  1  0.93690100  0.37849600  0.93689200  1
  O  O17  1  0.44162900  0.37849500  0.44161400  1
  O  O18  1  0.06361600  0.62224300  0.55863000  1
  O  O19  1  0.55864400  0.62224400  0.06361300  1
  O  O20  1  0.93610200  0.37688900  0.44084000  1
  O  O21  1  0.44084400  0.37689000  0.93609000  1
  O  O22  1  0.41177600  0.82346600  0.41178300  1
  O  O23  1  0.91468100  0.82931800  0.91470000  1
  O  O24  1  0.08879400  0.17773300  0.08880100  1
  O  O25  1  0.58925600  0.17864400  0.58926400  1
