# generated using pymatgen
data_Na3V5O10
_symmetry_space_group_name_H-M   'P 1'
_cell_length_a   5.12111291
_cell_length_b   12.19546758
_cell_length_c   7.25210307
_cell_angle_alpha   78.61836058
_cell_angle_beta   97.37717068
_cell_angle_gamma   85.44975272
_symmetry_Int_Tables_number   1
_chemical_formula_structural   Na3V5O10
_chemical_formula_sum   'Na6 V10 O20'
_cell_volume   437.78354508
_cell_formula_units_Z   2
loop_
 _symmetry_equiv_pos_site_id
 _symmetry_equiv_pos_as_xyz
  1  'x, y, z'
loop_
 _atom_site_type_symbol
 _atom_site_label
 _atom_site_symmetry_multiplicity
 _atom_site_fract_x
 _atom_site_fract_y
 _atom_site_fract_z
 _atom_site_occupancy
  Na  Na0  1  0.24658900  0.34825200  0.85153500  1
  Na  Na1  1  0.75351800  0.85166200  0.34844000  1
  Na  Na2  1  0.74821900  0.04811400  0.54994600  1
  Na  Na3  1  0.24726400  0.54469000  0.05131100  1
  Na  Na4  1  0.25196900  0.15187000  0.65008300  1
  Na  Na5  1  0.75266000  0.65531400  0.14869200  1
  V  V6  1  0.00008500  0.59993100  0.60010200  1
  V  V7  1  0.50021200  0.09996000  0.10013400  1
  V  V8  1  0.50745800  0.29835900  0.30379900  1
  V  V9  1  0.00816500  0.79966500  0.80523700  1
  V  V10  1  0.99160600  0.40034800  0.39462500  1
  V  V11  1  0.49250800  0.90169900  0.89619300  1
  V  V12  1  0.99852200  0.20184300  0.19564800  1
  V  V13  1  0.49692600  0.70222200  0.69356400  1
  V  V14  1  0.50290700  0.49776600  0.50632600  1
  V  V15  1  0.00146700  0.99819100  0.00427200  1
  O  O16  1  0.84640200  0.04495700  0.23395200  1
  O  O17  1  0.34514500  0.54467200  0.73246400  1
  O  O18  1  0.15349900  0.15497300  0.96621300  1
  O  O19  1  0.65452300  0.65519200  0.46774900  1
  O  O20  1  0.63228600  0.05855500  0.86678600  1
  O  O21  1  0.13017700  0.55564800  0.36693900  1
  O  O22  1  0.36780900  0.14159900  0.33326200  1
  O  O23  1  0.86963600  0.64441100  0.83309900  1
  O  O24  1  0.34624400  0.34655300  0.52975300  1
  O  O25  1  0.86555400  0.84258000  0.03085800  1
  O  O26  1  0.13459900  0.35750500  0.16909000  1
  O  O27  1  0.65391200  0.85354600  0.67026300  1
  O  O28  1  0.62318500  0.25412700  0.07384400  1
  O  O29  1  0.12385500  0.75361900  0.57239700  1
  O  O30  1  0.87596500  0.44626500  0.62761600  1
  O  O31  1  0.37691000  0.94585400  0.12613200  1
  O  O32  1  0.87555000  0.24535100  0.43755700  1
  O  O33  1  0.35150700  0.73848300  0.93101300  1
  O  O34  1  0.64854000  0.46154800  0.26881900  1
  O  O35  1  0.12462300  0.95467800  0.76228700  1
