# generated using pymatgen
data_Ba2YCr3O7
_symmetry_space_group_name_H-M   'P 1'
_cell_length_a   5.62234459
_cell_length_b   12.44856294
_cell_length_c   5.62234670
_cell_angle_alpha   102.69537061
_cell_angle_beta   91.54529385
_cell_angle_gamma   102.69469372
_symmetry_Int_Tables_number   1
_chemical_formula_structural   Ba2YCr3O7
_chemical_formula_sum   'Ba4 Y2 Cr6 O14'
_cell_volume   373.33120565
_cell_formula_units_Z   2
loop_
 _symmetry_equiv_pos_site_id
 _symmetry_equiv_pos_as_xyz
  1  'x, y, z'
loop_
 _atom_site_type_symbol
 _atom_site_label
 _atom_site_symmetry_multiplicity
 _atom_site_fract_x
 _atom_site_fract_y
 _atom_site_fract_z
 _atom_site_occupancy
  Ba  Ba0  1  0.40987600  0.81975800  0.90987500  1
  Ba  Ba1  1  0.90986700  0.81976700  0.40986400  1
  Ba  Ba2  1  0.09025800  0.18053300  0.59028500  1
  Ba  Ba3  1  0.59027600  0.18054300  0.09029400  1
  Y  Y4  1  0.25003700  0.50006400  0.75004100  1
  Y  Y5  1  0.75004700  0.50006700  0.25004400  1
  Cr  Cr6  1  0.50057400  0.00109700  0.50056200  1
  Cr  Cr7  1  0.82372400  0.64741300  0.82365000  1
  Cr  Cr8  1  0.32780600  0.65557200  0.32777700  1
  Cr  Cr9  1  0.99961300  0.99931100  0.99966400  1
  Cr  Cr10  1  0.67217800  0.34438200  0.67219200  1
  Cr  Cr11  1  0.17650000  0.35301400  0.17649600  1
  O  O12  1  0.74778300  0.99988100  0.25204700  1
  O  O13  1  0.25202600  0.99987300  0.74777400  1
  O  O14  1  0.06439900  0.62005700  0.06438100  1
  O  O15  1  0.55571400  0.62006400  0.55569000  1
  O  O16  1  0.93564100  0.37984700  0.93564300  1
  O  O17  1  0.44422500  0.37985700  0.44422500  1
  O  O18  1  0.06537000  0.62196600  0.55661100  1
  O  O19  1  0.55662500  0.62196600  0.06535000  1
  O  O20  1  0.93459300  0.37794500  0.44336800  1
  O  O21  1  0.44336700  0.37794300  0.93461400  1
  O  O22  1  0.41152500  0.82288300  0.41153300  1
  O  O23  1  0.91405800  0.82806500  0.91406600  1
  O  O24  1  0.08529200  0.17068400  0.08531600  1
  O  O25  1  0.58862700  0.17745100  0.58863800  1
