# generated using pymatgen
data_SrLa3Mn2Cr2O12
_symmetry_space_group_name_H-M   'P 1'
_cell_length_a   5.52691829
_cell_length_b   5.55618733
_cell_length_c   9.60782097
_cell_angle_alpha   74.98271603
_cell_angle_beta   91.70670887
_cell_angle_gamma   59.99985898
_symmetry_Int_Tables_number   1
_chemical_formula_structural   SrLa3Mn2Cr2O12
_chemical_formula_sum   'Sr1 La3 Mn2 Cr2 O12'
_cell_volume   242.26855585
_cell_formula_units_Z   1
loop_
 _symmetry_equiv_pos_site_id
 _symmetry_equiv_pos_as_xyz
  1  'x, y, z'
loop_
 _atom_site_type_symbol
 _atom_site_label
 _atom_site_symmetry_multiplicity
 _atom_site_fract_x
 _atom_site_fract_y
 _atom_site_fract_z
 _atom_site_occupancy
  Sr  Sr0  1  0.87229200  0.25337100  0.62611200  1
  La  La1  1  0.37355200  0.24893400  0.12240400  1
  La  La2  1  0.12868200  0.74820500  0.37908600  1
  La  La3  1  0.62387400  0.74841500  0.87228900  1
  Mn  Mn4  1  0.50384000  0.00083900  0.49853600  1
  Mn  Mn5  1  0.25082300  0.49620100  0.74956600  1
  Cr  Cr6  1  0.99604900  0.99758900  0.00157600  1
  Cr  Cr7  1  0.74701400  0.50267400  0.25118000  1
  O  O8  1  0.80523100  0.81255500  0.12587600  1
  O  O9  1  0.33127200  0.82318200  0.61247000  1
  O  O10  1  0.16854600  0.24774200  0.34424400  1
  O  O11  1  0.14688800  0.68087400  0.90573400  1
  O  O12  1  0.64023000  0.26041100  0.84708100  1
  O  O13  1  0.65249000  0.70572600  0.40447300  1
  O  O14  1  0.33713900  0.74113700  0.16275200  1
  O  O15  1  0.84081200  0.31789000  0.09349200  1
  O  O16  1  0.84616900  0.75726300  0.65262500  1
  O  O17  1  0.35074900  0.31040700  0.58948100  1
  O  O18  1  0.68756800  0.18353600  0.37504800  1
  O  O19  1  0.19678200  0.16304800  0.88597400  1
