# generated using pymatgen
data_V(CO3)2
_symmetry_space_group_name_H-M   'P 1'
_cell_length_a   8.02119926
_cell_length_b   8.41253680
_cell_length_c   8.04898674
_cell_angle_alpha   104.50805366
_cell_angle_beta   66.53768665
_cell_angle_gamma   104.49097881
_symmetry_Int_Tables_number   1
_chemical_formula_structural   V(CO3)2
_chemical_formula_sum   'V4 C8 O24'
_cell_volume   475.36666609
_cell_formula_units_Z   4
loop_
 _symmetry_equiv_pos_site_id
 _symmetry_equiv_pos_as_xyz
  1  'x, y, z'
loop_
 _atom_site_type_symbol
 _atom_site_label
 _atom_site_symmetry_multiplicity
 _atom_site_fract_x
 _atom_site_fract_y
 _atom_site_fract_z
 _atom_site_occupancy
  V  V0  1  0.80650500  0.62867500  0.44695300  1
  V  V1  1  0.69287900  0.87047000  0.05215000  1
  V  V2  1  0.30129200  0.12252200  0.94648800  1
  V  V3  1  0.19922000  0.37809900  0.55422700  1
  C  C4  1  0.49868500  0.39155800  0.69973600  1
  C  C5  1  0.99152400  0.89257600  0.20079800  1
  C  C6  1  0.95564900  0.64400900  0.74197900  1
  C  C7  1  0.44995900  0.13904700  0.24221400  1
  C  C8  1  0.54472800  0.85631800  0.75658700  1
  C  C9  1  0.05027300  0.36068900  0.25840900  1
  C  C10  1  0.00117000  0.10919100  0.80156800  1
  C  C11  1  0.50815700  0.60669500  0.29843800  1
  O  O12  1  0.65460200  0.56547000  0.29389700  1
  O  O13  1  0.14989300  0.07351900  0.80718200  1
  O  O14  1  0.44864000  0.17363200  0.09231100  1
  O  O15  1  0.96241500  0.68149700  0.59285300  1
  O  O16  1  0.05189200  0.32622400  0.40830800  1
  O  O17  1  0.53862300  0.81847300  0.90554500  1
  O  O18  1  0.84485000  0.93289000  0.20463100  1
  O  O19  1  0.34977400  0.42721900  0.69437900  1
  O  O20  1  0.85492200  0.71458500  0.90056100  1
  O  O21  1  0.34905600  0.20231200  0.40078000  1
  O  O22  1  0.65863800  0.46219100  0.60795900  1
  O  O23  1  0.15382300  0.94764300  0.09690900  1
  O  O24  1  0.84102000  0.03883100  0.89339500  1
  O  O25  1  0.34593300  0.55334500  0.40411400  1
  O  O26  1  0.64449400  0.78572200  0.59781300  1
  O  O27  1  0.15286400  0.29899400  0.09997800  1
  O  O28  1  0.48444300  0.29012700  0.79965500  1
  O  O29  1  0.97797000  0.79607600  0.30970000  1
  O  O30  1  0.04967700  0.54162500  0.74086300  1
  O  O31  1  0.55685100  0.04325300  0.23070900  1
  O  O32  1  0.45043400  0.95910300  0.75923700  1
  O  O33  1  0.94159500  0.45455500  0.26981500  1
  O  O34  1  0.01580200  0.21047400  0.70122800  1
  O  O35  1  0.52175000  0.70238900  0.18863100  1
