# generated using pymatgen
data_CeZnPd
_symmetry_space_group_name_H-M   'P 1'
_cell_length_a   4.44425400
_cell_length_b   6.88537300
_cell_length_c   8.05381600
_cell_angle_alpha   90.00000000
_cell_angle_beta   90.00000000
_cell_angle_gamma   90.00000000
_symmetry_Int_Tables_number   1
_chemical_formula_structural   CeZnPd
_chemical_formula_sum   'Ce4 Zn4 Pd4'
_cell_volume   246.44956022
_cell_formula_units_Z   4
loop_
 _symmetry_equiv_pos_site_id
 _symmetry_equiv_pos_as_xyz
  1  'x, y, z'
loop_
 _atom_site_type_symbol
 _atom_site_label
 _atom_site_symmetry_multiplicity
 _atom_site_fract_x
 _atom_site_fract_y
 _atom_site_fract_z
 _atom_site_occupancy
  Ce  Ce0  1  0.25000000  0.53260000  0.19647200  1
  Ce  Ce1  1  0.75000000  0.46740000  0.80352800  1
  Ce  Ce2  1  0.25000000  0.03260000  0.30352800  1
  Ce  Ce3  1  0.75000000  0.96740000  0.69647200  1
  Zn  Zn4  1  0.25000000  0.15406600  0.93185900  1
  Zn  Zn5  1  0.75000000  0.84593400  0.06814100  1
  Zn  Zn6  1  0.25000000  0.65406600  0.56814100  1
  Zn  Zn7  1  0.75000000  0.34593400  0.43185900  1
  Pd  Pd8  1  0.75000000  0.74062200  0.39228500  1
  Pd  Pd9  1  0.25000000  0.25937800  0.60771500  1
  Pd  Pd10  1  0.75000000  0.24062200  0.10771500  1
  Pd  Pd11  1  0.25000000  0.75937800  0.89228500  1
