# generated using pymatgen
data_Co2P
_symmetry_space_group_name_H-M   'P 1'
_cell_length_a   5.72631812
_cell_length_b   5.72631812
_cell_length_c   3.40791600
_cell_angle_alpha   90.00000000
_cell_angle_beta   90.00000000
_cell_angle_gamma   120.00000142
_symmetry_Int_Tables_number   1
_chemical_formula_structural   Co2P
_chemical_formula_sum   'Co6 P3'
_cell_volume   96.77661996
_cell_formula_units_Z   3
loop_
 _symmetry_equiv_pos_site_id
 _symmetry_equiv_pos_as_xyz
  1  'x, y, z'
loop_
 _atom_site_type_symbol
 _atom_site_label
 _atom_site_symmetry_multiplicity
 _atom_site_fract_x
 _atom_site_fract_y
 _atom_site_fract_z
 _atom_site_occupancy
  Co  Co0  1  0.60179900  0.00000000  0.50000000  1
  Co  Co1  1  0.39820100  0.39820100  0.50000000  1
  Co  Co2  1  0.00000000  0.60179900  0.50000000  1
  Co  Co3  1  0.00000000  0.25870600  0.00000000  1
  Co  Co4  1  0.74129400  0.74129400  0.00000000  1
  Co  Co5  1  0.25870600  0.00000000  0.00000000  1
  P  P6  1  0.00000000  0.00000000  0.50000000  1
  P  P7  1  0.66666700  0.33333300  0.00000000  1
  P  P8  1  0.33333300  0.66666700  0.00000000  1
