# generated using pymatgen
data_ZnS
_symmetry_space_group_name_H-M   'P 1'
_cell_length_a   15.91043549
_cell_length_b   15.91043549
_cell_length_c   15.91043500
_cell_angle_alpha   13.90878168
_cell_angle_beta   13.90878168
_cell_angle_gamma   13.90878216
_symmetry_Int_Tables_number   1
_chemical_formula_structural   ZnS
_chemical_formula_sum   'Zn5 S5'
_cell_volume   202.53000717
_cell_formula_units_Z   5
loop_
 _symmetry_equiv_pos_site_id
 _symmetry_equiv_pos_as_xyz
  1  'x, y, z'
loop_
 _atom_site_type_symbol
 _atom_site_label
 _atom_site_symmetry_multiplicity
 _atom_site_fract_x
 _atom_site_fract_y
 _atom_site_fract_z
 _atom_site_occupancy
  Zn  Zn0  1  0.73332100  0.73332100  0.73332100  1
  Zn  Zn1  1  0.13331600  0.13331600  0.13331600  1
  Zn  Zn2  1  0.53332700  0.53332700  0.53332700  1
  Zn  Zn3  1  0.26668000  0.26668000  0.26668000  1
  Zn  Zn4  1  0.99995700  0.99995700  0.99995700  1
  S  S5  1  0.68328800  0.68328800  0.68328800  1
  S  S6  1  0.08339300  0.08339300  0.08339300  1
  S  S7  1  0.48329900  0.48329900  0.48329900  1
  S  S8  1  0.21673500  0.21673500  0.21673500  1
  S  S9  1  0.95001100  0.95001100  0.95001100  1
