# generated using pymatgen
data_Zr3Al2
_symmetry_space_group_name_H-M   'P 1'
_cell_length_a   7.67099100
_cell_length_b   7.67099100
_cell_length_c   7.00680200
_cell_angle_alpha   90.00000000
_cell_angle_beta   90.00000000
_cell_angle_gamma   90.00000000
_symmetry_Int_Tables_number   1
_chemical_formula_structural   Zr3Al2
_chemical_formula_sum   'Zr12 Al8'
_cell_volume   412.30897804
_cell_formula_units_Z   4
loop_
 _symmetry_equiv_pos_site_id
 _symmetry_equiv_pos_as_xyz
  1  'x, y, z'
loop_
 _atom_site_type_symbol
 _atom_site_label
 _atom_site_symmetry_multiplicity
 _atom_site_fract_x
 _atom_site_fract_y
 _atom_site_fract_z
 _atom_site_occupancy
  Zr  Zr0  1  0.50000000  0.00000000  0.25000000  1
  Zr  Zr1  1  0.00000000  0.50000000  0.75000000  1
  Zr  Zr2  1  0.50000000  0.00000000  0.75000000  1
  Zr  Zr3  1  0.00000000  0.50000000  0.25000000  1
  Zr  Zr4  1  0.84340700  0.15659300  0.50000000  1
  Zr  Zr5  1  0.15659300  0.84340700  0.50000000  1
  Zr  Zr6  1  0.34340700  0.34340700  0.00000000  1
  Zr  Zr7  1  0.65659300  0.65659300  0.00000000  1
  Zr  Zr8  1  0.69940200  0.69940200  0.50000000  1
  Zr  Zr9  1  0.30059800  0.30059800  0.50000000  1
  Zr  Zr10  1  0.19940200  0.80059800  0.00000000  1
  Zr  Zr11  1  0.80059800  0.19940200  0.00000000  1
  Al  Al12  1  0.62103800  0.37896200  0.28700600  1
  Al  Al13  1  0.37896200  0.62103800  0.28700600  1
  Al  Al14  1  0.12103800  0.12103800  0.78700600  1
  Al  Al15  1  0.87896200  0.87896200  0.78700600  1
  Al  Al16  1  0.37896200  0.62103800  0.71299400  1
  Al  Al17  1  0.62103800  0.37896200  0.71299400  1
  Al  Al18  1  0.87896200  0.87896200  0.21299400  1
  Al  Al19  1  0.12103800  0.12103800  0.21299400  1
