# generated using pymatgen
data_Tb2Mg
_symmetry_space_group_name_H-M   'P 1'
_cell_length_a   7.01424454
_cell_length_b   7.01424454
_cell_length_c   7.01424454
_cell_angle_alpha   149.75319887
_cell_angle_beta   149.75319887
_cell_angle_gamma   43.30380091
_symmetry_Int_Tables_number   1
_chemical_formula_structural   Tb2Mg
_chemical_formula_sum   'Tb2 Mg1'
_cell_volume   87.33120766
_cell_formula_units_Z   1
loop_
 _symmetry_equiv_pos_site_id
 _symmetry_equiv_pos_as_xyz
  1  'x, y, z'
loop_
 _atom_site_type_symbol
 _atom_site_label
 _atom_site_symmetry_multiplicity
 _atom_site_fract_x
 _atom_site_fract_y
 _atom_site_fract_z
 _atom_site_occupancy
  Tb  Tb0  1  0.65980800  0.65980800  0.00000000  1
  Tb  Tb1  1  0.34019200  0.34019200  0.00000000  1
  Mg  Mg2  1  0.00000000  0.00000000  0.00000000  1
