# generated using pymatgen
data_Ti6Ge5
_symmetry_space_group_name_H-M   'P 1'
_cell_length_a   9.74271320
_cell_length_b   9.74271320
_cell_length_c   9.74271320
_cell_angle_alpha   148.85515231
_cell_angle_beta   131.68526736
_cell_angle_gamma   58.60730128
_symmetry_Int_Tables_number   1
_chemical_formula_structural   Ti6Ge5
_chemical_formula_sum   'Ti12 Ge10'
_cell_volume   354.39797005
_cell_formula_units_Z   2
loop_
 _symmetry_equiv_pos_site_id
 _symmetry_equiv_pos_as_xyz
  1  'x, y, z'
loop_
 _atom_site_type_symbol
 _atom_site_label
 _atom_site_symmetry_multiplicity
 _atom_site_fract_x
 _atom_site_fract_y
 _atom_site_fract_z
 _atom_site_occupancy
  Ti  Ti0  1  0.25497300  0.14206000  0.11291300  1
  Ti  Ti1  1  0.74502700  0.85794000  0.88708700  1
  Ti  Ti2  1  0.97085300  0.35794000  0.61291300  1
  Ti  Ti3  1  0.02914700  0.64206000  0.38708700  1
  Ti  Ti4  1  0.67881700  0.43691200  0.24190400  1
  Ti  Ti5  1  0.32118300  0.56308800  0.75809600  1
  Ti  Ti6  1  0.80499200  0.06308800  0.74190400  1
  Ti  Ti7  1  0.19500800  0.93691200  0.25809600  1
  Ti  Ti8  1  0.30852700  0.05852700  0.75000000  1
  Ti  Ti9  1  0.69147300  0.44147300  0.75000000  1
  Ti  Ti10  1  0.69147300  0.94147300  0.25000000  1
  Ti  Ti11  1  0.30852700  0.55852700  0.25000000  1
  Ge  Ge12  1  0.58830300  0.28902500  0.29927800  1
  Ge  Ge13  1  0.41169700  0.71097500  0.70072200  1
  Ge  Ge14  1  0.01025300  0.21097500  0.79927800  1
  Ge  Ge15  1  0.98974700  0.78902500  0.20072200  1
  Ge  Ge16  1  0.46990800  0.06790600  0.40200100  1
  Ge  Ge17  1  0.53009200  0.93209400  0.59799900  1
  Ge  Ge18  1  0.33409500  0.43209400  0.90200100  1
  Ge  Ge19  1  0.66590500  0.56790600  0.09799900  1
  Ge  Ge20  1  0.00000000  0.75000000  0.75000000  1
  Ge  Ge21  1  0.00000000  0.25000000  0.25000000  1
