# generated using pymatgen
data_Li7Mn4CoO12
_symmetry_space_group_name_H-M   'P 1'
_cell_length_a   5.02654041
_cell_length_b   8.88196708
_cell_length_c   9.89886515
_cell_angle_alpha   100.83531531
_cell_angle_beta   93.52212353
_cell_angle_gamma   92.27760814
_symmetry_Int_Tables_number   1
_chemical_formula_structural   Li7Mn4CoO12
_chemical_formula_sum   'Li14 Mn8 Co2 O24'
_cell_volume   432.64808264
_cell_formula_units_Z   2
loop_
 _symmetry_equiv_pos_site_id
 _symmetry_equiv_pos_as_xyz
  1  'x, y, z'
loop_
 _atom_site_type_symbol
 _atom_site_label
 _atom_site_symmetry_multiplicity
 _atom_site_fract_x
 _atom_site_fract_y
 _atom_site_fract_z
 _atom_site_occupancy
  Li  Li0  1  0.00000600  0.33331100  0.99999900  1
  Li  Li1  1  0.50001000  0.83336300  0.99999800  1
  Li  Li2  1  0.36901000  0.37559900  0.24882700  1
  Li  Li3  1  0.86901700  0.87562400  0.24881600  1
  Li  Li4  1  0.63097400  0.29103900  0.75118200  1
  Li  Li5  1  0.13098000  0.79106400  0.75117000  1
  Li  Li6  1  0.87711000  0.20826500  0.24870800  1
  Li  Li7  1  0.37707400  0.70828400  0.24872800  1
  Li  Li8  1  0.12292800  0.45839600  0.75127300  1
  Li  Li9  1  0.62289100  0.95841500  0.75129100  1
  Li  Li10  1  0.37908100  0.04002000  0.24368200  1
  Li  Li11  1  0.87907000  0.54001100  0.24369000  1
  Li  Li12  1  0.12091300  0.12663800  0.75631100  1
  Li  Li13  1  0.62092500  0.62664700  0.75630200  1
  Mn  Mn14  1  0.99831400  0.99936000  0.00006400  1
  Mn  Mn15  1  0.50169000  0.16730100  0.99993700  1
  Mn  Mn16  1  0.75058500  0.41696600  0.49951800  1
  Mn  Mn17  1  0.74941500  0.74969200  0.50048600  1
  Mn  Mn18  1  0.49830800  0.49934600  0.00006900  1
  Mn  Mn19  1  0.00169600  0.66731800  0.99993300  1
  Mn  Mn20  1  0.25078700  0.91696200  0.49964600  1
  Mn  Mn21  1  0.24920600  0.24969800  0.50035700  1
  Co  Co22  1  0.24999500  0.58333900  0.49999700  1
  Co  Co23  1  0.74999600  0.08333800  0.49999600  1
  O  O24  1  0.69029900  0.03612300  0.10903200  1
  O  O25  1  0.19029100  0.53612100  0.10903200  1
  O  O26  1  0.80970300  0.13055700  0.89097400  1
  O  O27  1  0.30970900  0.63055800  0.89097500  1
  O  O28  1  0.44282000  0.42681700  0.61563700  1
  O  O29  1  0.94275100  0.92680800  0.61563200  1
  O  O30  1  0.55723300  0.23985900  0.38436600  1
  O  O31  1  0.05716700  0.73985000  0.38436200  1
  O  O32  1  0.65589600  0.35849300  0.11003200  1
  O  O33  1  0.15588900  0.85852700  0.11001500  1
  O  O34  1  0.34410700  0.30814600  0.88998100  1
  O  O35  1  0.84409900  0.80817900  0.88996500  1
  O  O36  1  0.19775100  0.17466100  0.11276700  1
  O  O37  1  0.69774800  0.67465900  0.11276600  1
  O  O38  1  0.80226300  0.49200100  0.88723300  1
  O  O39  1  0.30226300  0.99199700  0.88723100  1
  O  O40  1  0.45039100  0.08961800  0.61650400  1
  O  O41  1  0.95037200  0.58961700  0.61644800  1
  O  O42  1  0.04962300  0.07703800  0.38350200  1
  O  O43  1  0.54964100  0.57703600  0.38355700  1
  O  O44  1  0.94173300  0.25381200  0.61855100  1
  O  O45  1  0.44173100  0.75381700  0.61855200  1
  O  O46  1  0.05826800  0.41285200  0.38145100  1
  O  O47  1  0.55826500  0.91285600  0.38145300  1
