# generated using pymatgen
data_Na5FeO4
_symmetry_space_group_name_H-M   'P 1'
_cell_length_a   6.02520600
_cell_length_b   10.48643800
_cell_length_c   18.15226400
_cell_angle_alpha   90.00000000
_cell_angle_beta   90.00000000
_cell_angle_gamma   90.00000000
_symmetry_Int_Tables_number   1
_chemical_formula_structural   Na5FeO4
_chemical_formula_sum   'Na40 Fe8 O32'
_cell_volume   1146.91357338
_cell_formula_units_Z   8
loop_
 _symmetry_equiv_pos_site_id
 _symmetry_equiv_pos_as_xyz
  1  'x, y, z'
loop_
 _atom_site_type_symbol
 _atom_site_label
 _atom_site_symmetry_multiplicity
 _atom_site_fract_x
 _atom_site_fract_y
 _atom_site_fract_z
 _atom_site_occupancy
  Na  Na0  1  0.10177100  0.42225900  0.75230600  1
  Na  Na1  1  0.42807000  0.29940200  0.64016200  1
  Na  Na2  1  0.57193000  0.20059800  0.14016200  1
  Na  Na3  1  0.07193000  0.79940200  0.35983800  1
  Na  Na4  1  0.07193000  0.29940200  0.14016200  1
  Na  Na5  1  0.57193000  0.70059800  0.35983800  1
  Na  Na6  1  0.42807000  0.79940200  0.85983800  1
  Na  Na7  1  0.92807000  0.20059800  0.64016200  1
  Na  Na8  1  0.89774600  0.82689200  0.17112000  1
  Na  Na9  1  0.39774600  0.17310800  0.32888000  1
  Na  Na10  1  0.60225400  0.32689200  0.82888000  1
  Na  Na11  1  0.10225400  0.67310800  0.67112000  1
  Na  Na12  1  0.10225400  0.17310800  0.82888000  1
  Na  Na13  1  0.60225400  0.82689200  0.67112000  1
  Na  Na14  1  0.39774600  0.67310800  0.17112000  1
  Na  Na15  1  0.89774600  0.32689200  0.32888000  1
  Na  Na16  1  0.91070300  0.16175400  0.00160800  1
  Na  Na17  1  0.41070300  0.83824600  0.49839200  1
  Na  Na18  1  0.58929700  0.66175400  0.99839200  1
  Na  Na19  1  0.08929700  0.33824600  0.50160800  1
  Na  Na20  1  0.08929700  0.83824600  0.99839200  1
  Na  Na21  1  0.58929700  0.16175400  0.50160800  1
  Na  Na22  1  0.41070300  0.33824600  0.00160800  1
  Na  Na23  1  0.91070300  0.66175400  0.49839200  1
  Na  Na24  1  0.92056600  0.93985000  0.56555300  1
  Na  Na25  1  0.39822900  0.92225900  0.24769400  1
  Na  Na26  1  0.60177100  0.57774100  0.74769400  1
  Na  Na27  1  0.92807000  0.70059800  0.85983800  1
  Na  Na28  1  0.10177100  0.92225900  0.74769400  1
  Na  Na29  1  0.60177100  0.07774100  0.75230600  1
  Na  Na30  1  0.39822900  0.42225900  0.25230600  1
  Na  Na31  1  0.89822900  0.57774100  0.24769400  1
  Na  Na32  1  0.92056600  0.43985000  0.93444700  1
  Na  Na33  1  0.42056600  0.56015000  0.56555300  1
  Na  Na34  1  0.57943400  0.93985000  0.06555300  1
  Na  Na35  1  0.07943400  0.06015000  0.43444700  1
  Na  Na36  1  0.07943400  0.56015000  0.06555300  1
  Na  Na37  1  0.57943400  0.43985000  0.43444700  1
  Na  Na38  1  0.42056600  0.06015000  0.93444700  1
  Na  Na39  1  0.89822900  0.07774100  0.25230600  1
  Fe  Fe40  1  0.82816200  0.45963000  0.62335600  1
  Fe  Fe41  1  0.32816200  0.54037000  0.87664400  1
  Fe  Fe42  1  0.67183800  0.95963000  0.37664400  1
  Fe  Fe43  1  0.17183800  0.04037000  0.12335600  1
  Fe  Fe44  1  0.17183800  0.54037000  0.37664400  1
  Fe  Fe45  1  0.67183800  0.45963000  0.12335600  1
  Fe  Fe46  1  0.32816200  0.04037000  0.62335600  1
  Fe  Fe47  1  0.82816200  0.95963000  0.87664400  1
  O  O48  1  0.85768400  0.04915800  0.12118900  1
  O  O49  1  0.35768400  0.95084200  0.37881100  1
  O  O50  1  0.64231600  0.54915800  0.87881100  1
  O  O51  1  0.14231600  0.45084200  0.62118900  1
  O  O52  1  0.14231600  0.95084200  0.87881100  1
  O  O53  1  0.64231600  0.04915800  0.62118900  1
  O  O54  1  0.35768400  0.45084200  0.12118900  1
  O  O55  1  0.85768400  0.54915800  0.37881100  1
  O  O56  1  0.80236800  0.36719200  0.04461500  1
  O  O57  1  0.30236800  0.63280800  0.45538500  1
  O  O58  1  0.69763200  0.86719200  0.95538500  1
  O  O59  1  0.19763200  0.13280800  0.54461500  1
  O  O60  1  0.19763200  0.63280800  0.95538500  1
  O  O61  1  0.69763200  0.36719200  0.54461500  1
  O  O62  1  0.30236800  0.13280800  0.04461500  1
  O  O63  1  0.80236800  0.86719200  0.45538500  1
  O  O64  1  0.73657100  0.37322300  0.71201000  1
  O  O65  1  0.23657100  0.62677700  0.78799000  1
  O  O66  1  0.76342900  0.87322300  0.28799000  1
  O  O67  1  0.26342900  0.12677700  0.21201000  1
  O  O68  1  0.26342900  0.62677700  0.28799000  1
  O  O69  1  0.76342900  0.37322300  0.21201000  1
  O  O70  1  0.23657100  0.12677700  0.71201000  1
  O  O71  1  0.73657100  0.87322300  0.78799000  1
  O  O72  1  0.73782400  0.13571400  0.87458100  1
  O  O73  1  0.23782400  0.86428600  0.62541900  1
  O  O74  1  0.76217600  0.63571400  0.12541900  1
  O  O75  1  0.26217600  0.36428600  0.37458100  1
  O  O76  1  0.26217600  0.86428600  0.12541900  1
  O  O77  1  0.76217600  0.13571400  0.37458100  1
  O  O78  1  0.23782400  0.36428600  0.87458100  1
  O  O79  1  0.73782400  0.63571400  0.62541900  1
