# generated using pymatgen
data_B13P2
_symmetry_space_group_name_H-M   'P 1'
_cell_length_a   8.40946129
_cell_length_b   8.40946129
_cell_length_c   8.40946076
_cell_angle_alpha   33.48914148
_cell_angle_beta   33.48914148
_cell_angle_gamma   33.48913731
_symmetry_Int_Tables_number   1
_chemical_formula_structural   B13P2
_chemical_formula_sum   'B13 P2'
_cell_volume   161.26087038
_cell_formula_units_Z   1
loop_
 _symmetry_equiv_pos_site_id
 _symmetry_equiv_pos_as_xyz
  1  'x, y, z'
loop_
 _atom_site_type_symbol
 _atom_site_label
 _atom_site_symmetry_multiplicity
 _atom_site_fract_x
 _atom_site_fract_y
 _atom_site_fract_z
 _atom_site_occupancy
  B  B0  1  0.50000000  0.50000000  0.50000000  1
  B  B1  1  0.81959000  0.43297800  0.43297800  1
  B  B2  1  0.43297800  0.43297800  0.81959000  1
  B  B3  1  0.43297800  0.81959000  0.43297800  1
  B  B4  1  0.56702200  0.18041000  0.56702200  1
  B  B5  1  0.18041000  0.56702200  0.56702200  1
  B  B6  1  0.56702200  0.56702200  0.18041000  1
  B  B7  1  0.90064600  0.28030100  0.28030100  1
  B  B8  1  0.28030100  0.28030100  0.90064600  1
  B  B9  1  0.28030100  0.90064600  0.28030100  1
  B  B10  1  0.71969900  0.09935400  0.71969900  1
  B  B11  1  0.09935400  0.71969900  0.71969900  1
  B  B12  1  0.71969900  0.71969900  0.09935400  1
  P  P13  1  0.27393400  0.27393400  0.27393400  1
  P  P14  1  0.72606600  0.72606600  0.72606600  1
