# generated using pymatgen
data_K3UF7
_symmetry_space_group_name_H-M   'P 1'
_cell_length_a   11.36985557
_cell_length_b   11.36985557
_cell_length_c   11.36985557
_cell_angle_alpha   131.24883067
_cell_angle_beta   131.24883067
_cell_angle_gamma   71.41803636
_symmetry_Int_Tables_number   1
_chemical_formula_structural   K3UF7
_chemical_formula_sum   'K12 U4 F28'
_cell_volume   813.16691950
_cell_formula_units_Z   4
loop_
 _symmetry_equiv_pos_site_id
 _symmetry_equiv_pos_as_xyz
  1  'x, y, z'
loop_
 _atom_site_type_symbol
 _atom_site_label
 _atom_site_symmetry_multiplicity
 _atom_site_fract_x
 _atom_site_fract_y
 _atom_site_fract_z
 _atom_site_occupancy
  K  K0  1  0.75000000  0.25000000  0.50000000  1
  K  K1  1  0.00000000  0.00000000  0.00000000  1
  K  K2  1  0.25000000  0.75000000  0.50000000  1
  K  K3  1  0.50000000  0.50000000  0.00000000  1
  K  K4  1  0.66721100  0.14779900  0.04340800  1
  K  K5  1  0.37380300  0.91721100  0.01941200  1
  K  K6  1  0.89779900  0.35439100  0.98058800  1
  K  K7  1  0.10439100  0.62380300  0.95659200  1
  K  K8  1  0.08278900  0.10220100  0.45659200  1
  K  K9  1  0.37619700  0.33278900  0.48058800  1
  K  K10  1  0.85220100  0.89560900  0.51941200  1
  K  K11  1  0.64560900  0.62619700  0.54340800  1
  U  U12  1  0.48157000  0.98157000  0.50000000  1
  U  U13  1  0.73157000  0.73157000  0.00000000  1
  U  U14  1  0.26843000  0.26843000  0.00000000  1
  U  U15  1  0.01843000  0.51843000  0.50000000  1
  F  F16  1  0.20224100  0.49185200  0.15451000  1
  F  F17  1  0.79773100  0.45224100  0.21038800  1
  F  F18  1  0.24185200  0.58734200  0.78961200  1
  F  F19  1  0.33734200  0.04773100  0.84549000  1
  F  F20  1  0.54775900  0.75814800  0.34549000  1
  F  F21  1  0.95226900  0.79775900  0.28961200  1
  F  F22  1  0.50814800  0.66265800  0.71038800  1
  F  F23  1  0.41265800  0.20226900  0.65451000  1
  F  F24  1  0.74431500  0.08124100  0.78778400  1
  F  F25  1  0.70653100  0.99431500  0.16307400  1
  F  F26  1  0.83124100  0.54345700  0.83692600  1
  F  F27  1  0.29345700  0.95653100  0.21221600  1
  F  F28  1  0.00568500  0.16875900  0.71221600  1
  F  F29  1  0.04346900  0.25568500  0.33692600  1
  F  F30  1  0.91875900  0.70654300  0.66307400  1
  F  F31  1  0.45654300  0.29346900  0.28778400  1
  F  F32  1  0.60521900  0.10521900  0.50000000  1
  F  F33  1  0.85521900  0.85521900  0.00000000  1
  F  F34  1  0.14478100  0.14478100  0.00000000  1
  F  F35  1  0.89478100  0.39478100  0.50000000  1
  F  F36  1  0.50865400  0.38284900  0.15700200  1
  F  F37  1  0.10165200  0.75865400  0.62580500  1
  F  F38  1  0.13284900  0.47584600  0.37419500  1
  F  F39  1  0.22584600  0.35165200  0.84299800  1
  F  F40  1  0.24134600  0.86715100  0.34299800  1
  F  F41  1  0.64834800  0.49134600  0.87419500  1
  F  F42  1  0.61715100  0.77415400  0.12580500  1
  F  F43  1  0.52415400  0.89834800  0.65700200  1
