# generated using pymatgen
data_TaS2
_symmetry_space_group_name_H-M   'P 1'
_cell_length_a   11.85191726
_cell_length_b   11.61378530
_cell_length_c   3.34256636
_cell_angle_alpha   85.87500972
_cell_angle_beta   77.78736791
_cell_angle_gamma   16.33762237
_symmetry_Int_Tables_number   1
_chemical_formula_structural   TaS2
_chemical_formula_sum   'Ta1 S2'
_cell_volume   111.19399460
_cell_formula_units_Z   1
loop_
 _symmetry_equiv_pos_site_id
 _symmetry_equiv_pos_as_xyz
  1  'x, y, z'
loop_
 _atom_site_type_symbol
 _atom_site_label
 _atom_site_symmetry_multiplicity
 _atom_site_fract_x
 _atom_site_fract_y
 _atom_site_fract_z
 _atom_site_occupancy
  Ta  Ta0  1  0.92445700  0.07554300  0.92445700  1
  S  S1  1  0.32578800  0.81024400  0.18975600  1
  S  S2  1  0.18975600  0.67421200  0.32578800  1
