# generated using pymatgen
data_PdF3
_symmetry_space_group_name_H-M   'P 1'
_cell_length_a   5.40914973
_cell_length_b   5.40914973
_cell_length_c   7.27089000
_cell_angle_alpha   90.00000000
_cell_angle_beta   90.00000000
_cell_angle_gamma   119.99999669
_symmetry_Int_Tables_number   1
_chemical_formula_structural   PdF3
_chemical_formula_sum   'Pd3 F9'
_cell_volume   184.23673429
_cell_formula_units_Z   3
loop_
 _symmetry_equiv_pos_site_id
 _symmetry_equiv_pos_as_xyz
  1  'x, y, z'
loop_
 _atom_site_type_symbol
 _atom_site_label
 _atom_site_symmetry_multiplicity
 _atom_site_fract_x
 _atom_site_fract_y
 _atom_site_fract_z
 _atom_site_occupancy
  Pd  Pd0  1  0.66666700  0.33333300  0.34069900  1
  Pd  Pd1  1  0.33333300  0.66666700  0.65930100  1
  Pd  Pd2  1  0.00000000  0.00000000  0.00000000  1
  F  F3  1  0.66328100  0.91552000  0.82033400  1
  F  F4  1  0.08448000  0.74776100  0.82033400  1
  F  F5  1  0.25223900  0.33671900  0.82033400  1
  F  F6  1  0.61368600  0.61368600  0.50000000  1
  F  F7  1  0.38631400  0.00000000  0.50000000  1
  F  F8  1  0.00000000  0.38631400  0.50000000  1
  F  F9  1  0.91552000  0.66328100  0.17966600  1
  F  F10  1  0.33671900  0.25223900  0.17966600  1
  F  F11  1  0.74776100  0.08448000  0.17966600  1
