# generated using pymatgen
data_La2Fe14C
_symmetry_space_group_name_H-M   'P 1'
_cell_length_a   8.79276800
_cell_length_b   8.79276800
_cell_length_c   12.02189300
_cell_angle_alpha   90.00000000
_cell_angle_beta   90.00000000
_cell_angle_gamma   90.00000000
_symmetry_Int_Tables_number   1
_chemical_formula_structural   La2Fe14C
_chemical_formula_sum   'La8 Fe56 C4'
_cell_volume   929.44583768
_cell_formula_units_Z   4
loop_
 _symmetry_equiv_pos_site_id
 _symmetry_equiv_pos_as_xyz
  1  'x, y, z'
loop_
 _atom_site_type_symbol
 _atom_site_label
 _atom_site_symmetry_multiplicity
 _atom_site_fract_x
 _atom_site_fract_y
 _atom_site_fract_z
 _atom_site_occupancy
  La  La0  1  0.76066500  0.23933500  0.00000000  1
  La  La1  1  0.26066500  0.26066500  0.50000000  1
  La  La2  1  0.73933500  0.73933500  0.50000000  1
  La  La3  1  0.23933500  0.76066500  0.00000000  1
  La  La4  1  0.64195900  0.64195900  0.00000000  1
  La  La5  1  0.85804100  0.14195900  0.50000000  1
  La  La6  1  0.14195900  0.85804100  0.50000000  1
  La  La7  1  0.35804100  0.35804100  0.00000000  1
  Fe  Fe8  1  0.09825900  0.09825900  0.71220200  1
  Fe  Fe9  1  0.90174100  0.90174100  0.71220200  1
  Fe  Fe10  1  0.09825900  0.09825900  0.28779800  1
  Fe  Fe11  1  0.59825900  0.40174100  0.21220200  1
  Fe  Fe12  1  0.40174100  0.59825900  0.21220200  1
  Fe  Fe13  1  0.40174100  0.59825900  0.78779800  1
  Fe  Fe14  1  0.59825900  0.40174100  0.78779800  1
  Fe  Fe15  1  0.90174100  0.90174100  0.28779800  1
  Fe  Fe16  1  0.00000000  0.00000000  0.89435000  1
  Fe  Fe17  1  0.50000000  0.50000000  0.39435000  1
  Fe  Fe18  1  0.50000000  0.50000000  0.60565000  1
  Fe  Fe19  1  0.00000000  0.00000000  0.10565000  1
  Fe  Fe20  1  0.35973700  0.03627400  0.32193400  1
  Fe  Fe21  1  0.64026300  0.96372600  0.32193400  1
  Fe  Fe22  1  0.03627400  0.35973700  0.67806600  1
  Fe  Fe23  1  0.53627400  0.14026300  0.82193400  1
  Fe  Fe24  1  0.46372600  0.85973700  0.82193400  1
  Fe  Fe25  1  0.14026300  0.53627400  0.17806600  1
  Fe  Fe26  1  0.85973700  0.46372600  0.17806600  1
  Fe  Fe27  1  0.96372600  0.64026300  0.67806600  1
  Fe  Fe28  1  0.64026300  0.96372600  0.67806600  1
  Fe  Fe29  1  0.35973700  0.03627400  0.67806600  1
  Fe  Fe30  1  0.96372600  0.64026300  0.32193400  1
  Fe  Fe31  1  0.46372600  0.85973700  0.17806600  1
  Fe  Fe32  1  0.53627400  0.14026300  0.17806600  1
  Fe  Fe33  1  0.85973700  0.46372600  0.82193400  1
  Fe  Fe34  1  0.14026300  0.53627400  0.82193400  1
  Fe  Fe35  1  0.03627400  0.35973700  0.32193400  1
  Fe  Fe36  1  0.68283800  0.68283800  0.74511400  1
  Fe  Fe37  1  0.31716200  0.31716200  0.74511400  1
  Fe  Fe38  1  0.68283800  0.68283800  0.25488600  1
  Fe  Fe39  1  0.18283800  0.81716200  0.24511400  1
  Fe  Fe40  1  0.81716200  0.18283800  0.24511400  1
  Fe  Fe41  1  0.81716200  0.18283800  0.75488600  1
  Fe  Fe42  1  0.18283800  0.81716200  0.75488600  1
  Fe  Fe43  1  0.31716200  0.31716200  0.25488600  1
  Fe  Fe44  1  0.06567200  0.27529200  0.12021000  1
  Fe  Fe45  1  0.93432800  0.72470800  0.12021000  1
  Fe  Fe46  1  0.27529200  0.06567200  0.87979000  1
  Fe  Fe47  1  0.77529200  0.43432800  0.62021000  1
  Fe  Fe48  1  0.22470800  0.56567200  0.62021000  1
  Fe  Fe49  1  0.43432800  0.77529200  0.37979000  1
  Fe  Fe50  1  0.56567200  0.22470800  0.37979000  1
  Fe  Fe51  1  0.72470800  0.93432800  0.87979000  1
  Fe  Fe52  1  0.93432800  0.72470800  0.87979000  1
  Fe  Fe53  1  0.06567200  0.27529200  0.87979000  1
  Fe  Fe54  1  0.72470800  0.93432800  0.12021000  1
  Fe  Fe55  1  0.22470800  0.56567200  0.37979000  1
  Fe  Fe56  1  0.77529200  0.43432800  0.37979000  1
  Fe  Fe57  1  0.56567200  0.22470800  0.62021000  1
  Fe  Fe58  1  0.43432800  0.77529200  0.62021000  1
  Fe  Fe59  1  0.27529200  0.06567200  0.12021000  1
  Fe  Fe60  1  0.50000000  0.00000000  0.00000000  1
  Fe  Fe61  1  0.50000000  0.00000000  0.50000000  1
  Fe  Fe62  1  0.00000000  0.50000000  0.50000000  1
  Fe  Fe63  1  0.00000000  0.50000000  0.00000000  1
  C  C64  1  0.87533500  0.87533500  0.00000000  1
  C  C65  1  0.62466500  0.37533500  0.50000000  1
  C  C66  1  0.37533500  0.62466500  0.50000000  1
  C  C67  1  0.12466500  0.12466500  0.00000000  1
