# generated using pymatgen
data_Pr3S4
_symmetry_space_group_name_H-M   'P 1'
_cell_length_a   7.49054297
_cell_length_b   7.49054297
_cell_length_c   7.49054297
_cell_angle_alpha   109.47122063
_cell_angle_beta   109.47122063
_cell_angle_gamma   109.47122063
_symmetry_Int_Tables_number   1
_chemical_formula_structural   Pr3S4
_chemical_formula_sum   'Pr6 S8'
_cell_volume   323.53257058
_cell_formula_units_Z   2
loop_
 _symmetry_equiv_pos_site_id
 _symmetry_equiv_pos_as_xyz
  1  'x, y, z'
loop_
 _atom_site_type_symbol
 _atom_site_label
 _atom_site_symmetry_multiplicity
 _atom_site_fract_x
 _atom_site_fract_y
 _atom_site_fract_z
 _atom_site_occupancy
  Pr  Pr0  1  0.75000000  0.87500000  0.12500000  1
  Pr  Pr1  1  0.37500000  0.25000000  0.62500000  1
  Pr  Pr2  1  0.25000000  0.62500000  0.37500000  1
  Pr  Pr3  1  0.87500000  0.12500000  0.75000000  1
  Pr  Pr4  1  0.62500000  0.37500000  0.25000000  1
  Pr  Pr5  1  0.12500000  0.75000000  0.87500000  1
  S  S6  1  0.65041100  0.65041100  0.65041100  1
  S  S7  1  0.84958900  0.50000000  0.00000000  1
  S  S8  1  0.50000000  0.00000000  0.84958900  1
  S  S9  1  0.34958900  0.50000000  0.00000000  1
  S  S10  1  0.00000000  0.84958900  0.50000000  1
  S  S11  1  0.00000000  0.34958900  0.50000000  1
  S  S12  1  0.50000000  0.00000000  0.34958900  1
  S  S13  1  0.15041100  0.15041100  0.15041100  1
