# generated using pymatgen
data_Rb2Ni2(MoO4)3
_symmetry_space_group_name_H-M   'P 1'
_cell_length_a   9.39466200
_cell_length_b   7.09879200
_cell_length_c   20.37510021
_cell_angle_alpha   71.31981185
_cell_angle_beta   90.00000000
_cell_angle_gamma   90.00000000
_symmetry_Int_Tables_number   1
_chemical_formula_structural   Rb2Ni2(MoO4)3
_chemical_formula_sum   'Rb8 Ni8 Mo12 O48'
_cell_volume   1287.24901206
_cell_formula_units_Z   4
loop_
 _symmetry_equiv_pos_site_id
 _symmetry_equiv_pos_as_xyz
  1  'x, y, z'
loop_
 _atom_site_type_symbol
 _atom_site_label
 _atom_site_symmetry_multiplicity
 _atom_site_fract_x
 _atom_site_fract_y
 _atom_site_fract_z
 _atom_site_occupancy
  Rb  Rb0  1  0.47851700  0.51743500  0.76357900  1
  Rb  Rb1  1  0.46148300  0.19036700  0.09174900  1
  Rb  Rb2  1  0.03851700  0.19036700  0.59174900  1
  Rb  Rb3  1  0.53851700  0.80963300  0.90825100  1
  Rb  Rb4  1  0.02148300  0.51743500  0.26357900  1
  Rb  Rb5  1  0.52148300  0.48256500  0.23642100  1
  Rb  Rb6  1  0.96148300  0.80963300  0.40825100  1
  Rb  Rb7  1  0.97851700  0.48256500  0.73642100  1
  Ni  Ni8  1  0.35956700  0.73073500  0.36354400  1
  Ni  Ni9  1  0.85956700  0.26926500  0.13645600  1
  Ni  Ni10  1  0.14043300  0.73073500  0.86354400  1
  Ni  Ni11  1  0.64043300  0.26926500  0.63645600  1
  Ni  Ni12  1  0.42496300  0.07487500  0.55846100  1
  Ni  Ni13  1  0.92496300  0.92512500  0.94153900  1
  Ni  Ni14  1  0.57503700  0.92512500  0.44153900  1
  Ni  Ni15  1  0.07503700  0.07487500  0.05846100  1
  Mo  Mo16  1  0.15693900  0.58991100  0.03741200  1
  Mo  Mo17  1  0.34306100  0.58991100  0.53741200  1
  Mo  Mo18  1  0.84306100  0.41008900  0.96258800  1
  Mo  Mo19  1  0.65693900  0.41008900  0.46258800  1
  Mo  Mo20  1  0.72010000  0.80123400  0.59811300  1
  Mo  Mo21  1  0.22010000  0.19876600  0.90188700  1
  Mo  Mo22  1  0.27990000  0.19876600  0.40188700  1
  Mo  Mo23  1  0.77990000  0.80123400  0.09811300  1
  Mo  Mo24  1  0.83272100  0.94984400  0.77461500  1
  Mo  Mo25  1  0.33272100  0.05015600  0.72538500  1
  Mo  Mo26  1  0.16727900  0.05015600  0.22538500  1
  Mo  Mo27  1  0.66727900  0.94984400  0.27461500  1
  O  O28  1  0.74862500  0.37004000  0.04276800  1
  O  O29  1  0.24862500  0.62996000  0.45723200  1
  O  O30  1  0.25137500  0.62996000  0.95723200  1
  O  O31  1  0.75137500  0.37004000  0.54276800  1
  O  O32  1  0.95387200  0.63962000  0.93434900  1
  O  O33  1  0.45387200  0.36038000  0.56565100  1
  O  O34  1  0.04612800  0.36038000  0.06565100  1
  O  O35  1  0.54612800  0.63962000  0.43434900  1
  O  O36  1  0.94737300  0.18928300  0.96392500  1
  O  O37  1  0.44737300  0.81071700  0.53607500  1
  O  O38  1  0.05262700  0.81071700  0.03607500  1
  O  O39  1  0.55262700  0.18928300  0.46392500  1
  O  O40  1  0.70827700  0.44023100  0.90164900  1
  O  O41  1  0.20827700  0.55976900  0.59835100  1
  O  O42  1  0.29172300  0.55976900  0.09835100  1
  O  O43  1  0.79172300  0.44023100  0.40164900  1
  O  O44  1  0.61095500  0.99848200  0.61402900  1
  O  O45  1  0.11095500  0.00151800  0.88597100  1
  O  O46  1  0.65731400  0.55315400  0.64422800  1
  O  O47  1  0.38904500  0.00151800  0.38597100  1
  O  O48  1  0.74447300  0.84281500  0.50649200  1
  O  O49  1  0.24447300  0.15718500  0.99350800  1
  O  O50  1  0.25552700  0.15718500  0.49350800  1
  O  O51  1  0.75552700  0.84281500  0.00649200  1
  O  O52  1  0.89157200  0.82222200  0.62933500  1
  O  O53  1  0.39157200  0.17777800  0.87066500  1
  O  O54  1  0.10842800  0.17777800  0.37066500  1
  O  O55  1  0.60842800  0.82222200  0.12933500  1
  O  O56  1  0.49504400  0.83164900  0.28011300  1
  O  O57  1  0.99504400  0.16835100  0.21988700  1
  O  O58  1  0.50495600  0.16835100  0.71988700  1
  O  O59  1  0.00495600  0.83164900  0.78011300  1
  O  O60  1  0.79949700  0.77617300  0.27255000  1
  O  O61  1  0.29949700  0.22382700  0.22745000  1
  O  O62  1  0.20050300  0.22382700  0.72745000  1
  O  O63  1  0.70050300  0.77617300  0.77255000  1
  O  O64  1  0.69300600  0.01909700  0.35199900  1
  O  O65  1  0.19300600  0.98090300  0.14800100  1
  O  O66  1  0.30699400  0.98090300  0.64800100  1
  O  O67  1  0.80699400  0.01909700  0.85199900  1
  O  O68  1  0.68135000  0.16935600  0.19751200  1
  O  O69  1  0.18135000  0.83064400  0.30248800  1
  O  O70  1  0.31865000  0.83064400  0.80248800  1
  O  O71  1  0.81865000  0.16935600  0.69751200  1
  O  O72  1  0.84268600  0.55315400  0.14422800  1
  O  O73  1  0.34268600  0.44684600  0.35577200  1
  O  O74  1  0.15731400  0.44684600  0.85577200  1
  O  O75  1  0.88904500  0.99848200  0.11402900  1
