# generated using pymatgen
data_Al7Te10
_symmetry_space_group_name_H-M   'P 1'
_cell_length_a   10.49046583
_cell_length_b   10.49046583
_cell_length_c   10.49046599
_cell_angle_alpha   89.85394611
_cell_angle_beta   89.85394611
_cell_angle_gamma   89.85394665
_symmetry_Int_Tables_number   1
_chemical_formula_structural   Al7Te10
_chemical_formula_sum   'Al14 Te20'
_cell_volume   1154.46321991
_cell_formula_units_Z   2
loop_
 _symmetry_equiv_pos_site_id
 _symmetry_equiv_pos_as_xyz
  1  'x, y, z'
loop_
 _atom_site_type_symbol
 _atom_site_label
 _atom_site_symmetry_multiplicity
 _atom_site_fract_x
 _atom_site_fract_y
 _atom_site_fract_z
 _atom_site_occupancy
  Al  Al0  1  0.84589100  0.88968600  0.57908200  1
  Al  Al1  1  0.57908200  0.84589100  0.88968600  1
  Al  Al2  1  0.88968600  0.57908200  0.84589100  1
  Al  Al3  1  0.15410900  0.42091800  0.11031400  1
  Al  Al4  1  0.11031400  0.15410900  0.42091800  1
  Al  Al5  1  0.42091800  0.11031400  0.15410900  1
  Al  Al6  1  0.74184400  0.16324200  0.34681600  1
  Al  Al7  1  0.34681600  0.74184400  0.16324200  1
  Al  Al8  1  0.16324200  0.34681600  0.74184400  1
  Al  Al9  1  0.25815600  0.65318400  0.83675800  1
  Al  Al10  1  0.83675800  0.25815600  0.65318400  1
  Al  Al11  1  0.65318400  0.83675800  0.25815600  1
  Al  Al12  1  0.57184200  0.57184200  0.57184200  1
  Al  Al13  1  0.42815800  0.42815800  0.42815800  1
  Te  Te14  1  0.42206400  0.92295400  0.32882500  1
  Te  Te15  1  0.92295400  0.32882500  0.42206400  1
  Te  Te16  1  0.32882500  0.42206400  0.92295400  1
  Te  Te17  1  0.07704600  0.57793600  0.67117500  1
  Te  Te18  1  0.57793600  0.67117500  0.07704600  1
  Te  Te19  1  0.67117500  0.07704600  0.57793600  1
  Te  Te20  1  0.75818800  0.69220400  0.44030200  1
  Te  Te21  1  0.44030200  0.75818800  0.69220400  1
  Te  Te22  1  0.69220400  0.44030200  0.75818800  1
  Te  Te23  1  0.24181200  0.55969800  0.30779600  1
  Te  Te24  1  0.30779600  0.24181200  0.55969800  1
  Te  Te25  1  0.55969800  0.30779600  0.24181200  1
  Te  Te26  1  0.50000000  0.07935000  0.92065000  1
  Te  Te27  1  0.92065000  0.50000000  0.07935000  1
  Te  Te28  1  0.07935000  0.92065000  0.50000000  1
  Te  Te29  1  0.00000000  0.18073200  0.81926800  1
  Te  Te30  1  0.81926800  0.00000000  0.18073200  1
  Te  Te31  1  0.18073200  0.81926800  0.00000000  1
  Te  Te32  1  0.83041300  0.83041300  0.83041300  1
  Te  Te33  1  0.16958700  0.16958700  0.16958700  1
