# generated using pymatgen
data_Li7Mn4CoO12
_symmetry_space_group_name_H-M   'P 1'
_cell_length_a   5.91747176
_cell_length_b   9.91604382
_cell_length_c   7.80055076
_cell_angle_alpha   90.30516852
_cell_angle_beta   76.25858159
_cell_angle_gamma   78.93558933
_symmetry_Int_Tables_number   1
_chemical_formula_structural   Li7Mn4CoO12
_chemical_formula_sum   'Li14 Mn8 Co2 O24'
_cell_volume   435.73171038
_cell_formula_units_Z   2
loop_
 _symmetry_equiv_pos_site_id
 _symmetry_equiv_pos_as_xyz
  1  'x, y, z'
loop_
 _atom_site_type_symbol
 _atom_site_label
 _atom_site_symmetry_multiplicity
 _atom_site_fract_x
 _atom_site_fract_y
 _atom_site_fract_z
 _atom_site_occupancy
  Li  Li0  1  0.16669700  0.00006600  0.33336900  1
  Li  Li1  1  0.66663700  0.99993400  0.33329800  1
  Li  Li2  1  0.87851900  0.24074300  0.26485000  1
  Li  Li3  1  0.37868800  0.24089500  0.26455900  1
  Li  Li4  1  0.45464600  0.75910500  0.40210900  1
  Li  Li5  1  0.95481300  0.75925600  0.40181900  1
  Li  Li6  1  0.04117900  0.24324100  0.57458600  1
  Li  Li7  1  0.54021300  0.24300700  0.57419000  1
  Li  Li8  1  0.79215500  0.75675900  0.09208000  1
  Li  Li9  1  0.29312100  0.75699200  0.09247700  1
  Li  Li10  1  0.62861400  0.74320000  0.75065000  1
  Li  Li11  1  0.12927600  0.74337100  0.75047000  1
  Li  Li12  1  0.70405800  0.25662800  0.91619600  1
  Li  Li13  1  0.20471900  0.25680000  0.91601500  1
  Mn  Mn14  1  0.99389800  0.99659200  0.00895300  1
  Mn  Mn15  1  0.83944000  0.00341100  0.65771100  1
  Mn  Mn16  1  0.58399900  0.49934100  0.16416700  1
  Mn  Mn17  1  0.24933600  0.50066000  0.50250400  1
  Mn  Mn18  1  0.49386700  0.99671500  0.00908700  1
  Mn  Mn19  1  0.33946400  0.00328300  0.65757600  1
  Mn  Mn20  1  0.08465100  0.49915200  0.16456100  1
  Mn  Mn21  1  0.74868200  0.50084500  0.50210400  1
  Co  Co22  1  0.91666600  0.50000000  0.83333300  1
  Co  Co23  1  0.41666600  0.50000000  0.83333300  1
  O  O24  1  0.17942100  0.10912700  0.10225600  1
  O  O25  1  0.67957700  0.10916500  0.10229300  1
  O  O26  1  0.65391400  0.89087200  0.56441200  1
  O  O27  1  0.15375400  0.89083500  0.56437500  1
  O  O28  1  0.78982100  0.61946700  0.30002300  1
  O  O29  1  0.28906500  0.61949400  0.30047000  1
  O  O30  1  0.04351100  0.38053200  0.36664500  1
  O  O31  1  0.54426800  0.38050600  0.36619600  1
  O  O32  1  0.85587900  0.11790600  0.47615500  1
  O  O33  1  0.35598300  0.11762500  0.47579400  1
  O  O34  1  0.47735100  0.88237500  0.19087300  1
  O  O35  1  0.97745400  0.88209400  0.19051300  1
  O  O36  1  0.45566800  0.61808600  0.63585100  1
  O  O37  1  0.95540200  0.61755600  0.63691700  1
  O  O38  1  0.87793000  0.38244300  0.02975100  1
  O  O39  1  0.37766400  0.38191400  0.03081400  1
  O  O40  1  0.02077200  0.10521300  0.78401700  1
  O  O41  1  0.52073000  0.10522400  0.78403600  1
  O  O42  1  0.31260400  0.89477600  0.88262900  1
  O  O43  1  0.81256000  0.89478700  0.88265100  1
  O  O44  1  0.62232300  0.61390500  0.96109000  1
  O  O45  1  0.12337500  0.61309900  0.95988700  1
  O  O46  1  0.70995900  0.38690100  0.70678000  1
  O  O47  1  0.21101400  0.38609600  0.70557600  1
