# generated using pymatgen
data_SnMo5O8
_symmetry_space_group_name_H-M   'P 1'
_cell_length_a   8.39900343
_cell_length_b   9.96893200
_cell_length_c   10.69405134
_cell_angle_alpha   90.00000000
_cell_angle_beta   110.41294988
_cell_angle_gamma   90.00000000
_symmetry_Int_Tables_number   1
_chemical_formula_structural   SnMo5O8
_chemical_formula_sum   'Sn4 Mo20 O32'
_cell_volume   839.17475612
_cell_formula_units_Z   4
loop_
 _symmetry_equiv_pos_site_id
 _symmetry_equiv_pos_as_xyz
  1  'x, y, z'
loop_
 _atom_site_type_symbol
 _atom_site_label
 _atom_site_symmetry_multiplicity
 _atom_site_fract_x
 _atom_site_fract_y
 _atom_site_fract_z
 _atom_site_occupancy
  Sn  Sn0  1  0.31106900  0.94368700  0.02183000  1
  Sn  Sn1  1  0.68893100  0.44368700  0.47816900  1
  Sn  Sn2  1  0.68893100  0.05631300  0.97817000  1
  Sn  Sn3  1  0.31106900  0.55631400  0.52183100  1
  Mo  Mo4  1  0.00853500  0.63599600  0.09041500  1
  Mo  Mo5  1  0.99146500  0.13599600  0.40958500  1
  Mo  Mo6  1  0.99146500  0.36400400  0.90958500  1
  Mo  Mo7  1  0.00853500  0.86400400  0.59041500  1
  Mo  Mo8  1  0.79296700  0.64150400  0.76992800  1
  Mo  Mo9  1  0.20703300  0.14150400  0.73007200  1
  Mo  Mo10  1  0.20703300  0.35849600  0.23007100  1
  Mo  Mo11  1  0.79296700  0.85849600  0.26992800  1
  Mo  Mo12  1  0.19025200  0.62398700  0.85757900  1
  Mo  Mo13  1  0.80974900  0.12398800  0.64242100  1
  Mo  Mo14  1  0.80974800  0.37601300  0.14242100  1
  Mo  Mo15  1  0.19025100  0.87601300  0.35757900  1
  Mo  Mo16  1  0.60510500  0.86409700  0.48097900  1
  Mo  Mo17  1  0.58366100  0.12858400  0.30088900  1
  Mo  Mo18  1  0.58366100  0.37141600  0.80089000  1
  Mo  Mo19  1  0.41633900  0.87141600  0.69911100  1
  Mo  Mo20  1  0.60510600  0.63590300  0.98097900  1
  Mo  Mo21  1  0.39489500  0.13590400  0.51902100  1
  Mo  Mo22  1  0.39489400  0.36409600  0.01902100  1
  Mo  Mo23  1  0.41633900  0.62858400  0.19911000  1
  O  O24  1  0.40883000  0.49828900  0.86192700  1
  O  O25  1  0.59116900  0.99828900  0.63807300  1
  O  O26  1  0.59117000  0.50171100  0.13807300  1
  O  O27  1  0.40883100  0.00171100  0.36192700  1
  O  O28  1  0.61078700  0.75643700  0.31117900  1
  O  O29  1  0.38921300  0.25643600  0.18882000  1
  O  O30  1  0.38921300  0.24356300  0.68882100  1
  O  O31  1  0.61078700  0.74356300  0.81118000  1
  O  O32  1  0.21388500  0.75026900  0.70805400  1
  O  O33  1  0.78611400  0.25026900  0.79194600  1
  O  O34  1  0.78611500  0.24973200  0.29194600  1
  O  O35  1  0.21388600  0.74973100  0.20805400  1
  O  O36  1  0.80750800  0.75038400  0.60856800  1
  O  O37  1  0.19249300  0.25038500  0.89143200  1
  O  O38  1  0.19249200  0.24961600  0.39143100  1
  O  O39  1  0.80750700  0.74961500  0.10856800  1
  O  O40  1  0.39478400  0.76617000  0.51210200  1
  O  O41  1  0.60521700  0.26616900  0.98789800  1
  O  O42  1  0.60521700  0.23383000  0.48789700  1
  O  O43  1  0.39478300  0.73383000  0.01210200  1
  O  O44  1  0.96904800  0.50488800  0.75288200  1
  O  O45  1  0.03095300  0.00488700  0.74711900  1
  O  O46  1  0.03095200  0.49511200  0.24711800  1
  O  O47  1  0.96904700  0.99511300  0.25288100  1
  O  O48  1  0.40346200  0.00590400  0.85652600  1
  O  O49  1  0.59653800  0.50590400  0.64347400  1
  O  O50  1  0.59653800  0.99409600  0.14347400  1
  O  O51  1  0.40346200  0.49409600  0.35652500  1
  O  O52  1  0.99583100  0.77145800  0.40554300  1
  O  O53  1  0.00416900  0.22854200  0.59445700  1
  O  O54  1  0.00417000  0.27145700  0.09445800  1
  O  O55  1  0.99583000  0.72854200  0.90554200  1
