# generated using pymatgen
data_Tm2S3
_symmetry_space_group_name_H-M   'P 1'
_cell_length_a   7.26430774
_cell_length_b   7.26430774
_cell_length_c   7.26430725
_cell_angle_alpha   55.81966426
_cell_angle_beta   55.81966426
_cell_angle_gamma   55.81966775
_symmetry_Int_Tables_number   1
_chemical_formula_structural   Tm2S3
_chemical_formula_sum   'Tm4 S6'
_cell_volume   244.78895731
_cell_formula_units_Z   2
loop_
 _symmetry_equiv_pos_site_id
 _symmetry_equiv_pos_as_xyz
  1  'x, y, z'
loop_
 _atom_site_type_symbol
 _atom_site_label
 _atom_site_symmetry_multiplicity
 _atom_site_fract_x
 _atom_site_fract_y
 _atom_site_fract_z
 _atom_site_occupancy
  Tm  Tm0  1  0.34947700  0.34947700  0.34947700  1
  Tm  Tm1  1  0.15052300  0.15052300  0.15052300  1
  Tm  Tm2  1  0.65052300  0.65052300  0.65052300  1
  Tm  Tm3  1  0.84947700  0.84947700  0.84947700  1
  S  S4  1  0.25000000  0.55244100  0.94755900  1
  S  S5  1  0.94755900  0.25000000  0.55244100  1
  S  S6  1  0.55244100  0.94755900  0.25000000  1
  S  S7  1  0.75000000  0.44755900  0.05244100  1
  S  S8  1  0.44755900  0.05244100  0.75000000  1
  S  S9  1  0.05244100  0.75000000  0.44755900  1
