# generated using pymatgen
data_Cu4O3
_symmetry_space_group_name_H-M   'P 1'
_cell_length_a   6.45384494
_cell_length_b   6.45384494
_cell_length_c   6.45384494
_cell_angle_alpha   125.50487814
_cell_angle_beta   125.50487814
_cell_angle_gamma   80.70344213
_symmetry_Int_Tables_number   1
_chemical_formula_structural   Cu4O3
_chemical_formula_sum   'Cu8 O6'
_cell_volume   171.76651949
_cell_formula_units_Z   2
loop_
 _symmetry_equiv_pos_site_id
 _symmetry_equiv_pos_as_xyz
  1  'x, y, z'
loop_
 _atom_site_type_symbol
 _atom_site_label
 _atom_site_symmetry_multiplicity
 _atom_site_fract_x
 _atom_site_fract_y
 _atom_site_fract_z
 _atom_site_occupancy
  Cu  Cu0  1  0.37500000  0.62500000  0.25000000  1
  Cu  Cu1  1  0.87500000  0.62500000  0.25000000  1
  Cu  Cu2  1  0.37500000  0.12500000  0.75000000  1
  Cu  Cu3  1  0.37500000  0.62500000  0.75000000  1
  Cu  Cu4  1  0.37500000  0.12500000  0.25000000  1
  Cu  Cu5  1  0.87500000  0.12500000  0.25000000  1
  Cu  Cu6  1  0.87500000  0.62500000  0.75000000  1
  Cu  Cu7  1  0.87500000  0.12500000  0.75000000  1
  O  O8  1  0.25000000  0.75000000  0.50000000  1
  O  O9  1  0.50000000  0.50000000  0.00000000  1
  O  O10  1  0.76295300  0.76295300  0.00000000  1
  O  O11  1  0.51295300  0.01295300  0.50000000  1
  O  O12  1  0.98704700  0.48704700  0.50000000  1
  O  O13  1  0.23704700  0.23704700  0.00000000  1
