# generated using pymatgen
data_Ho4Mo4O11
_symmetry_space_group_name_H-M   'P 1'
_cell_length_a   5.71657300
_cell_length_b   10.77527900
_cell_length_c   15.98776000
_cell_angle_alpha   90.00000000
_cell_angle_beta   90.00000000
_cell_angle_gamma   90.00000000
_symmetry_Int_Tables_number   1
_chemical_formula_structural   Ho4Mo4O11
_chemical_formula_sum   'Ho16 Mo16 O44'
_cell_volume   984.80874851
_cell_formula_units_Z   4
loop_
 _symmetry_equiv_pos_site_id
 _symmetry_equiv_pos_as_xyz
  1  'x, y, z'
loop_
 _atom_site_type_symbol
 _atom_site_label
 _atom_site_symmetry_multiplicity
 _atom_site_fract_x
 _atom_site_fract_y
 _atom_site_fract_z
 _atom_site_occupancy
  Ho  Ho0  1  0.00000000  0.61551300  0.57708500  1
  Ho  Ho1  1  0.00000000  0.38448700  0.42291500  1
  Ho  Ho2  1  0.00000000  0.11551300  0.92291500  1
  Ho  Ho3  1  0.00000000  0.88448700  0.07708500  1
  Ho  Ho4  1  0.00000000  0.40325100  0.73651900  1
  Ho  Ho5  1  0.00000000  0.59674900  0.26348100  1
  Ho  Ho6  1  0.00000000  0.90325100  0.76348100  1
  Ho  Ho7  1  0.00000000  0.09674900  0.23651900  1
  Ho  Ho8  1  0.50000000  0.42344200  0.59881200  1
  Ho  Ho9  1  0.50000000  0.57655800  0.40118800  1
  Ho  Ho10  1  0.50000000  0.92344200  0.90118800  1
  Ho  Ho11  1  0.50000000  0.07655800  0.09881200  1
  Ho  Ho12  1  0.50000000  0.18448600  0.77707400  1
  Ho  Ho13  1  0.50000000  0.81551400  0.22292600  1
  Ho  Ho14  1  0.50000000  0.68448600  0.72292600  1
  Ho  Ho15  1  0.50000000  0.31551400  0.27707400  1
  Mo  Mo16  1  0.00000000  0.91656900  0.56042900  1
  Mo  Mo17  1  0.00000000  0.08343100  0.43957100  1
  Mo  Mo18  1  0.00000000  0.41656900  0.93957100  1
  Mo  Mo19  1  0.00000000  0.58343100  0.06042900  1
  Mo  Mo20  1  0.50000000  0.90393200  0.57110300  1
  Mo  Mo21  1  0.50000000  0.09606800  0.42889700  1
  Mo  Mo22  1  0.50000000  0.40393200  0.92889700  1
  Mo  Mo23  1  0.50000000  0.59606800  0.07110300  1
  Mo  Mo24  1  0.27523300  0.86417000  0.41404100  1
  Mo  Mo25  1  0.27523300  0.13583000  0.58595900  1
  Mo  Mo26  1  0.72476700  0.36417000  0.08595900  1
  Mo  Mo27  1  0.72476700  0.63583000  0.91404100  1
  Mo  Mo28  1  0.72476700  0.13583000  0.58595900  1
  Mo  Mo29  1  0.72476700  0.86417000  0.41404100  1
  Mo  Mo30  1  0.27523300  0.63583000  0.91404100  1
  Mo  Mo31  1  0.27523300  0.36417000  0.08595900  1
  O  O32  1  0.24559800  0.00000000  0.00000000  1
  O  O33  1  0.75440200  0.50000000  0.50000000  1
  O  O34  1  0.75440200  0.00000000  0.00000000  1
  O  O35  1  0.24559800  0.50000000  0.50000000  1
  O  O36  1  0.00000000  0.23179000  0.52302400  1
  O  O37  1  0.00000000  0.76821000  0.47697600  1
  O  O38  1  0.00000000  0.73179000  0.97697600  1
  O  O39  1  0.00000000  0.26821000  0.02302400  1
  O  O40  1  0.00000000  0.04777300  0.65441200  1
  O  O41  1  0.00000000  0.95222700  0.34558800  1
  O  O42  1  0.00000000  0.54777300  0.84558800  1
  O  O43  1  0.00000000  0.45222700  0.15441200  1
  O  O44  1  0.50000000  0.24770500  0.51363200  1
  O  O45  1  0.50000000  0.75229500  0.48636800  1
  O  O46  1  0.50000000  0.74770500  0.98636800  1
  O  O47  1  0.50000000  0.25229500  0.01363200  1
  O  O48  1  0.50000000  0.04084100  0.66706400  1
  O  O49  1  0.50000000  0.95915900  0.33293600  1
  O  O50  1  0.76264400  0.31030500  0.86043600  1
  O  O51  1  0.50000000  0.54084100  0.83293600  1
  O  O52  1  0.24731800  0.96007900  0.17233100  1
  O  O53  1  0.24731800  0.03992100  0.82766900  1
  O  O54  1  0.75268200  0.46007900  0.32766900  1
  O  O55  1  0.75268200  0.53992100  0.67233100  1
  O  O56  1  0.75268200  0.03992100  0.82766900  1
  O  O57  1  0.75268200  0.96007900  0.17233100  1
  O  O58  1  0.24731800  0.53992100  0.67233100  1
  O  O59  1  0.24731800  0.46007900  0.32766900  1
  O  O60  1  0.23735600  0.68969500  0.13956400  1
  O  O61  1  0.23735600  0.31030500  0.86043600  1
  O  O62  1  0.76264400  0.18969500  0.36043600  1
  O  O63  1  0.76264400  0.81030500  0.63956400  1
  O  O64  1  0.26394600  0.22385800  0.17490700  1
  O  O65  1  0.26394600  0.77614200  0.82509300  1
  O  O66  1  0.73605400  0.72385800  0.32509300  1
  O  O67  1  0.73605400  0.27614200  0.67490700  1
  O  O68  1  0.73605400  0.77614200  0.82509300  1
  O  O69  1  0.73605400  0.22385800  0.17490700  1
  O  O70  1  0.26394600  0.27614200  0.67490700  1
  O  O71  1  0.26394600  0.72385800  0.32509300  1
  O  O72  1  0.23735600  0.18969500  0.36043600  1
  O  O73  1  0.23735600  0.81030500  0.63956400  1
  O  O74  1  0.76264400  0.68969500  0.13956400  1
  O  O75  1  0.50000000  0.45915900  0.16706400  1
