# generated using pymatgen
data_KMg15
_symmetry_space_group_name_H-M   'P 1'
_cell_length_a   6.58930343
_cell_length_b   6.58930343
_cell_length_c   10.48746300
_cell_angle_alpha   90.00000000
_cell_angle_beta   90.00000000
_cell_angle_gamma   119.99999428
_symmetry_Int_Tables_number   1
_chemical_formula_structural   KMg15
_chemical_formula_sum   'K1 Mg15'
_cell_volume   394.34842626
_cell_formula_units_Z   1
loop_
 _symmetry_equiv_pos_site_id
 _symmetry_equiv_pos_as_xyz
  1  'x, y, z'
loop_
 _atom_site_type_symbol
 _atom_site_label
 _atom_site_symmetry_multiplicity
 _atom_site_fract_x
 _atom_site_fract_y
 _atom_site_fract_z
 _atom_site_occupancy
  K  K0  1  0.66666700  0.33333300  0.00000000  1
  Mg  Mg1  1  0.66666700  0.33333300  0.50000000  1
  Mg  Mg2  1  0.16999400  0.33998800  0.00000000  1
  Mg  Mg3  1  0.16521400  0.33042800  0.50000000  1
  Mg  Mg4  1  0.16999400  0.83000600  0.00000000  1
  Mg  Mg5  1  0.16521400  0.83478600  0.50000000  1
  Mg  Mg6  1  0.66001200  0.83000600  0.00000000  1
  Mg  Mg7  1  0.66957200  0.83478600  0.50000000  1
  Mg  Mg8  1  0.00972200  0.50486100  0.26318600  1
  Mg  Mg9  1  0.00972200  0.50486100  0.73681400  1
  Mg  Mg10  1  0.49513900  0.50486100  0.26318600  1
  Mg  Mg11  1  0.49513900  0.50486100  0.73681400  1
  Mg  Mg12  1  0.49513900  0.99027800  0.26318600  1
  Mg  Mg13  1  0.49513900  0.99027800  0.73681400  1
  Mg  Mg14  1  0.00000000  0.00000000  0.24742900  1
  Mg  Mg15  1  0.00000000  0.00000000  0.75257100  1
