# generated using pymatgen
data_Na2PrWO6
_symmetry_space_group_name_H-M   'P 1'
_cell_length_a   8.41354390
_cell_length_b   8.41354390
_cell_length_c   8.41354390
_cell_angle_alpha   90.00000000
_cell_angle_beta   90.00000000
_cell_angle_gamma   90.00000000
_symmetry_Int_Tables_number   1
_chemical_formula_structural   Na2PrWO6
_chemical_formula_sum   'Na8 Pr4 W4 O24'
_cell_volume   595.57559785
_cell_formula_units_Z   4
loop_
 _symmetry_equiv_pos_site_id
 _symmetry_equiv_pos_as_xyz
  1  'x, y, z'
loop_
 _atom_site_type_symbol
 _atom_site_label
 _atom_site_symmetry_multiplicity
 _atom_site_fract_x
 _atom_site_fract_y
 _atom_site_fract_z
 _atom_site_occupancy
  Na  Na0  1  0.50000000  0.50000000  0.50000000  1
  Na  Na1  1  -0.00000000  -0.00000000  -0.00000000  1
  Na  Na2  1  -0.00000000  -0.00000000  0.50000000  1
  Na  Na3  1  -0.00000000  0.50000000  -0.00000000  1
  Na  Na4  1  0.50000000  -0.00000000  -0.00000000  1
  Na  Na5  1  0.50000000  0.50000000  -0.00000000  1
  Na  Na6  1  0.50000000  -0.00000000  0.50000000  1
  Na  Na7  1  -0.00000000  0.50000000  0.50000000  1
  Pr  Pr8  1  0.75000000  0.75000000  0.75000000  1
  Pr  Pr9  1  0.75000000  0.25000000  0.25000000  1
  Pr  Pr10  1  0.25000000  0.75000000  0.25000000  1
  Pr  Pr11  1  0.25000000  0.25000000  0.75000000  1
  W  W12  1  0.25000000  0.25000000  0.25000000  1
  W  W13  1  0.25000000  0.75000000  0.75000000  1
  W  W14  1  0.75000000  0.25000000  0.75000000  1
  W  W15  1  0.75000000  0.75000000  0.25000000  1
  O  O16  1  0.21146443  0.29657567  0.47423821  1
  O  O17  1  0.21146443  0.70342433  0.52576179  1
  O  O18  1  0.78853557  0.29657567  0.52576179  1
  O  O19  1  0.78853557  0.70342433  0.47423821  1
  O  O20  1  0.29657567  0.47423821  0.21146443  1
  O  O21  1  0.70342433  0.52576179  0.21146443  1
  O  O22  1  0.29657567  0.52576179  0.78853557  1
  O  O23  1  0.70342433  0.47423821  0.78853557  1
  O  O24  1  0.47423821  0.21146443  0.29657567  1
  O  O25  1  0.52576179  0.21146443  0.70342433  1
  O  O26  1  0.52576179  0.78853557  0.29657567  1
  O  O27  1  0.47423821  0.78853557  0.70342433  1
  O  O28  1  0.28853557  0.20342433  0.02576179  1
  O  O29  1  0.28853557  0.79657567  0.97423821  1
  O  O30  1  0.71146443  0.20342433  0.97423821  1
  O  O31  1  0.71146443  0.79657567  0.02576179  1
  O  O32  1  0.20342433  0.02576179  0.28853557  1
  O  O33  1  0.79657567  0.97423821  0.28853557  1
  O  O34  1  0.20342433  0.97423821  0.71146443  1
  O  O35  1  0.79657567  0.02576179  0.71146443  1
  O  O36  1  0.02576179  0.28853557  0.20342433  1
  O  O37  1  0.97423821  0.28853557  0.79657567  1
  O  O38  1  0.97423821  0.71146443  0.20342433  1
  O  O39  1  0.02576179  0.71146443  0.79657567  1
