# generated using pymatgen
data_KPrEuWO6
_symmetry_space_group_name_H-M   'P 1'
_cell_length_a   8.55478040
_cell_length_b   8.51115056
_cell_length_c   8.51069907
_cell_angle_alpha   90.00000000
_cell_angle_beta   90.00000000
_cell_angle_gamma   90.00000000
_symmetry_Int_Tables_number   1
_chemical_formula_structural   KPrEuWO6
_chemical_formula_sum   'K4 Pr4 Eu4 W4 O24'
_cell_volume   619.67271418
_cell_formula_units_Z   4
loop_
 _symmetry_equiv_pos_site_id
 _symmetry_equiv_pos_as_xyz
  1  'x, y, z'
loop_
 _atom_site_type_symbol
 _atom_site_label
 _atom_site_symmetry_multiplicity
 _atom_site_fract_x
 _atom_site_fract_y
 _atom_site_fract_z
 _atom_site_occupancy
  K  K0  1  -0.00000000  0.50000000  0.50000000  1
  K  K1  1  0.50000000  -0.00000000  0.50000000  1
  K  K2  1  0.50000000  -0.00000000  -0.00000000  1
  K  K3  1  -0.00000000  0.50000000  -0.00000000  1
  Pr  Pr4  1  0.75000000  0.75000000  0.75000000  1
  Pr  Pr5  1  0.25000000  0.25000000  0.75000000  1
  Pr  Pr6  1  0.25000000  0.75000000  0.25000000  1
  Pr  Pr7  1  0.75000000  0.25000000  0.25000000  1
  Eu  Eu8  1  0.50000000  0.50000000  -0.00000000  1
  Eu  Eu9  1  -0.00000000  -0.00000000  0.50000000  1
  Eu  Eu10  1  -0.00000000  -0.00000000  -0.00000000  1
  Eu  Eu11  1  0.50000000  0.50000000  0.50000000  1
  W  W12  1  0.25000000  0.25000000  0.25000000  1
  W  W13  1  0.75000000  0.75000000  0.25000000  1
  W  W14  1  0.75000000  0.25000000  0.75000000  1
  W  W15  1  0.25000000  0.75000000  0.75000000  1
  O  O16  1  0.02312532  0.20855965  0.27827608  1
  O  O17  1  0.97687468  0.79144035  0.27827608  1
  O  O18  1  0.97687468  0.20855965  0.72172392  1
  O  O19  1  0.02312532  0.79144035  0.72172392  1
  O  O20  1  0.26983544  0.02428607  0.21815336  1
  O  O21  1  0.26983544  0.97571393  0.78184664  1
  O  O22  1  0.73016456  0.97571393  0.21815336  1
  O  O23  1  0.73016456  0.02428607  0.78184664  1
  O  O24  1  0.21986189  0.27518351  0.02405980  1
  O  O25  1  0.78013811  0.27518351  0.97594020  1
  O  O26  1  0.21986189  0.72481649  0.97594020  1
  O  O27  1  0.78013811  0.72481649  0.02405980  1
  O  O28  1  0.47687468  0.29144035  0.22172392  1
  O  O29  1  0.52312532  0.70855965  0.22172392  1
  O  O30  1  0.52312532  0.29144035  0.77827608  1
  O  O31  1  0.47687468  0.70855965  0.77827608  1
  O  O32  1  0.23016456  0.47571393  0.28184664  1
  O  O33  1  0.23016456  0.52428607  0.71815336  1
  O  O34  1  0.76983544  0.52428607  0.28184664  1
  O  O35  1  0.76983544  0.47571393  0.71815336  1
  O  O36  1  0.28013811  0.22481649  0.47594020  1
  O  O37  1  0.71986189  0.22481649  0.52405980  1
  O  O38  1  0.28013811  0.77518351  0.52405980  1
  O  O39  1  0.71986189  0.77518351  0.47594020  1
