# generated using pymatgen
data_SrDy(NiO3)4
_symmetry_space_group_name_H-M   'P 1'
_cell_length_a   5.37804386
_cell_length_b   5.37804386
_cell_length_c   7.59385210
_cell_angle_alpha   90.00000000
_cell_angle_beta   90.00000000
_cell_angle_gamma   90.98034432
_symmetry_Int_Tables_number   1
_chemical_formula_structural   SrDy(NiO3)4
_chemical_formula_sum   'Sr1 Dy1 Ni4 O12'
_cell_volume   219.60753540
_cell_formula_units_Z   1
loop_
 _symmetry_equiv_pos_site_id
 _symmetry_equiv_pos_as_xyz
  1  'x, y, z'
loop_
 _atom_site_type_symbol
 _atom_site_label
 _atom_site_symmetry_multiplicity
 _atom_site_fract_x
 _atom_site_fract_y
 _atom_site_fract_z
 _atom_site_occupancy
  Sr  Sr0  1  -0.00000000  -0.00000000  0.00000000  1
  Dy  Dy1  1  0.50000000  0.50000000  0.50000000  1
  Ni  Ni2  1  -0.00000000  0.50000000  0.24974797  1
  Ni  Ni3  1  -0.00000000  0.50000000  0.75025203  1
  Ni  Ni4  1  0.50000000  -0.00000000  0.24974797  1
  Ni  Ni5  1  0.50000000  -0.00000000  0.75025203  1
  O  O6  1  0.25324461  0.25324461  0.26567615  1
  O  O7  1  0.25324461  0.25324461  0.73432385  1
  O  O8  1  0.74675539  0.74675539  0.26567615  1
  O  O9  1  0.74675539  0.74675539  0.73432385  1
  O  O10  1  0.72332021  0.27667979  0.27079387  1
  O  O11  1  0.72332021  0.27667979  0.72920613  1
  O  O12  1  0.27667979  0.72332021  0.72920613  1
  O  O13  1  0.27667979  0.72332021  0.27079387  1
  O  O14  1  -0.00000000  0.50000000  0.00000000  1
  O  O15  1  -0.00000000  0.50000000  0.50000000  1
  O  O16  1  0.50000000  -0.00000000  0.00000000  1
  O  O17  1  0.50000000  -0.00000000  0.50000000  1
