# generated using pymatgen
data_BaSmEuVO6
_symmetry_space_group_name_H-M   'P 1'
_cell_length_a   8.42040440
_cell_length_b   8.54986690
_cell_length_c   8.47702759
_cell_angle_alpha   90.00000000
_cell_angle_beta   90.00000000
_cell_angle_gamma   90.00000000
_symmetry_Int_Tables_number   1
_chemical_formula_structural   BaSmEuVO6
_chemical_formula_sum   'Ba4 Sm4 Eu4 V4 O24'
_cell_volume   610.28950289
_cell_formula_units_Z   4
loop_
 _symmetry_equiv_pos_site_id
 _symmetry_equiv_pos_as_xyz
  1  'x, y, z'
loop_
 _atom_site_type_symbol
 _atom_site_label
 _atom_site_symmetry_multiplicity
 _atom_site_fract_x
 _atom_site_fract_y
 _atom_site_fract_z
 _atom_site_occupancy
  Ba  Ba0  1  0.00000000  0.00000000  -0.00000000  1
  Ba  Ba1  1  0.50000000  0.50000000  0.50000000  1
  Ba  Ba2  1  0.50000000  0.50000000  -0.00000000  1
  Ba  Ba3  1  0.00000000  0.00000000  0.50000000  1
  Sm  Sm4  1  0.75000000  0.75000000  0.75000000  1
  Sm  Sm5  1  0.25000000  0.25000000  0.75000000  1
  Sm  Sm6  1  0.25000000  0.75000000  0.25000000  1
  Sm  Sm7  1  0.75000000  0.25000000  0.25000000  1
  Eu  Eu8  1  0.00000000  0.50000000  0.50000000  1
  Eu  Eu9  1  0.50000000  0.00000000  0.50000000  1
  Eu  Eu10  1  0.50000000  0.00000000  0.00000000  1
  Eu  Eu11  1  0.00000000  0.50000000  0.00000000  1
  V  V12  1  0.25000000  0.25000000  0.25000000  1
  V  V13  1  0.75000000  0.75000000  0.25000000  1
  V  V14  1  0.75000000  0.25000000  0.75000000  1
  V  V15  1  0.25000000  0.75000000  0.75000000  1
  O  O16  1  0.02350045  0.22556541  0.27482736  1
  O  O17  1  0.97649955  0.77443459  0.27482736  1
  O  O18  1  0.97649955  0.22556541  0.72517264  1
  O  O19  1  0.02350045  0.77443459  0.72517264  1
  O  O20  1  0.28086831  0.02091843  0.21848104  1
  O  O21  1  0.28086831  0.97908157  0.78151896  1
  O  O22  1  0.71913169  0.97908157  0.21848104  1
  O  O23  1  0.71913169  0.02091843  0.78151896  1
  O  O24  1  0.21770703  0.27945393  0.02128129  1
  O  O25  1  0.78229297  0.27945393  0.97871871  1
  O  O26  1  0.21770703  0.72054607  0.97871871  1
  O  O27  1  0.78229297  0.72054607  0.02128129  1
  O  O28  1  0.47649955  0.27443459  0.22517264  1
  O  O29  1  0.52350045  0.72556541  0.22517264  1
  O  O30  1  0.52350045  0.27443459  0.77482736  1
  O  O31  1  0.47649955  0.72556541  0.77482736  1
  O  O32  1  0.21913169  0.47908157  0.28151896  1
  O  O33  1  0.21913169  0.52091843  0.71848104  1
  O  O34  1  0.78086831  0.52091843  0.28151896  1
  O  O35  1  0.78086831  0.47908157  0.71848104  1
  O  O36  1  0.28229297  0.22054607  0.47871871  1
  O  O37  1  0.71770703  0.22054607  0.52128129  1
  O  O38  1  0.28229297  0.77945393  0.52128129  1
  O  O39  1  0.71770703  0.77945393  0.47871871  1
