# generated using pymatgen
data_BaSrHf4O12
_symmetry_space_group_name_H-M   'P 1'
_cell_length_a   5.85790707
_cell_length_b   5.85790707
_cell_length_c   8.28392197
_cell_angle_alpha   90.00000000
_cell_angle_beta   90.00000000
_cell_angle_gamma   89.90541705
_symmetry_Int_Tables_number   1
_chemical_formula_structural   BaSrHf4O12
_chemical_formula_sum   'Ba1 Sr1 Hf4 O12'
_cell_volume   284.26301812
_cell_formula_units_Z   1
loop_
 _symmetry_equiv_pos_site_id
 _symmetry_equiv_pos_as_xyz
  1  'x, y, z'
loop_
 _atom_site_type_symbol
 _atom_site_label
 _atom_site_symmetry_multiplicity
 _atom_site_fract_x
 _atom_site_fract_y
 _atom_site_fract_z
 _atom_site_occupancy
  Ba  Ba0  1  0.50748211  0.50748211  0.00000000  1
  Sr  Sr1  1  0.98927697  0.98927697  0.50000000  1
  Hf  Hf2  1  0.49728502  0.00233075  0.74816335  1
  Hf  Hf3  1  0.49728502  0.00233075  0.25183665  1
  Hf  Hf4  1  0.00233075  0.49728502  0.25183665  1
  Hf  Hf5  1  0.00233075  0.49728502  0.74816335  1
  O  O6  1  0.73842047  0.26181998  0.74764368  1
  O  O7  1  0.26181998  0.73842047  0.74764368  1
  O  O8  1  0.26181998  0.73842047  0.25235632  1
  O  O9  1  0.73842047  0.26181998  0.25235632  1
  O  O10  1  0.76108842  0.76108842  0.75502522  1
  O  O11  1  0.22910999  0.22910999  0.72197817  1
  O  O12  1  0.22910999  0.22910999  0.27802183  1
  O  O13  1  0.76108842  0.76108842  0.24497478  1
  O  O14  1  0.49073178  0.01238966  -0.00000000  1
  O  O15  1  0.53340332  0.98800690  0.50000000  1
  O  O16  1  0.01238966  0.49073178  -0.00000000  1
  O  O17  1  0.98800690  0.53340332  0.50000000  1
