# generated using pymatgen
data_SrEu(WO3)4
_symmetry_space_group_name_H-M   'P 1'
_cell_length_a   5.59767803
_cell_length_b   5.59767803
_cell_length_c   8.05995725
_cell_angle_alpha   90.00000000
_cell_angle_beta   90.00000000
_cell_angle_gamma   89.96967424
_symmetry_Int_Tables_number   1
_chemical_formula_structural   SrEu(WO3)4
_chemical_formula_sum   'Sr1 Eu1 W4 O12'
_cell_volume   252.55065964
_cell_formula_units_Z   1
loop_
 _symmetry_equiv_pos_site_id
 _symmetry_equiv_pos_as_xyz
  1  'x, y, z'
loop_
 _atom_site_type_symbol
 _atom_site_label
 _atom_site_symmetry_multiplicity
 _atom_site_fract_x
 _atom_site_fract_y
 _atom_site_fract_z
 _atom_site_occupancy
  Sr  Sr0  1  0.00470496  0.00470496  -0.00000000  1
  Eu  Eu1  1  0.49913781  0.49913781  0.50000000  1
  W  W2  1  0.50097134  0.00010891  0.74982547  1
  W  W3  1  0.50097134  0.00010891  0.25017453  1
  W  W4  1  0.00010891  0.50097134  0.25017453  1
  W  W5  1  0.00010891  0.50097134  0.74982547  1
  O  O6  1  0.72377584  0.27651524  0.74553157  1
  O  O7  1  0.27651524  0.72377584  0.74553157  1
  O  O8  1  0.27651524  0.72377584  0.25446843  1
  O  O9  1  0.72377584  0.27651524  0.25446843  1
  O  O10  1  0.76714506  0.76714506  0.77142722  1
  O  O11  1  0.23887430  0.23887430  0.72761042  1
  O  O12  1  0.23887430  0.23887430  0.27238958  1
  O  O13  1  0.76714506  0.76714506  0.22857278  1
  O  O14  1  0.46727061  0.01529748  -0.00000000  1
  O  O15  1  0.52451758  0.97349019  0.50000000  1
  O  O16  1  0.01529748  0.46727061  -0.00000000  1
  O  O17  1  0.97349019  0.52451758  0.50000000  1
