# generated using pymatgen
data_BaDyNbSnO6
_symmetry_space_group_name_H-M   'P 1'
_cell_length_a   8.43497518
_cell_length_b   8.43300045
_cell_length_c   8.47521235
_cell_angle_alpha   90.00000000
_cell_angle_beta   90.00000000
_cell_angle_gamma   90.00000000
_symmetry_Int_Tables_number   1
_chemical_formula_structural   BaDyNbSnO6
_chemical_formula_sum   'Ba4 Dy4 Nb4 Sn4 O24'
_cell_volume   602.86007183
_cell_formula_units_Z   4
loop_
 _symmetry_equiv_pos_site_id
 _symmetry_equiv_pos_as_xyz
  1  'x, y, z'
loop_
 _atom_site_type_symbol
 _atom_site_label
 _atom_site_symmetry_multiplicity
 _atom_site_fract_x
 _atom_site_fract_y
 _atom_site_fract_z
 _atom_site_occupancy
  Ba  Ba0  1  -0.00000000  0.00000000  -0.00000000  1
  Ba  Ba1  1  0.50000000  0.50000000  0.50000000  1
  Ba  Ba2  1  -0.00000000  0.50000000  0.50000000  1
  Ba  Ba3  1  -0.00000000  0.00000000  0.50000000  1
  Dy  Dy4  1  0.74527074  0.75010886  0.75481969  1
  Dy  Dy5  1  0.25472926  0.24989114  0.75481969  1
  Dy  Dy6  1  0.25472926  0.75010886  0.24518031  1
  Dy  Dy7  1  0.74527074  0.24989114  0.24518031  1
  Nb  Nb8  1  0.25037096  0.25347815  0.24604268  1
  Nb  Nb9  1  0.74962904  0.74652185  0.24604268  1
  Nb  Nb10  1  0.74962904  0.25347815  0.75395732  1
  Nb  Nb11  1  0.25037096  0.74652185  0.75395732  1
  Sn  Sn12  1  0.50000000  0.00000000  0.50000000  1
  Sn  Sn13  1  0.50000000  0.50000000  -0.00000000  1
  Sn  Sn14  1  0.50000000  0.00000000  -0.00000000  1
  Sn  Sn15  1  -0.00000000  0.50000000  -0.00000000  1
  O  O16  1  0.01435037  0.22317861  0.27512585  1
  O  O17  1  0.98564963  0.77682139  0.27512585  1
  O  O18  1  0.98564963  0.22317861  0.72487415  1
  O  O19  1  0.01435037  0.77682139  0.72487415  1
  O  O20  1  0.28307001  0.01525146  0.20842993  1
  O  O21  1  0.28307001  0.98474854  0.79157007  1
  O  O22  1  0.71692999  0.98474854  0.20842993  1
  O  O23  1  0.71692999  0.01525146  0.79157007  1
  O  O24  1  0.20852911  0.28491868  0.01333568  1
  O  O25  1  0.79147089  0.28491868  0.98666432  1
  O  O26  1  0.20852911  0.71508132  0.98666432  1
  O  O27  1  0.79147089  0.71508132  0.01333568  1
  O  O28  1  0.48551615  0.28986751  0.21070798  1
  O  O29  1  0.51448385  0.71013249  0.21070798  1
  O  O30  1  0.51448385  0.28986751  0.78929202  1
  O  O31  1  0.48551615  0.71013249  0.78929202  1
  O  O32  1  0.22994487  0.48652682  0.28339133  1
  O  O33  1  0.22994487  0.51347318  0.71660867  1
  O  O34  1  0.77005513  0.51347318  0.28339133  1
  O  O35  1  0.77005513  0.48652682  0.71660867  1
  O  O36  1  0.28597381  0.21727631  0.48499950  1
  O  O37  1  0.71402619  0.21727631  0.51500050  1
  O  O38  1  0.28597381  0.78272369  0.51500050  1
  O  O39  1  0.71402619  0.78272369  0.48499950  1
