# generated using pymatgen
data_EuDyTi4O12
_symmetry_space_group_name_H-M   'P 1'
_cell_length_a   5.43495577
_cell_length_b   5.43495577
_cell_length_c   7.70862640
_cell_angle_alpha   90.00000000
_cell_angle_beta   90.00000000
_cell_angle_gamma   89.65372392
_symmetry_Int_Tables_number   1
_chemical_formula_structural   EuDyTi4O12
_chemical_formula_sum   'Eu1 Dy1 Ti4 O12'
_cell_volume   227.69898515
_cell_formula_units_Z   1
loop_
 _symmetry_equiv_pos_site_id
 _symmetry_equiv_pos_as_xyz
  1  'x, y, z'
loop_
 _atom_site_type_symbol
 _atom_site_label
 _atom_site_symmetry_multiplicity
 _atom_site_fract_x
 _atom_site_fract_y
 _atom_site_fract_z
 _atom_site_occupancy
  Eu  Eu0  1  0.98135867  0.98135867  0.50000000  1
  Dy  Dy1  1  0.52667048  0.52667048  -0.00000000  1
  Ti  Ti2  1  0.49125039  0.01011585  0.75036915  1
  Ti  Ti3  1  0.49125039  0.01011585  0.24963085  1
  Ti  Ti4  1  0.01011585  0.49125039  0.24963085  1
  Ti  Ti5  1  0.01011585  0.49125039  0.75036915  1
  O  O6  1  0.78413772  0.21421162  0.74170656  1
  O  O7  1  0.21421162  0.78413772  0.74170656  1
  O  O8  1  0.21421162  0.78413772  0.25829344  1
  O  O9  1  0.78413772  0.21421162  0.25829344  1
  O  O10  1  0.72608727  0.72608727  0.72844820  1
  O  O11  1  0.29950834  0.29950834  0.80302737  1
  O  O12  1  0.29950834  0.29950834  0.19697263  1
  O  O13  1  0.72608727  0.72608727  0.27155180  1
  O  O14  1  0.51303064  0.93899323  -0.00000000  1
  O  O15  1  0.45896360  0.02866103  0.50000000  1
  O  O16  1  0.93899323  0.51303064  -0.00000000  1
  O  O17  1  0.02866103  0.45896360  0.50000000  1
