# generated using pymatgen
data_NdSmCr4O12
_symmetry_space_group_name_H-M   'P 1'
_cell_length_a   5.35477620
_cell_length_b   5.35477620
_cell_length_c   7.48104120
_cell_angle_alpha   90.00000000
_cell_angle_beta   90.00000000
_cell_angle_gamma   89.62988095
_symmetry_Int_Tables_number   1
_chemical_formula_structural   NdSmCr4O12
_chemical_formula_sum   'Nd1 Sm1 Cr4 O12'
_cell_volume   214.50411769
_cell_formula_units_Z   1
loop_
 _symmetry_equiv_pos_site_id
 _symmetry_equiv_pos_as_xyz
  1  'x, y, z'
loop_
 _atom_site_type_symbol
 _atom_site_label
 _atom_site_symmetry_multiplicity
 _atom_site_fract_x
 _atom_site_fract_y
 _atom_site_fract_z
 _atom_site_occupancy
  Nd  Nd0  1  0.52050815  0.52050815  -0.00000000  1
  Sm  Sm1  1  0.98783824  0.98783824  0.50000000  1
  Cr  Cr2  1  0.50644032  0.01157036  0.74882113  1
  Cr  Cr3  1  0.50644032  0.01157036  0.25117887  1
  Cr  Cr4  1  0.01157036  0.50644032  0.25117887  1
  Cr  Cr5  1  0.01157036  0.50644032  0.74882113  1
  O  O6  1  0.77963884  0.21241105  0.74485104  1
  O  O7  1  0.21241105  0.77963884  0.74485104  1
  O  O8  1  0.21241105  0.77963884  0.25514896  1
  O  O9  1  0.77963884  0.21241105  0.25514896  1
  O  O10  1  0.72024790  0.72024790  0.70820767  1
  O  O11  1  0.28618385  0.28618385  0.79111977  1
  O  O12  1  0.28618385  0.28618385  0.20888023  1
  O  O13  1  0.72024790  0.72024790  0.29179233  1
  O  O14  1  0.52483032  0.95405868  -0.00000000  1
  O  O15  1  0.43862372  0.03915631  0.50000000  1
  O  O16  1  0.95405868  0.52483032  -0.00000000  1
  O  O17  1  0.03915631  0.43862372  0.50000000  1
