# generated using pymatgen
data_NaNdHf4O12
_symmetry_space_group_name_H-M   'P 1'
_cell_length_a   5.69862027
_cell_length_b   5.69862027
_cell_length_c   8.24057304
_cell_angle_alpha   90.00000000
_cell_angle_beta   90.00000000
_cell_angle_gamma   89.74837620
_symmetry_Int_Tables_number   1
_chemical_formula_structural   NaNdHf4O12
_chemical_formula_sum   'Na1 Nd1 Hf4 O12'
_cell_volume   267.60403757
_cell_formula_units_Z   1
loop_
 _symmetry_equiv_pos_site_id
 _symmetry_equiv_pos_as_xyz
  1  'x, y, z'
loop_
 _atom_site_type_symbol
 _atom_site_label
 _atom_site_symmetry_multiplicity
 _atom_site_fract_x
 _atom_site_fract_y
 _atom_site_fract_z
 _atom_site_occupancy
  Na  Na0  1  0.50936278  0.49063722  0.50000000  1
  Nd  Nd1  1  0.98202838  0.01797162  -0.00000000  1
  Hf  Hf2  1  0.49242801  0.99489297  0.26084641  1
  Hf  Hf3  1  0.49242801  0.99489297  0.73915359  1
  Hf  Hf4  1  0.00510703  0.50757199  0.73915359  1
  Hf  Hf5  1  0.00510703  0.50757199  0.26084641  1
  O  O6  1  0.20860273  0.21031808  0.21852750  1
  O  O7  1  0.78968192  0.79139727  0.21852750  1
  O  O8  1  0.78968192  0.79139727  0.78147250  1
  O  O9  1  0.20860273  0.21031808  0.78147250  1
  O  O10  1  0.29681743  0.70318257  0.28959157  1
  O  O11  1  0.74614557  0.25385443  0.19794145  1
  O  O12  1  0.74614557  0.25385443  0.80205855  1
  O  O13  1  0.29681743  0.70318257  0.71040843  1
  O  O14  1  0.43825838  0.96586023  0.00000000  1
  O  O15  1  0.51730162  0.06185632  0.50000000  1
  O  O16  1  0.03413977  0.56174162  0.00000000  1
  O  O17  1  0.93814368  0.48269838  0.50000000  1
