# generated using pymatgen
data_Mg15Ga
_symmetry_space_group_name_H-M   'P 1'
_cell_length_a   6.36112042
_cell_length_b   6.36112042
_cell_length_c   10.23279300
_cell_angle_alpha   90.00000000
_cell_angle_beta   90.00000000
_cell_angle_gamma   120.00000435
_symmetry_Int_Tables_number   1
_chemical_formula_structural   Mg15Ga
_chemical_formula_sum   'Mg15 Ga1'
_cell_volume   358.58493142
_cell_formula_units_Z   1
loop_
 _symmetry_equiv_pos_site_id
 _symmetry_equiv_pos_as_xyz
  1  'x, y, z'
loop_
 _atom_site_type_symbol
 _atom_site_label
 _atom_site_symmetry_multiplicity
 _atom_site_fract_x
 _atom_site_fract_y
 _atom_site_fract_z
 _atom_site_occupancy
  Mg  Mg0  1  0.33333300  0.66666700  0.50000000  1
  Mg  Mg1  1  0.83269900  0.66539800  0.00000000  1
  Mg  Mg2  1  0.83356500  0.66712900  0.50000000  1
  Mg  Mg3  1  0.83269900  0.16730100  0.00000000  1
  Mg  Mg4  1  0.83356500  0.16643500  0.50000000  1
  Mg  Mg5  1  0.33460200  0.16730100  0.00000000  1
  Mg  Mg6  1  0.33287100  0.16643500  0.50000000  1
  Mg  Mg7  1  0.66485100  0.83242600  0.24756800  1
  Mg  Mg8  1  0.66485100  0.83242600  0.75243200  1
  Mg  Mg9  1  0.16757400  0.83242600  0.24756800  1
  Mg  Mg10  1  0.16757400  0.83242600  0.75243200  1
  Mg  Mg11  1  0.16757400  0.33514900  0.24756800  1
  Mg  Mg12  1  0.16757400  0.33514900  0.75243200  1
  Mg  Mg13  1  0.66666700  0.33333300  0.24997400  1
  Mg  Mg14  1  0.66666700  0.33333300  0.75002600  1
  Ga  Ga15  1  0.33333300  0.66666700  0.00000000  1
