# generated using pymatgen
data_BaCaSmBiO6
_symmetry_space_group_name_H-M   'P 1'
_cell_length_a   8.61256981
_cell_length_b   8.64561392
_cell_length_c   8.62493626
_cell_angle_alpha   90.00000000
_cell_angle_beta   90.00000000
_cell_angle_gamma   90.00000000
_symmetry_Int_Tables_number   1
_chemical_formula_structural   BaCaSmBiO6
_chemical_formula_sum   'Ba4 Ca4 Sm4 Bi4 O24'
_cell_volume   642.22097725
_cell_formula_units_Z   4
loop_
 _symmetry_equiv_pos_site_id
 _symmetry_equiv_pos_as_xyz
  1  'x, y, z'
loop_
 _atom_site_type_symbol
 _atom_site_label
 _atom_site_symmetry_multiplicity
 _atom_site_fract_x
 _atom_site_fract_y
 _atom_site_fract_z
 _atom_site_occupancy
  Ba  Ba0  1  0.00000000  0.00000000  0.00000000  1
  Ba  Ba1  1  0.50000000  0.50000000  0.50000000  1
  Ba  Ba2  1  0.00000000  0.50000000  0.00000000  1
  Ba  Ba3  1  0.00000000  0.00000000  0.50000000  1
  Ca  Ca4  1  0.00000000  0.50000000  0.50000000  1
  Ca  Ca5  1  0.50000000  0.00000000  0.50000000  1
  Ca  Ca6  1  0.50000000  0.50000000  0.00000000  1
  Ca  Ca7  1  0.50000000  0.00000000  0.00000000  1
  Sm  Sm8  1  0.25533506  0.25102636  0.25156077  1
  Sm  Sm9  1  0.74466494  0.74897364  0.25156077  1
  Sm  Sm10  1  0.74466494  0.25102636  0.74843923  1
  Sm  Sm11  1  0.25533506  0.74897364  0.74843923  1
  Bi  Bi12  1  0.74352827  0.74851311  0.75064867  1
  Bi  Bi13  1  0.25647173  0.25148689  0.75064867  1
  Bi  Bi14  1  0.25647173  0.74851311  0.24935133  1
  Bi  Bi15  1  0.74352827  0.25148689  0.24935133  1
  O  O16  1  0.98924582  0.21185307  0.27655657  1
  O  O17  1  0.01075418  0.78814693  0.27655657  1
  O  O18  1  0.01075418  0.21185307  0.72344343  1
  O  O19  1  0.98924582  0.78814693  0.72344343  1
  O  O20  1  0.30302330  0.98990939  0.20179836  1
  O  O21  1  0.30302330  0.01009061  0.79820164  1
  O  O22  1  0.69697670  0.01009061  0.20179836  1
  O  O23  1  0.69697670  0.98990939  0.79820164  1
  O  O24  1  0.21965409  0.28478514  0.99202696  1
  O  O25  1  0.78034591  0.28478514  0.00797304  1
  O  O26  1  0.21965409  0.71521486  0.00797304  1
  O  O27  1  0.78034591  0.71521486  0.99202696  1
  O  O28  1  0.50867184  0.31465170  0.20676464  1
  O  O29  1  0.49132816  0.68534830  0.20676464  1
  O  O30  1  0.49132816  0.31465170  0.79323536  1
  O  O31  1  0.50867184  0.68534830  0.79323536  1
  O  O32  1  0.20586589  0.51064807  0.30962542  1
  O  O33  1  0.20586589  0.48935193  0.69037458  1
  O  O34  1  0.79413411  0.48935193  0.30962542  1
  O  O35  1  0.79413411  0.51064807  0.69037458  1
  O  O36  1  0.30582456  0.19907084  0.51116171  1
  O  O37  1  0.69417544  0.19907084  0.48883829  1
  O  O38  1  0.30582456  0.80092916  0.48883829  1
  O  O39  1  0.69417544  0.80092916  0.51116171  1
