# generated using pymatgen
data_NaEuTi4O12
_symmetry_space_group_name_H-M   'P 1'
_cell_length_a   5.60332316
_cell_length_b   5.60332316
_cell_length_c   8.13923750
_cell_angle_alpha   90.00000000
_cell_angle_beta   90.00000000
_cell_angle_gamma   90.53593842
_symmetry_Int_Tables_number   1
_chemical_formula_structural   NaEuTi4O12
_chemical_formula_sum   'Na1 Eu1 Ti4 O12'
_cell_volume   255.53833575
_cell_formula_units_Z   1
loop_
 _symmetry_equiv_pos_site_id
 _symmetry_equiv_pos_as_xyz
  1  'x, y, z'
loop_
 _atom_site_type_symbol
 _atom_site_label
 _atom_site_symmetry_multiplicity
 _atom_site_fract_x
 _atom_site_fract_y
 _atom_site_fract_z
 _atom_site_occupancy
  Na  Na0  1  0.00975772  0.99024228  0.50000000  1
  Eu  Eu1  1  0.48375777  0.51624223  -0.00000000  1
  Ti  Ti2  1  0.50275888  0.01021023  0.26403159  1
  Ti  Ti3  1  0.50275888  0.01021023  0.73596841  1
  Ti  Ti4  1  0.98978977  0.49724112  0.73596841  1
  Ti  Ti5  1  0.98978977  0.49724112  0.26403159  1
  O  O6  1  0.28753334  0.29052007  0.23364114  1
  O  O7  1  0.70947993  0.71246666  0.23364114  1
  O  O8  1  0.70947993  0.71246666  0.76635886  1
  O  O9  1  0.28753334  0.29052007  0.76635886  1
  O  O10  1  0.23358608  0.76641392  0.20424818  1
  O  O11  1  0.78903549  0.21096451  0.28239652  1
  O  O12  1  0.78903549  0.21096451  0.71760348  1
  O  O13  1  0.23358608  0.76641392  0.79575182  1
  O  O14  1  0.53322637  0.04675237  -0.00000000  1
  O  O15  1  0.45214410  0.97510057  0.50000000  1
  O  O16  1  0.95324763  0.46677363  -0.00000000  1
  O  O17  1  0.02489943  0.54785590  0.50000000  1
