# generated using pymatgen
data_BaNaYWO6
_symmetry_space_group_name_H-M   'P 1'
_cell_length_a   5.94928892
_cell_length_b   5.94928892
_cell_length_c   5.94928892
_cell_angle_alpha   60.00000000
_cell_angle_beta   60.00000000
_cell_angle_gamma   60.00000000
_symmetry_Int_Tables_number   1
_chemical_formula_structural   BaNaYWO6
_chemical_formula_sum   'Ba1 Na1 Y1 W1 O6'
_cell_volume   148.89502393
_cell_formula_units_Z   1
loop_
 _symmetry_equiv_pos_site_id
 _symmetry_equiv_pos_as_xyz
  1  'x, y, z'
loop_
 _atom_site_type_symbol
 _atom_site_label
 _atom_site_symmetry_multiplicity
 _atom_site_fract_x
 _atom_site_fract_y
 _atom_site_fract_z
 _atom_site_occupancy
  Ba  Ba0  1  0.25000000  0.25000000  0.25000000  1
  Na  Na1  1  0.75000000  0.75000000  0.75000000  1
  Y  Y2  1  0.50000000  0.50000000  0.50000000  1
  W  W3  1  0.00000000  0.00000000  0.00000000  1
  O  O4  1  0.76754620  0.23245380  0.23245380  1
  O  O5  1  0.23245380  0.76754620  0.76754620  1
  O  O6  1  0.76754620  0.23245380  0.76754620  1
  O  O7  1  0.23245380  0.76754620  0.23245380  1
  O  O8  1  0.76754620  0.76754620  0.23245380  1
  O  O9  1  0.23245380  0.23245380  0.76754620  1
