# generated using pymatgen
data_BaSmEuWO6
_symmetry_space_group_name_H-M   'P 1'
_cell_length_a   5.97959426
_cell_length_b   6.05614623
_cell_length_c   8.44476698
_cell_angle_alpha   89.87132774
_cell_angle_beta   90.37395630
_cell_angle_gamma   89.81294459
_symmetry_Int_Tables_number   1
_chemical_formula_structural   BaSmEuWO6
_chemical_formula_sum   'Ba2 Sm2 Eu2 W2 O12'
_cell_volume   305.80392745
_cell_formula_units_Z   2
loop_
 _symmetry_equiv_pos_site_id
 _symmetry_equiv_pos_as_xyz
  1  'x, y, z'
loop_
 _atom_site_type_symbol
 _atom_site_label
 _atom_site_symmetry_multiplicity
 _atom_site_fract_x
 _atom_site_fract_y
 _atom_site_fract_z
 _atom_site_occupancy
  Ba  Ba0  1  0.98966506  0.03900226  0.24794801  1
  Ba  Ba1  1  0.01033494  0.96099774  0.75205199  1
  Sm  Sm2  1  0.00000000  0.50000000  0.00000000  1
  Sm  Sm3  1  0.50000000  -0.00000000  0.50000000  1
  Eu  Eu4  1  0.51116517  0.54595401  0.24473645  1
  Eu  Eu5  1  0.48883483  0.45404599  0.75526355  1
  W  W6  1  0.50000000  -0.00000000  0.00000000  1
  W  W7  1  0.00000000  0.50000000  0.50000000  1
  O  O8  1  0.23173275  0.20272140  0.96329666  1
  O  O9  1  0.27534775  0.69124488  0.54478956  1
  O  O10  1  0.76826725  0.79727860  0.03670334  1
  O  O11  1  0.72465225  0.30875512  0.45521044  1
  O  O12  1  0.31400462  0.72004862  0.95464855  1
  O  O13  1  0.19968721  0.23739107  0.54550543  1
  O  O14  1  0.68599538  0.27995138  0.04535145  1
  O  O15  1  0.80031279  0.76260893  0.45449457  1
  O  O16  1  0.43436586  0.97237154  0.22785222  1
  O  O17  1  0.09285481  0.49687045  0.26949827  1
  O  O18  1  0.56563414  0.02762846  0.77214778  1
  O  O19  1  0.90714519  0.50312955  0.73050173  1
