# generated using pymatgen
data_BaPrEuSbO6
_symmetry_space_group_name_H-M   'P 1'
_cell_length_a   6.05079463
_cell_length_b   6.11609868
_cell_length_c   8.60548791
_cell_angle_alpha   90.34132859
_cell_angle_beta   90.38152249
_cell_angle_gamma   90.27319767
_symmetry_Int_Tables_number   1
_chemical_formula_structural   BaPrEuSbO6
_chemical_formula_sum   'Ba2 Pr2 Eu2 Sb2 O12'
_cell_volume   318.44911093
_cell_formula_units_Z   2
loop_
 _symmetry_equiv_pos_site_id
 _symmetry_equiv_pos_as_xyz
  1  'x, y, z'
loop_
 _atom_site_type_symbol
 _atom_site_label
 _atom_site_symmetry_multiplicity
 _atom_site_fract_x
 _atom_site_fract_y
 _atom_site_fract_z
 _atom_site_occupancy
  Ba  Ba0  1  0.50767633  0.53118062  0.24974139  1
  Ba  Ba1  1  0.49232367  0.46881938  0.75025861  1
  Pr  Pr2  1  -0.00000000  0.50000000  -0.00000000  1
  Pr  Pr3  1  0.50000000  -0.00000000  0.50000000  1
  Eu  Eu4  1  0.99097938  0.04095664  0.25203356  1
  Eu  Eu5  1  0.00902062  0.95904336  0.74796644  1
  Sb  Sb6  1  0.50000000  -0.00000000  -0.00000000  1
  Sb  Sb7  1  -0.00000000  0.50000000  0.50000000  1
  O  O8  1  0.23135248  0.19023699  0.95269161  1
  O  O9  1  0.26377870  0.69810098  0.53641796  1
  O  O10  1  0.76864752  0.80976301  0.04730839  1
  O  O11  1  0.73622130  0.30189902  0.46358204  1
  O  O12  1  0.30502867  0.73569626  0.95846332  1
  O  O13  1  0.18505287  0.22684983  0.54418367  1
  O  O14  1  0.69497133  0.26430374  0.04153668  1
  O  O15  1  0.81494713  0.77315017  0.45581633  1
  O  O16  1  0.40797086  0.99128232  0.22868270  1
  O  O17  1  0.06716662  0.46638711  0.27026551  1
  O  O18  1  0.59202914  0.00871768  0.77131730  1
  O  O19  1  0.93283338  0.53361289  0.72973449  1
