# generated using pymatgen
data_KCaEuWO6
_symmetry_space_group_name_H-M   'P 1'
_cell_length_a   8.38751552
_cell_length_b   8.45404289
_cell_length_c   8.37883888
_cell_angle_alpha   90.00000000
_cell_angle_beta   90.00000000
_cell_angle_gamma   90.00000000
_symmetry_Int_Tables_number   1
_chemical_formula_structural   KCaEuWO6
_chemical_formula_sum   'K4 Ca4 Eu4 W4 O24'
_cell_volume   594.13019245
_cell_formula_units_Z   4
loop_
 _symmetry_equiv_pos_site_id
 _symmetry_equiv_pos_as_xyz
  1  'x, y, z'
loop_
 _atom_site_type_symbol
 _atom_site_label
 _atom_site_symmetry_multiplicity
 _atom_site_fract_x
 _atom_site_fract_y
 _atom_site_fract_z
 _atom_site_occupancy
  K  K0  1  0.50000000  -0.00000000  0.50000000  1
  K  K1  1  0.50000000  0.50000000  0.00000000  1
  K  K2  1  0.00000000  0.50000000  0.00000000  1
  K  K3  1  0.00000000  -0.00000000  0.50000000  1
  Ca  Ca4  1  0.00000000  0.50000000  0.50000000  1
  Ca  Ca5  1  0.50000000  -0.00000000  0.00000000  1
  Ca  Ca6  1  0.00000000  -0.00000000  0.00000000  1
  Ca  Ca7  1  0.50000000  0.50000000  0.50000000  1
  Eu  Eu8  1  0.75000000  0.75000000  0.75000000  1
  Eu  Eu9  1  0.25000000  0.25000000  0.75000000  1
  Eu  Eu10  1  0.25000000  0.75000000  0.25000000  1
  Eu  Eu11  1  0.75000000  0.25000000  0.25000000  1
  W  W12  1  0.25000000  0.25000000  0.25000000  1
  W  W13  1  0.75000000  0.75000000  0.25000000  1
  W  W14  1  0.75000000  0.25000000  0.75000000  1
  W  W15  1  0.25000000  0.75000000  0.75000000  1
  O  O16  1  0.02088018  0.21565326  0.27356872  1
  O  O17  1  0.97911982  0.78434674  0.27356872  1
  O  O18  1  0.97911982  0.21565326  0.72643128  1
  O  O19  1  0.02088018  0.78434674  0.72643128  1
  O  O20  1  0.28260627  0.02068073  0.20118134  1
  O  O21  1  0.28260627  0.97931927  0.79881866  1
  O  O22  1  0.71739373  0.97931927  0.20118134  1
  O  O23  1  0.71739373  0.02068073  0.79881866  1
  O  O24  1  0.21694467  0.27307536  0.02072893  1
  O  O25  1  0.78305533  0.27307536  0.97927107  1
  O  O26  1  0.21694467  0.72692464  0.97927107  1
  O  O27  1  0.78305533  0.72692464  0.02072893  1
  O  O28  1  0.47911982  0.28434674  0.22643128  1
  O  O29  1  0.52088018  0.71565326  0.22643128  1
  O  O30  1  0.52088018  0.28434674  0.77356872  1
  O  O31  1  0.47911982  0.71565326  0.77356872  1
  O  O32  1  0.21739373  0.47931927  0.29881866  1
  O  O33  1  0.21739373  0.52068073  0.70118134  1
  O  O34  1  0.78260627  0.52068073  0.29881866  1
  O  O35  1  0.78260627  0.47931927  0.70118134  1
  O  O36  1  0.28305533  0.22692464  0.47927107  1
  O  O37  1  0.71694467  0.22692464  0.52072893  1
  O  O38  1  0.28305533  0.77307536  0.52072893  1
  O  O39  1  0.71694467  0.77307536  0.47927107  1
