# generated using pymatgen
data_KEuSbWO6
_symmetry_space_group_name_H-M   'P 1'
_cell_length_a   8.41792600
_cell_length_b   8.40426722
_cell_length_c   8.44088553
_cell_angle_alpha   90.00000000
_cell_angle_beta   90.00000000
_cell_angle_gamma   90.00000000
_symmetry_Int_Tables_number   1
_chemical_formula_structural   KEuSbWO6
_chemical_formula_sum   'K4 Eu4 Sb4 W4 O24'
_cell_volume   597.16310428
_cell_formula_units_Z   4
loop_
 _symmetry_equiv_pos_site_id
 _symmetry_equiv_pos_as_xyz
  1  'x, y, z'
loop_
 _atom_site_type_symbol
 _atom_site_label
 _atom_site_symmetry_multiplicity
 _atom_site_fract_x
 _atom_site_fract_y
 _atom_site_fract_z
 _atom_site_occupancy
  K  K0  1  0.00000000  0.50000000  0.50000000  1
  K  K1  1  0.50000000  0.50000000  0.00000000  1
  K  K2  1  0.50000000  -0.00000000  0.00000000  1
  K  K3  1  0.00000000  -0.00000000  0.50000000  1
  Eu  Eu4  1  0.50000000  -0.00000000  0.50000000  1
  Eu  Eu5  1  0.00000000  0.50000000  0.00000000  1
  Eu  Eu6  1  0.00000000  -0.00000000  0.00000000  1
  Eu  Eu7  1  0.50000000  0.50000000  0.50000000  1
  Sb  Sb8  1  0.75000000  0.75000000  0.75000000  1
  Sb  Sb9  1  0.25000000  0.25000000  0.75000000  1
  Sb  Sb10  1  0.25000000  0.75000000  0.25000000  1
  Sb  Sb11  1  0.75000000  0.25000000  0.25000000  1
  W  W12  1  0.25000000  0.25000000  0.25000000  1
  W  W13  1  0.75000000  0.75000000  0.25000000  1
  W  W14  1  0.75000000  0.25000000  0.75000000  1
  W  W15  1  0.25000000  0.75000000  0.75000000  1
  O  O16  1  0.01817016  0.23582410  0.25446183  1
  O  O17  1  0.98182984  0.76417590  0.25446183  1
  O  O18  1  0.98182984  0.23582410  0.74553817  1
  O  O19  1  0.01817016  0.76417590  0.74553817  1
  O  O20  1  0.26207648  0.01834116  0.23695658  1
  O  O21  1  0.26207648  0.98165884  0.76304342  1
  O  O22  1  0.73792352  0.98165884  0.23695658  1
  O  O23  1  0.73792352  0.01834116  0.76304342  1
  O  O24  1  0.22544423  0.26334382  0.01786375  1
  O  O25  1  0.77455577  0.26334382  0.98213625  1
  O  O26  1  0.22544423  0.73665618  0.98213625  1
  O  O27  1  0.77455577  0.73665618  0.01786375  1
  O  O28  1  0.48182984  0.26417590  0.24553817  1
  O  O29  1  0.51817016  0.73582410  0.24553817  1
  O  O30  1  0.51817016  0.26417590  0.75446183  1
  O  O31  1  0.48182984  0.73582410  0.75446183  1
  O  O32  1  0.23792352  0.48165884  0.26304342  1
  O  O33  1  0.23792352  0.51834116  0.73695658  1
  O  O34  1  0.76207648  0.51834116  0.26304342  1
  O  O35  1  0.76207648  0.48165884  0.73695658  1
  O  O36  1  0.27455577  0.23665618  0.48213625  1
  O  O37  1  0.72544423  0.23665618  0.51786375  1
  O  O38  1  0.27455577  0.76334382  0.51786375  1
  O  O39  1  0.72544423  0.76334382  0.48213625  1
