# generated using pymatgen
data_KSrNbBiO6
_symmetry_space_group_name_H-M   'P 1'
_cell_length_a   8.42830001
_cell_length_b   8.42962685
_cell_length_c   8.45897155
_cell_angle_alpha   90.00000000
_cell_angle_beta   90.00000000
_cell_angle_gamma   90.00000000
_symmetry_Int_Tables_number   1
_chemical_formula_structural   KSrNbBiO6
_chemical_formula_sum   'K4 Sr4 Nb4 Bi4 O24'
_cell_volume   600.98813886
_cell_formula_units_Z   4
loop_
 _symmetry_equiv_pos_site_id
 _symmetry_equiv_pos_as_xyz
  1  'x, y, z'
loop_
 _atom_site_type_symbol
 _atom_site_label
 _atom_site_symmetry_multiplicity
 _atom_site_fract_x
 _atom_site_fract_y
 _atom_site_fract_z
 _atom_site_occupancy
  K  K0  1  -0.00000000  0.50000000  0.50000000  1
  K  K1  1  0.50000000  0.50000000  -0.00000000  1
  K  K2  1  0.50000000  0.00000000  -0.00000000  1
  K  K3  1  -0.00000000  0.00000000  0.50000000  1
  Sr  Sr4  1  0.50000000  0.00000000  0.50000000  1
  Sr  Sr5  1  -0.00000000  0.50000000  0.00000000  1
  Sr  Sr6  1  -0.00000000  -0.00000000  -0.00000000  1
  Sr  Sr7  1  0.50000000  0.50000000  0.50000000  1
  Nb  Nb8  1  0.25000000  0.25000000  0.25000000  1
  Nb  Nb9  1  0.75000000  0.75000000  0.25000000  1
  Nb  Nb10  1  0.75000000  0.25000000  0.75000000  1
  Nb  Nb11  1  0.25000000  0.75000000  0.75000000  1
  Bi  Bi12  1  0.75000000  0.75000000  0.75000000  1
  Bi  Bi13  1  0.25000000  0.25000000  0.75000000  1
  Bi  Bi14  1  0.25000000  0.75000000  0.25000000  1
  Bi  Bi15  1  0.75000000  0.25000000  0.25000000  1
  O  O16  1  0.01356698  0.23392631  0.25648423  1
  O  O17  1  0.98643302  0.76607369  0.25648423  1
  O  O18  1  0.98643302  0.23392631  0.74351577  1
  O  O19  1  0.01356698  0.76607369  0.74351577  1
  O  O20  1  0.26323204  0.01343862  0.23563383  1
  O  O21  1  0.26323204  0.98656138  0.76436617  1
  O  O22  1  0.73676796  0.98656138  0.23563383  1
  O  O23  1  0.73676796  0.01343862  0.76436617  1
  O  O24  1  0.22224451  0.26393378  0.01227464  1
  O  O25  1  0.77775549  0.26393378  0.98772536  1
  O  O26  1  0.22224451  0.73606622  0.98772536  1
  O  O27  1  0.77775549  0.73606622  0.01227464  1
  O  O28  1  0.48643302  0.26607369  0.24351577  1
  O  O29  1  0.51356698  0.73392631  0.24351577  1
  O  O30  1  0.51356698  0.26607369  0.75648423  1
  O  O31  1  0.48643302  0.73392631  0.75648423  1
  O  O32  1  0.23676796  0.48656138  0.26436617  1
  O  O33  1  0.23676796  0.51343862  0.73563383  1
  O  O34  1  0.76323204  0.51343862  0.26436617  1
  O  O35  1  0.76323204  0.48656138  0.73563383  1
  O  O36  1  0.27775549  0.23606622  0.48772536  1
  O  O37  1  0.72224451  0.23606622  0.51227464  1
  O  O38  1  0.27775549  0.76393378  0.51227464  1
  O  O39  1  0.72224451  0.76393378  0.48772536  1
