# generated using pymatgen
data_BaSrLaWO6
_symmetry_space_group_name_H-M   'P 1'
_cell_length_a   6.07616565
_cell_length_b   6.12107256
_cell_length_c   8.59255527
_cell_angle_alpha   90.26920907
_cell_angle_beta   90.86770015
_cell_angle_gamma   90.24467505
_symmetry_Int_Tables_number   1
_chemical_formula_structural   BaSrLaWO6
_chemical_formula_sum   'Ba2 Sr2 La2 W2 O12'
_cell_volume   319.53672132
_cell_formula_units_Z   2
loop_
 _symmetry_equiv_pos_site_id
 _symmetry_equiv_pos_as_xyz
  1  'x, y, z'
loop_
 _atom_site_type_symbol
 _atom_site_label
 _atom_site_symmetry_multiplicity
 _atom_site_fract_x
 _atom_site_fract_y
 _atom_site_fract_z
 _atom_site_occupancy
  Ba  Ba0  1  0.50969556  0.53570772  0.24823207  1
  Ba  Ba1  1  0.49030444  0.46429228  0.75176793  1
  Sr  Sr2  1  0.99049481  0.04164963  0.25288122  1
  Sr  Sr3  1  0.00950519  0.95835037  0.74711878  1
  La  La4  1  0.00000000  0.50000000  0.00000000  1
  La  La5  1  0.50000000  0.00000000  0.50000000  1
  W  W6  1  0.50000000  0.00000000  0.00000000  1
  W  W7  1  0.00000000  0.50000000  0.50000000  1
  O  O8  1  0.23155147  0.18676498  0.95576626  1
  O  O9  1  0.26372631  0.69214594  0.53447989  1
  O  O10  1  0.76844853  0.81323502  0.04423374  1
  O  O11  1  0.73627369  0.30785406  0.46552011  1
  O  O12  1  0.30480740  0.73447325  0.95403417  1
  O  O13  1  0.18577435  0.22463628  0.54567248  1
  O  O14  1  0.69519260  0.26552675  0.04596583  1
  O  O15  1  0.81422565  0.77536372  0.45432752  1
  O  O16  1  0.41080053  0.99424102  0.22506827  1
  O  O17  1  0.07391101  0.47424824  0.27345099  1
  O  O18  1  0.58919947  0.00575898  0.77493173  1
  O  O19  1  0.92608899  0.52575176  0.72654901  1
