# generated using pymatgen
data_BaTbInWO6
_symmetry_space_group_name_H-M   'P 1'
_cell_length_a   8.49633624
_cell_length_b   8.50948953
_cell_length_c   8.48621795
_cell_angle_alpha   90.00000000
_cell_angle_beta   90.00000000
_cell_angle_gamma   90.00000000
_symmetry_Int_Tables_number   1
_chemical_formula_structural   BaTbInWO6
_chemical_formula_sum   'Ba4 Tb4 In4 W4 O24'
_cell_volume   613.54918125
_cell_formula_units_Z   4
loop_
 _symmetry_equiv_pos_site_id
 _symmetry_equiv_pos_as_xyz
  1  'x, y, z'
loop_
 _atom_site_type_symbol
 _atom_site_label
 _atom_site_symmetry_multiplicity
 _atom_site_fract_x
 _atom_site_fract_y
 _atom_site_fract_z
 _atom_site_occupancy
  Ba  Ba0  1  -0.00000000  0.00000000  -0.00000000  1
  Ba  Ba1  1  0.50000000  0.50000000  0.50000000  1
  Ba  Ba2  1  0.50000000  0.00000000  0.50000000  1
  Ba  Ba3  1  -0.00000000  0.50000000  -0.00000000  1
  Tb  Tb4  1  0.75000000  0.75000000  0.75000000  1
  Tb  Tb5  1  0.25000000  0.25000000  0.75000000  1
  Tb  Tb6  1  0.25000000  0.75000000  0.25000000  1
  Tb  Tb7  1  0.75000000  0.25000000  0.25000000  1
  In  In8  1  0.00000000  0.50000000  0.50000000  1
  In  In9  1  0.50000000  0.50000000  -0.00000000  1
  In  In10  1  0.50000000  0.00000000  -0.00000000  1
  In  In11  1  -0.00000000  0.00000000  0.50000000  1
  W  W12  1  0.25000000  0.25000000  0.25000000  1
  W  W13  1  0.75000000  0.75000000  0.25000000  1
  W  W14  1  0.75000000  0.25000000  0.75000000  1
  W  W15  1  0.25000000  0.75000000  0.75000000  1
  O  O16  1  0.01925361  0.23929333  0.24994740  1
  O  O17  1  0.98074639  0.76070667  0.24994740  1
  O  O18  1  0.98074639  0.23929333  0.75005260  1
  O  O19  1  0.01925361  0.76070667  0.75005260  1
  O  O20  1  0.26025893  0.01951997  0.24666709  1
  O  O21  1  0.26025893  0.98048003  0.75333291  1
  O  O22  1  0.73974107  0.98048003  0.24666709  1
  O  O23  1  0.73974107  0.01951997  0.75333291  1
  O  O24  1  0.23491957  0.25255924  0.01874004  1
  O  O25  1  0.76508043  0.25255924  0.98125996  1
  O  O26  1  0.23491957  0.74744076  0.98125996  1
  O  O27  1  0.76508043  0.74744076  0.01874004  1
  O  O28  1  0.48074639  0.26070667  0.25005260  1
  O  O29  1  0.51925361  0.73929333  0.25005260  1
  O  O30  1  0.51925361  0.26070667  0.74994740  1
  O  O31  1  0.48074639  0.73929333  0.74994740  1
  O  O32  1  0.23974107  0.48048003  0.25333291  1
  O  O33  1  0.23974107  0.51951997  0.74666709  1
  O  O34  1  0.76025893  0.51951997  0.25333291  1
  O  O35  1  0.76025893  0.48048003  0.74666709  1
  O  O36  1  0.26508043  0.24744076  0.48125996  1
  O  O37  1  0.73491957  0.24744076  0.51874004  1
  O  O38  1  0.26508043  0.75255924  0.51874004  1
  O  O39  1  0.73491957  0.75255924  0.48125996  1
