# generated using pymatgen
data_PrGdTiVO6
_symmetry_space_group_name_H-M   'P 1'
_cell_length_a   11.08586513
_cell_length_b   11.11328452
_cell_length_c   11.11867391
_cell_angle_alpha   90.00000000
_cell_angle_beta   90.00000000
_cell_angle_gamma   90.00000000
_symmetry_Int_Tables_number   1
_chemical_formula_structural   PrGdTiVO6
_chemical_formula_sum   'Pr4 Gd4 Ti4 V4 O24'
_cell_volume   1369.82477676
_cell_formula_units_Z   4
loop_
 _symmetry_equiv_pos_site_id
 _symmetry_equiv_pos_as_xyz
  1  'x, y, z'
loop_
 _atom_site_type_symbol
 _atom_site_label
 _atom_site_symmetry_multiplicity
 _atom_site_fract_x
 _atom_site_fract_y
 _atom_site_fract_z
 _atom_site_occupancy
  Pr  Pr0  1  0.50000000  0.00000000  0.50000000  1
  Pr  Pr1  1  0.50000000  0.50000000  0.00000000  1
  Pr  Pr2  1  -0.00000000  0.50000000  0.00000000  1
  Pr  Pr3  1  -0.00000000  0.00000000  0.50000000  1
  Gd  Gd4  1  -0.00000000  0.50000000  0.50000000  1
  Gd  Gd5  1  0.50000000  0.00000000  -0.00000000  1
  Gd  Gd6  1  -0.00000000  0.00000000  0.00000000  1
  Gd  Gd7  1  0.50000000  0.50000000  0.50000000  1
  Ti  Ti8  1  0.75000000  0.75000000  0.75000000  1
  Ti  Ti9  1  0.25000000  0.25000000  0.75000000  1
  Ti  Ti10  1  0.25000000  0.75000000  0.25000000  1
  Ti  Ti11  1  0.75000000  0.25000000  0.25000000  1
  V  V12  1  0.25000000  0.25000000  0.25000000  1
  V  V13  1  0.75000000  0.75000000  0.25000000  1
  V  V14  1  0.75000000  0.25000000  0.75000000  1
  V  V15  1  0.25000000  0.75000000  0.75000000  1
  O  O16  1  0.98379731  0.19644752  0.28743621  1
  O  O17  1  0.01620269  0.80355248  0.28743621  1
  O  O18  1  0.01620269  0.19644752  0.71256379  1
  O  O19  1  0.98379731  0.80355248  0.71256379  1
  O  O20  1  0.29528867  0.98321257  0.19362358  1
  O  O21  1  0.29528867  0.01678743  0.80637642  1
  O  O22  1  0.70471133  0.01678743  0.19362358  1
  O  O23  1  0.70471133  0.98321257  0.80637642  1
  O  O24  1  0.19936571  0.29084093  0.98350364  1
  O  O25  1  0.80063429  0.29084093  0.01649636  1
  O  O26  1  0.19936571  0.70915907  0.01649636  1
  O  O27  1  0.80063429  0.70915907  0.98350364  1
  O  O28  1  0.51620269  0.30355248  0.21256379  1
  O  O29  1  0.48379731  0.69644752  0.21256379  1
  O  O30  1  0.48379731  0.30355248  0.78743621  1
  O  O31  1  0.51620269  0.69644752  0.78743621  1
  O  O32  1  0.20471133  0.51678743  0.30637642  1
  O  O33  1  0.20471133  0.48321257  0.69362358  1
  O  O34  1  0.79528867  0.48321257  0.30637642  1
  O  O35  1  0.79528867  0.51678743  0.69362358  1
  O  O36  1  0.30063429  0.20915907  0.51649636  1
  O  O37  1  0.69936571  0.20915907  0.48350364  1
  O  O38  1  0.30063429  0.79084093  0.48350364  1
  O  O39  1  0.69936571  0.79084093  0.51649636  1
