# generated using pymatgen
data_BaSrCeSbO6
_symmetry_space_group_name_H-M   'P 1'
_cell_length_a   6.06614709
_cell_length_b   6.15107729
_cell_length_c   8.63198745
_cell_angle_alpha   89.97090730
_cell_angle_beta   89.93292028
_cell_angle_gamma   90.13331498
_symmetry_Int_Tables_number   1
_chemical_formula_structural   BaSrCeSbO6
_chemical_formula_sum   'Ba2 Sr2 Ce2 Sb2 O12'
_cell_volume   322.08714485
_cell_formula_units_Z   2
loop_
 _symmetry_equiv_pos_site_id
 _symmetry_equiv_pos_as_xyz
  1  'x, y, z'
loop_
 _atom_site_type_symbol
 _atom_site_label
 _atom_site_symmetry_multiplicity
 _atom_site_fract_x
 _atom_site_fract_y
 _atom_site_fract_z
 _atom_site_occupancy
  Ba  Ba0  1  0.50606607  0.52593251  0.25223878  1
  Ba  Ba1  1  0.49393393  0.47406749  0.74776122  1
  Sr  Sr2  1  0.99088536  0.03536382  0.25435696  1
  Sr  Sr3  1  0.00911464  0.96463618  0.74564304  1
  Ce  Ce4  1  0.00000000  0.50000000  0.00000000  1
  Ce  Ce5  1  0.50000000  -0.00000000  0.50000000  1
  Sb  Sb6  1  0.50000000  -0.00000000  0.00000000  1
  Sb  Sb7  1  0.00000000  0.50000000  0.50000000  1
  O  O8  1  0.23486847  0.19933265  0.95706559  1
  O  O9  1  0.28576807  0.71967701  0.53413980  1
  O  O10  1  0.76513153  0.80066735  0.04293441  1
  O  O11  1  0.71423193  0.28032299  0.46586020  1
  O  O12  1  0.29562448  0.73808462  0.96582446  1
  O  O13  1  0.20952756  0.20566989  0.54353772  1
  O  O14  1  0.70437552  0.26191538  0.03417554  1
  O  O15  1  0.79047244  0.79433011  0.45646228  1
  O  O16  1  0.41926919  0.99457866  0.22813264  1
  O  O17  1  0.06146777  0.46490758  0.24317976  1
  O  O18  1  0.58073081  0.00542134  0.77186736  1
  O  O19  1  0.93853223  0.53509242  0.75682024  1
