# generated using pymatgen
data_BaCaInBiO6
_symmetry_space_group_name_H-M   'P 1'
_cell_length_a   5.92834013
_cell_length_b   6.00442145
_cell_length_c   8.42530352
_cell_angle_alpha   90.14522455
_cell_angle_beta   89.88303272
_cell_angle_gamma   89.81555184
_symmetry_Int_Tables_number   1
_chemical_formula_structural   BaCaInBiO6
_chemical_formula_sum   'Ba2 Ca2 In2 Bi2 O12'
_cell_volume   299.90608525
_cell_formula_units_Z   2
loop_
 _symmetry_equiv_pos_site_id
 _symmetry_equiv_pos_as_xyz
  1  'x, y, z'
loop_
 _atom_site_type_symbol
 _atom_site_label
 _atom_site_symmetry_multiplicity
 _atom_site_fract_x
 _atom_site_fract_y
 _atom_site_fract_z
 _atom_site_occupancy
  Ba  Ba0  1  0.99501261  0.03446389  0.25044286  1
  Ba  Ba1  1  0.00498739  0.96553611  0.74955714  1
  Ca  Ca2  1  0.51178803  0.54633603  0.25005704  1
  Ca  Ca3  1  0.48821197  0.45366397  0.74994296  1
  In  In4  1  0.50000000  -0.00000000  -0.00000000  1
  In  In5  1  0.00000000  0.50000000  0.50000000  1
  Bi  Bi6  1  0.00000000  0.50000000  -0.00000000  1
  Bi  Bi7  1  0.50000000  -0.00000000  0.50000000  1
  O  O8  1  0.21275325  0.21874168  0.95828548  1
  O  O9  1  0.30521196  0.70373421  0.55399900  1
  O  O10  1  0.78724675  0.78125832  0.04171452  1
  O  O11  1  0.69478804  0.29626579  0.44600100  1
  O  O12  1  0.29512278  0.69842459  0.94337182  1
  O  O13  1  0.21534231  0.21418953  0.53747608  1
  O  O14  1  0.70487722  0.30157541  0.05662818  1
  O  O15  1  0.78465769  0.78581047  0.46252392  1
  O  O16  1  0.43335922  0.94134306  0.25206079  1
  O  O17  1  0.10818314  0.49572468  0.24657127  1
  O  O18  1  0.56664078  0.05865694  0.74793921  1
  O  O19  1  0.89181686  0.50427532  0.75342873  1
