# generated using pymatgen
data_BaCaSmSbO6
_symmetry_space_group_name_H-M   'P 1'
_cell_length_a   8.44987693
_cell_length_b   8.44604468
_cell_length_c   8.47195828
_cell_angle_alpha   90.00000000
_cell_angle_beta   90.00000000
_cell_angle_gamma   90.00000000
_symmetry_Int_Tables_number   1
_chemical_formula_structural   BaCaSmSbO6
_chemical_formula_sum   'Ba4 Ca4 Sm4 Sb4 O24'
_cell_volume   604.62704123
_cell_formula_units_Z   4
loop_
 _symmetry_equiv_pos_site_id
 _symmetry_equiv_pos_as_xyz
  1  'x, y, z'
loop_
 _atom_site_type_symbol
 _atom_site_label
 _atom_site_symmetry_multiplicity
 _atom_site_fract_x
 _atom_site_fract_y
 _atom_site_fract_z
 _atom_site_occupancy
  Ba  Ba0  1  -0.00000000  -0.00000000  -0.00000000  1
  Ba  Ba1  1  0.50000000  0.50000000  0.50000000  1
  Ba  Ba2  1  0.50000000  -0.00000000  -0.00000000  1
  Ba  Ba3  1  0.00000000  -0.00000000  0.50000000  1
  Ca  Ca4  1  -0.00000000  0.50000000  0.50000000  1
  Ca  Ca5  1  0.50000000  -0.00000000  0.50000000  1
  Ca  Ca6  1  0.50000000  0.50000000  -0.00000000  1
  Ca  Ca7  1  0.00000000  0.50000000  -0.00000000  1
  Sm  Sm8  1  0.25174554  0.25470840  0.25098056  1
  Sm  Sm9  1  0.74825446  0.74529160  0.25098056  1
  Sm  Sm10  1  0.74825446  0.25470840  0.74901944  1
  Sm  Sm11  1  0.25174554  0.74529160  0.74901944  1
  Sb  Sb12  1  0.75086592  0.74344784  0.74838051  1
  Sb  Sb13  1  0.24913408  0.25655216  0.74838051  1
  Sb  Sb14  1  0.24913408  0.74344784  0.25161949  1
  Sb  Sb15  1  0.75086592  0.25655216  0.25161949  1
  O  O16  1  0.98511666  0.22703105  0.28151231  1
  O  O17  1  0.01488334  0.77296895  0.28151231  1
  O  O18  1  0.01488334  0.22703105  0.71848769  1
  O  O19  1  0.98511666  0.77296895  0.71848769  1
  O  O20  1  0.27265431  0.98044987  0.21842273  1
  O  O21  1  0.27265431  0.01955013  0.78157727  1
  O  O22  1  0.72734569  0.01955013  0.21842273  1
  O  O23  1  0.72734569  0.98044987  0.78157727  1
  O  O24  1  0.20863523  0.29759263  0.98239702  1
  O  O25  1  0.79136477  0.29759263  0.01760298  1
  O  O26  1  0.20863523  0.70240737  0.01760298  1
  O  O27  1  0.79136477  0.70240737  0.98239702  1
  O  O28  1  0.51925919  0.29941856  0.20451448  1
  O  O29  1  0.48074081  0.70058144  0.20451448  1
  O  O30  1  0.48074081  0.29941856  0.79548552  1
  O  O31  1  0.51925919  0.70058144  0.79548552  1
  O  O32  1  0.21141169  0.51495737  0.30664465  1
  O  O33  1  0.21141169  0.48504263  0.69335535  1
  O  O34  1  0.78858831  0.48504263  0.30664465  1
  O  O35  1  0.78858831  0.51495737  0.69335535  1
  O  O36  1  0.30249901  0.21158023  0.51788327  1
  O  O37  1  0.69750099  0.21158023  0.48211673  1
  O  O38  1  0.30249901  0.78841977  0.48211673  1
  O  O39  1  0.69750099  0.78841977  0.51788327  1
