# generated using pymatgen
data_BaSrLaSbO6
_symmetry_space_group_name_H-M   'P 1'
_cell_length_a   6.09178103
_cell_length_b   6.13967260
_cell_length_c   8.64324776
_cell_angle_alpha   90.36931257
_cell_angle_beta   90.45222144
_cell_angle_gamma   89.98499631
_symmetry_Int_Tables_number   1
_chemical_formula_structural   BaSrLaSbO6
_chemical_formula_sum   'Ba2 Sr2 La2 Sb2 O12'
_cell_volume   323.25399417
_cell_formula_units_Z   2
loop_
 _symmetry_equiv_pos_site_id
 _symmetry_equiv_pos_as_xyz
  1  'x, y, z'
loop_
 _atom_site_type_symbol
 _atom_site_label
 _atom_site_symmetry_multiplicity
 _atom_site_fract_x
 _atom_site_fract_y
 _atom_site_fract_z
 _atom_site_occupancy
  Ba  Ba0  1  0.50665358  0.52767140  0.25000716  1
  Ba  Ba1  1  0.49334642  0.47232860  0.74999284  1
  Sr  Sr2  1  0.99210570  0.03715711  0.25210854  1
  Sr  Sr3  1  0.00789430  0.96284289  0.74789146  1
  La  La4  1  0.00000000  0.50000000  0.00000000  1
  La  La5  1  0.50000000  0.00000000  0.50000000  1
  Sb  Sb6  1  0.50000000  0.00000000  0.00000000  1
  Sb  Sb7  1  0.00000000  0.50000000  0.50000000  1
  O  O8  1  0.23624996  0.19318588  0.95564539  1
  O  O9  1  0.26310271  0.69785816  0.53125688  1
  O  O10  1  0.76375004  0.80681412  0.04435461  1
  O  O11  1  0.73689729  0.30214184  0.46874312  1
  O  O12  1  0.30354018  0.73777404  0.96109846  1
  O  O13  1  0.18730923  0.23148703  0.54238979  1
  O  O14  1  0.69645982  0.26222596  0.03890154  1
  O  O15  1  0.81269077  0.76851297  0.45761021  1
  O  O16  1  0.41593291  0.99242182  0.22792429  1
  O  O17  1  0.06289584  0.46594221  0.27112872  1
  O  O18  1  0.58406709  0.00757818  0.77207571  1
  O  O19  1  0.93710416  0.53405779  0.72887128  1
