# generated using pymatgen
data_BaSrCeSbO6
_symmetry_space_group_name_H-M   'P 1'
_cell_length_a   8.54544365
_cell_length_b   8.54992272
_cell_length_c   8.56177259
_cell_angle_alpha   90.00000000
_cell_angle_beta   90.00000000
_cell_angle_gamma   90.00000000
_symmetry_Int_Tables_number   1
_chemical_formula_structural   BaSrCeSbO6
_chemical_formula_sum   'Ba4 Sr4 Ce4 Sb4 O24'
_cell_volume   625.54778744
_cell_formula_units_Z   4
loop_
 _symmetry_equiv_pos_site_id
 _symmetry_equiv_pos_as_xyz
  1  'x, y, z'
loop_
 _atom_site_type_symbol
 _atom_site_label
 _atom_site_symmetry_multiplicity
 _atom_site_fract_x
 _atom_site_fract_y
 _atom_site_fract_z
 _atom_site_occupancy
  Ba  Ba0  1  -0.00000000  -0.00000000  0.00000000  1
  Ba  Ba1  1  0.50000000  0.50000000  0.50000000  1
  Ba  Ba2  1  -0.00000000  0.50000000  0.50000000  1
  Ba  Ba3  1  0.00000000  -0.00000000  0.50000000  1
  Sr  Sr4  1  0.50000000  -0.00000000  0.50000000  1
  Sr  Sr5  1  0.50000000  0.50000000  0.00000000  1
  Sr  Sr6  1  0.50000000  -0.00000000  0.00000000  1
  Sr  Sr7  1  0.00000000  0.50000000  0.00000000  1
  Ce  Ce8  1  0.74870610  0.74935968  0.75213667  1
  Ce  Ce9  1  0.25129390  0.25064032  0.75213667  1
  Ce  Ce10  1  0.25129390  0.74935968  0.24786333  1
  Ce  Ce11  1  0.74870610  0.25064032  0.24786333  1
  Sb  Sb12  1  0.25172403  0.25091087  0.24735034  1
  Sb  Sb13  1  0.74827597  0.74908913  0.24735034  1
  Sb  Sb14  1  0.74827597  0.25091087  0.75264966  1
  Sb  Sb15  1  0.25172403  0.74908913  0.75264966  1
  O  O16  1  0.01721436  0.21808855  0.27624625  1
  O  O17  1  0.98278564  0.78191145  0.27624625  1
  O  O18  1  0.98278564  0.21808855  0.72375375  1
  O  O19  1  0.01721436  0.78191145  0.72375375  1
  O  O20  1  0.28616859  0.01649154  0.20934279  1
  O  O21  1  0.28616859  0.98350846  0.79065721  1
  O  O22  1  0.71383141  0.98350846  0.20934279  1
  O  O23  1  0.71383141  0.01649154  0.79065721  1
  O  O24  1  0.21148368  0.28508811  0.01529362  1
  O  O25  1  0.78851632  0.28508811  0.98470638  1
  O  O26  1  0.21148368  0.71491189  0.98470638  1
  O  O27  1  0.78851632  0.71491189  0.01529362  1
  O  O28  1  0.48496044  0.28900389  0.21220885  1
  O  O29  1  0.51503956  0.71099611  0.21220885  1
  O  O30  1  0.51503956  0.28900389  0.78779115  1
  O  O31  1  0.48496044  0.71099611  0.78779115  1
  O  O32  1  0.22417638  0.48421909  0.28201892  1
  O  O33  1  0.22417638  0.51578091  0.71798108  1
  O  O34  1  0.77582362  0.51578091  0.28201892  1
  O  O35  1  0.77582362  0.48421909  0.71798108  1
  O  O36  1  0.29001655  0.21605655  0.48167219  1
  O  O37  1  0.70998345  0.21605655  0.51832781  1
  O  O38  1  0.29001655  0.78394345  0.51832781  1
  O  O39  1  0.70998345  0.78394345  0.48167219  1
