# generated using pymatgen
data_KTbTi4O12
_symmetry_space_group_name_H-M   'P 1'
_cell_length_a   5.47870202
_cell_length_b   5.47870202
_cell_length_c   7.77381827
_cell_angle_alpha   90.00000000
_cell_angle_beta   90.00000000
_cell_angle_gamma   90.03216572
_symmetry_Int_Tables_number   1
_chemical_formula_structural   KTbTi4O12
_chemical_formula_sum   'K1 Tb1 Ti4 O12'
_cell_volume   233.34025891
_cell_formula_units_Z   1
loop_
 _symmetry_equiv_pos_site_id
 _symmetry_equiv_pos_as_xyz
  1  'x, y, z'
loop_
 _atom_site_type_symbol
 _atom_site_label
 _atom_site_symmetry_multiplicity
 _atom_site_fract_x
 _atom_site_fract_y
 _atom_site_fract_z
 _atom_site_occupancy
  K  K0  1  0.98949891  0.01050109  0.00000000  1
  Tb  Tb1  1  0.52156473  0.47843527  0.50000000  1
  Ti  Ti2  1  0.49596898  0.99065779  0.24327894  1
  Ti  Ti3  1  0.49596898  0.99065779  0.75672106  1
  Ti  Ti4  1  0.00934221  0.50403102  0.75672106  1
  Ti  Ti5  1  0.00934221  0.50403102  0.24327894  1
  O  O6  1  0.24860078  0.25045991  0.27101316  1
  O  O7  1  0.74954009  0.75139922  0.27101316  1
  O  O8  1  0.74954009  0.75139922  0.72898684  1
  O  O9  1  0.24860078  0.25045991  0.72898684  1
  O  O10  1  0.27027933  0.72972067  0.29269834  1
  O  O11  1  0.73203046  0.26796954  0.25518389  1
  O  O12  1  0.73203046  0.26796954  0.74481611  1
  O  O13  1  0.27027933  0.72972067  0.70730166  1
  O  O14  1  0.48621134  0.98919028  0.00000000  1
  O  O15  1  0.51761759  0.04452599  0.50000000  1
  O  O16  1  0.01080972  0.51378866  0.00000000  1
  O  O17  1  0.95547401  0.48238241  0.50000000  1
