# generated using pymatgen
data_Mg15Mn
_symmetry_space_group_name_H-M   'P 1'
_cell_length_a   6.33735575
_cell_length_b   6.33735575
_cell_length_c   10.16098700
_cell_angle_alpha   90.00000000
_cell_angle_beta   90.00000000
_cell_angle_gamma   119.99999739
_symmetry_Int_Tables_number   1
_chemical_formula_structural   Mg15Mn
_chemical_formula_sum   'Mg15 Mn1'
_cell_volume   353.41315658
_cell_formula_units_Z   1
loop_
 _symmetry_equiv_pos_site_id
 _symmetry_equiv_pos_as_xyz
  1  'x, y, z'
loop_
 _atom_site_type_symbol
 _atom_site_label
 _atom_site_symmetry_multiplicity
 _atom_site_fract_x
 _atom_site_fract_y
 _atom_site_fract_z
 _atom_site_occupancy
  Mg  Mg0  1  0.00000000  0.00000000  0.50000000  1
  Mg  Mg1  1  0.00024000  0.50012000  0.00000000  1
  Mg  Mg2  1  0.00023500  0.50011800  0.50000000  1
  Mg  Mg3  1  0.49988000  0.50012000  0.00000000  1
  Mg  Mg4  1  0.49988200  0.50011800  0.50000000  1
  Mg  Mg5  1  0.49988000  0.99976000  0.00000000  1
  Mg  Mg6  1  0.49988200  0.99976500  0.50000000  1
  Mg  Mg7  1  0.16406700  0.32813300  0.75404000  1
  Mg  Mg8  1  0.16406700  0.32813300  0.24596000  1
  Mg  Mg9  1  0.16406700  0.83593300  0.75404000  1
  Mg  Mg10  1  0.16406700  0.83593300  0.24596000  1
  Mg  Mg11  1  0.67186700  0.83593300  0.75404000  1
  Mg  Mg12  1  0.67186700  0.83593300  0.24596000  1
  Mg  Mg13  1  0.66666700  0.33333300  0.74913000  1
  Mg  Mg14  1  0.66666700  0.33333300  0.25087000  1
  Mn  Mn15  1  0.00000000  0.00000000  0.00000000  1
