# generated using pymatgen
data_Sr2BiSbO6
_symmetry_space_group_name_H-M   'P 1'
_cell_length_a   8.51344811
_cell_length_b   8.51344811
_cell_length_c   8.51344811
_cell_angle_alpha   90.00000000
_cell_angle_beta   90.00000000
_cell_angle_gamma   90.00000000
_symmetry_Int_Tables_number   1
_chemical_formula_structural   Sr2BiSbO6
_chemical_formula_sum   'Sr8 Bi4 Sb4 O24'
_cell_volume   617.04449199
_cell_formula_units_Z   4
loop_
 _symmetry_equiv_pos_site_id
 _symmetry_equiv_pos_as_xyz
  1  'x, y, z'
loop_
 _atom_site_type_symbol
 _atom_site_label
 _atom_site_symmetry_multiplicity
 _atom_site_fract_x
 _atom_site_fract_y
 _atom_site_fract_z
 _atom_site_occupancy
  Sr  Sr0  1  0.50000000  0.50000000  0.50000000  1
  Sr  Sr1  1  0.00000000  -0.00000000  0.00000000  1
  Sr  Sr2  1  0.00000000  -0.00000000  0.50000000  1
  Sr  Sr3  1  0.00000000  0.50000000  0.00000000  1
  Sr  Sr4  1  0.50000000  -0.00000000  0.00000000  1
  Sr  Sr5  1  0.50000000  0.50000000  0.00000000  1
  Sr  Sr6  1  0.50000000  -0.00000000  0.50000000  1
  Sr  Sr7  1  0.00000000  0.50000000  0.50000000  1
  Bi  Bi8  1  0.75000000  0.75000000  0.75000000  1
  Bi  Bi9  1  0.75000000  0.25000000  0.25000000  1
  Bi  Bi10  1  0.25000000  0.75000000  0.25000000  1
  Bi  Bi11  1  0.25000000  0.25000000  0.75000000  1
  Sb  Sb12  1  0.25000000  0.25000000  0.25000000  1
  Sb  Sb13  1  0.25000000  0.75000000  0.75000000  1
  Sb  Sb14  1  0.75000000  0.25000000  0.75000000  1
  Sb  Sb15  1  0.75000000  0.75000000  0.25000000  1
  O  O16  1  0.21407087  0.29448809  0.48110362  1
  O  O17  1  0.21407087  0.70551191  0.51889638  1
  O  O18  1  0.78592913  0.29448809  0.51889638  1
  O  O19  1  0.78592913  0.70551191  0.48110362  1
  O  O20  1  0.29448809  0.48110362  0.21407087  1
  O  O21  1  0.70551191  0.51889638  0.21407087  1
  O  O22  1  0.29448809  0.51889638  0.78592913  1
  O  O23  1  0.70551191  0.48110362  0.78592913  1
  O  O24  1  0.48110362  0.21407087  0.29448809  1
  O  O25  1  0.51889638  0.21407087  0.70551191  1
  O  O26  1  0.51889638  0.78592913  0.29448809  1
  O  O27  1  0.48110362  0.78592913  0.70551191  1
  O  O28  1  0.28592913  0.20551191  0.01889638  1
  O  O29  1  0.28592913  0.79448809  0.98110362  1
  O  O30  1  0.71407087  0.20551191  0.98110362  1
  O  O31  1  0.71407087  0.79448809  0.01889638  1
  O  O32  1  0.20551191  0.01889638  0.28592913  1
  O  O33  1  0.79448809  0.98110362  0.28592913  1
  O  O34  1  0.20551191  0.98110362  0.71407087  1
  O  O35  1  0.79448809  0.01889638  0.71407087  1
  O  O36  1  0.01889638  0.28592913  0.20551191  1
  O  O37  1  0.98110362  0.28592913  0.79448809  1
  O  O38  1  0.98110362  0.71407087  0.20551191  1
  O  O39  1  0.01889638  0.71407087  0.79448809  1
