# generated using pymatgen
data_BaCaSnWO6
_symmetry_space_group_name_H-M   'P 1'
_cell_length_a   8.40906183
_cell_length_b   8.49006723
_cell_length_c   8.41262214
_cell_angle_alpha   90.00000000
_cell_angle_beta   90.00000000
_cell_angle_gamma   90.00000000
_symmetry_Int_Tables_number   1
_chemical_formula_structural   BaCaSnWO6
_chemical_formula_sum   'Ba4 Ca4 Sn4 W4 O24'
_cell_volume   600.60654109
_cell_formula_units_Z   4
loop_
 _symmetry_equiv_pos_site_id
 _symmetry_equiv_pos_as_xyz
  1  'x, y, z'
loop_
 _atom_site_type_symbol
 _atom_site_label
 _atom_site_symmetry_multiplicity
 _atom_site_fract_x
 _atom_site_fract_y
 _atom_site_fract_z
 _atom_site_occupancy
  Ba  Ba0  1  0.00000000  0.00000000  -0.00000000  1
  Ba  Ba1  1  0.50000000  0.50000000  0.50000000  1
  Ba  Ba2  1  0.50000000  0.00000000  0.50000000  1
  Ba  Ba3  1  0.00000000  0.00000000  0.50000000  1
  Ca  Ca4  1  0.75005818  0.74495209  0.75425350  1
  Ca  Ca5  1  0.24994182  0.25504791  0.75425350  1
  Ca  Ca6  1  0.24994182  0.74495209  0.24574650  1
  Ca  Ca7  1  0.75005818  0.25504791  0.24574650  1
  Sn  Sn8  1  0.00000000  0.50000000  0.50000000  1
  Sn  Sn9  1  0.50000000  0.50000000  -0.00000000  1
  Sn  Sn10  1  0.50000000  0.00000000  -0.00000000  1
  Sn  Sn11  1  0.00000000  0.50000000  -0.00000000  1
  W  W12  1  0.24686252  0.25513167  0.24826587  1
  W  W13  1  0.75313748  0.74486833  0.24826587  1
  W  W14  1  0.75313748  0.25513167  0.75173413  1
  W  W15  1  0.24686252  0.74486833  0.75173413  1
  O  O16  1  0.02063259  0.21498125  0.27154566  1
  O  O17  1  0.97936741  0.78501875  0.27154566  1
  O  O18  1  0.97936741  0.21498125  0.72845434  1
  O  O19  1  0.02063259  0.78501875  0.72845434  1
  O  O20  1  0.28492556  0.02641325  0.21036062  1
  O  O21  1  0.28492556  0.97358675  0.78963938  1
  O  O22  1  0.71507444  0.97358675  0.21036062  1
  O  O23  1  0.71507444  0.02641325  0.78963938  1
  O  O24  1  0.20849189  0.29080332  0.02105614  1
  O  O25  1  0.79150811  0.29080332  0.97894386  1
  O  O26  1  0.20849189  0.70919668  0.97894386  1
  O  O27  1  0.79150811  0.70919668  0.02105614  1
  O  O28  1  0.47608541  0.29452764  0.21482253  1
  O  O29  1  0.52391459  0.70547236  0.21482253  1
  O  O30  1  0.52391459  0.29452764  0.78517747  1
  O  O31  1  0.47608541  0.70547236  0.78517747  1
  O  O32  1  0.21323010  0.47950356  0.29233138  1
  O  O33  1  0.21323010  0.52049644  0.70766862  1
  O  O34  1  0.78676990  0.52049644  0.29233138  1
  O  O35  1  0.78676990  0.47950356  0.70766862  1
  O  O36  1  0.27960842  0.22372692  0.47636398  1
  O  O37  1  0.72039158  0.22372692  0.52363602  1
  O  O38  1  0.27960842  0.77627308  0.52363602  1
  O  O39  1  0.72039158  0.77627308  0.47636398  1
