# generated using pymatgen
data_BaEu(SnO3)4
_symmetry_space_group_name_H-M   'P 1'
_cell_length_a   6.02271492
_cell_length_b   6.02271492
_cell_length_c   8.53224882
_cell_angle_alpha   90.00000000
_cell_angle_beta   90.00000000
_cell_angle_gamma   89.83746311
_symmetry_Int_Tables_number   1
_chemical_formula_structural   BaEu(SnO3)4
_chemical_formula_sum   'Ba1 Eu1 Sn4 O12'
_cell_volume   309.48982719
_cell_formula_units_Z   1
loop_
 _symmetry_equiv_pos_site_id
 _symmetry_equiv_pos_as_xyz
  1  'x, y, z'
loop_
 _atom_site_type_symbol
 _atom_site_label
 _atom_site_symmetry_multiplicity
 _atom_site_fract_x
 _atom_site_fract_y
 _atom_site_fract_z
 _atom_site_occupancy
  Ba  Ba0  1  0.50000000  0.50000000  0.00000000  1
  Eu  Eu1  1  0.00000000  -0.00000000  0.50000000  1
  Sn  Sn2  1  0.00000000  0.50000000  0.24965063  1
  Sn  Sn3  1  0.00000000  0.50000000  0.75034937  1
  Sn  Sn4  1  0.50000000  -0.00000000  0.24965063  1
  Sn  Sn5  1  0.50000000  -0.00000000  0.75034937  1
  O  O6  1  0.26108810  0.26108810  0.25183490  1
  O  O7  1  0.26108810  0.26108810  0.74816510  1
  O  O8  1  0.73891190  0.73891190  0.25183490  1
  O  O9  1  0.73891190  0.73891190  0.74816510  1
  O  O10  1  0.76552192  0.23447808  0.25281206  1
  O  O11  1  0.76552192  0.23447808  0.74718794  1
  O  O12  1  0.23447808  0.76552192  0.25281206  1
  O  O13  1  0.23447808  0.76552192  0.74718794  1
  O  O14  1  0.00000000  0.50000000  -0.00000000  1
  O  O15  1  0.00000000  0.50000000  0.50000000  1
  O  O16  1  0.50000000  -0.00000000  0.00000000  1
  O  O17  1  0.50000000  -0.00000000  0.50000000  1
