# generated using pymatgen
data_KSmHf4O12
_symmetry_space_group_name_H-M   'P 1'
_cell_length_a   5.78293655
_cell_length_b   5.78293655
_cell_length_c   8.23992536
_cell_angle_alpha   90.00000000
_cell_angle_beta   90.00000000
_cell_angle_gamma   90.74732548
_symmetry_Int_Tables_number   1
_chemical_formula_structural   KSmHf4O12
_chemical_formula_sum   'K1 Sm1 Hf4 O12'
_cell_volume   275.53907014
_cell_formula_units_Z   1
loop_
 _symmetry_equiv_pos_site_id
 _symmetry_equiv_pos_as_xyz
  1  'x, y, z'
loop_
 _atom_site_type_symbol
 _atom_site_label
 _atom_site_symmetry_multiplicity
 _atom_site_fract_x
 _atom_site_fract_y
 _atom_site_fract_z
 _atom_site_occupancy
  K  K0  1  0.98057437  0.01942563  -0.00000000  1
  Sm  Sm1  1  0.52430460  0.47569540  0.50000000  1
  Hf  Hf2  1  0.49273222  0.99066803  0.24582479  1
  Hf  Hf3  1  0.49273222  0.99066803  0.75417521  1
  Hf  Hf4  1  0.00933197  0.50726778  0.75417521  1
  Hf  Hf5  1  0.00933197  0.50726778  0.24582479  1
  O  O6  1  0.23513406  0.23496792  0.26878259  1
  O  O7  1  0.76503208  0.76486594  0.26878259  1
  O  O8  1  0.76503208  0.76486594  0.73121741  1
  O  O9  1  0.23513406  0.23496792  0.73121741  1
  O  O10  1  0.29258704  0.70741296  0.30910337  1
  O  O11  1  0.72347066  0.27652934  0.25443428  1
  O  O12  1  0.72347066  0.27652934  0.74556572  1
  O  O13  1  0.29258704  0.70741296  0.69089663  1
  O  O14  1  0.47567205  0.98204389  -0.00000000  1
  O  O15  1  0.51528361  0.06476680  0.50000000  1
  O  O16  1  0.01795611  0.52432795  -0.00000000  1
  O  O17  1  0.93523320  0.48471639  0.50000000  1
