# generated using pymatgen
data_BaCaSnWO6
_symmetry_space_group_name_H-M   'P 1'
_cell_length_a   5.92549695
_cell_length_b   5.95917947
_cell_length_c   8.47827838
_cell_angle_alpha   89.86772304
_cell_angle_beta   89.82509879
_cell_angle_gamma   90.66593822
_symmetry_Int_Tables_number   1
_chemical_formula_structural   BaCaSnWO6
_chemical_formula_sum   'Ba2 Ca2 Sn2 W2 O12'
_cell_volume   299.35489532
_cell_formula_units_Z   2
loop_
 _symmetry_equiv_pos_site_id
 _symmetry_equiv_pos_as_xyz
  1  'x, y, z'
loop_
 _atom_site_type_symbol
 _atom_site_label
 _atom_site_symmetry_multiplicity
 _atom_site_fract_x
 _atom_site_fract_y
 _atom_site_fract_z
 _atom_site_occupancy
  Ba  Ba0  1  0.50477354  0.52254448  0.25148794  1
  Ba  Ba1  1  0.49522646  0.47745552  0.74851206  1
  Ca  Ca2  1  -0.00000000  0.50000000  -0.00000000  1
  Ca  Ca3  1  0.50000000  0.00000000  0.50000000  1
  Sn  Sn4  1  0.00463874  0.02580988  0.25392604  1
  Sn  Sn5  1  0.99536126  0.97419012  0.74607396  1
  W  W6  1  0.50000000  0.00000000  -0.00000000  1
  W  W7  1  -0.00000000  0.50000000  0.50000000  1
  O  O8  1  0.24190628  0.18994587  0.94801369  1
  O  O9  1  0.26714884  0.69040527  0.51942525  1
  O  O10  1  0.75809372  0.81005413  0.05198631  1
  O  O11  1  0.73285116  0.30959473  0.48057475  1
  O  O12  1  0.31259217  0.73587817  0.96908041  1
  O  O13  1  0.18408611  0.23108052  0.54218153  1
  O  O14  1  0.68740783  0.26412183  0.03091959  1
  O  O15  1  0.81591389  0.76891948  0.45781847  1
  O  O16  1  0.40462199  0.00205355  0.22585663  1
  O  O17  1  0.05421587  0.46455518  0.27313809  1
  O  O18  1  0.59537801  0.99794645  0.77414337  1
  O  O19  1  0.94578413  0.53544482  0.72686191  1
