# generated using pymatgen
data_SrEuDyNbO6
_symmetry_space_group_name_H-M   'P 1'
_cell_length_a   8.39123960
_cell_length_b   8.40589202
_cell_length_c   8.40021042
_cell_angle_alpha   90.00000000
_cell_angle_beta   90.00000000
_cell_angle_gamma   90.00000000
_symmetry_Int_Tables_number   1
_chemical_formula_structural   SrEuDyNbO6
_chemical_formula_sum   'Sr4 Eu4 Dy4 Nb4 O24'
_cell_volume   592.51601568
_cell_formula_units_Z   4
loop_
 _symmetry_equiv_pos_site_id
 _symmetry_equiv_pos_as_xyz
  1  'x, y, z'
loop_
 _atom_site_type_symbol
 _atom_site_label
 _atom_site_symmetry_multiplicity
 _atom_site_fract_x
 _atom_site_fract_y
 _atom_site_fract_z
 _atom_site_occupancy
  Sr  Sr0  1  0.00000000  0.50000000  0.50000000  1
  Sr  Sr1  1  0.50000000  -0.00000000  0.50000000  1
  Sr  Sr2  1  0.50000000  0.50000000  -0.00000000  1
  Sr  Sr3  1  0.00000000  -0.00000000  0.50000000  1
  Eu  Eu4  1  0.50000000  -0.00000000  0.00000000  1
  Eu  Eu5  1  0.00000000  0.50000000  0.00000000  1
  Eu  Eu6  1  0.00000000  -0.00000000  -0.00000000  1
  Eu  Eu7  1  0.50000000  0.50000000  0.50000000  1
  Dy  Dy8  1  0.75005629  0.74992908  0.75008185  1
  Dy  Dy9  1  0.24994371  0.25007092  0.75008185  1
  Dy  Dy10  1  0.24994371  0.74992908  0.24991815  1
  Dy  Dy11  1  0.75005629  0.25007092  0.24991815  1
  Nb  Nb12  1  0.24976431  0.25023656  0.24981717  1
  Nb  Nb13  1  0.75023569  0.74976344  0.24981717  1
  Nb  Nb14  1  0.75023569  0.25023656  0.75018283  1
  Nb  Nb15  1  0.24976431  0.74976344  0.75018283  1
  O  O16  1  0.01384804  0.20827770  0.28389343  1
  O  O17  1  0.98615196  0.79172230  0.28389343  1
  O  O18  1  0.98615196  0.20827770  0.71610657  1
  O  O19  1  0.01384804  0.79172230  0.71610657  1
  O  O20  1  0.28540428  0.01365173  0.20674021  1
  O  O21  1  0.28540428  0.98634827  0.79325979  1
  O  O22  1  0.71459572  0.98634827  0.20674021  1
  O  O23  1  0.71459572  0.01365173  0.79325979  1
  O  O24  1  0.20662121  0.28579776  0.01347156  1
  O  O25  1  0.79337879  0.28579776  0.98652844  1
  O  O26  1  0.20662121  0.71420224  0.98652844  1
  O  O27  1  0.79337879  0.71420224  0.01347156  1
  O  O28  1  0.48628680  0.29095017  0.21520280  1
  O  O29  1  0.51371320  0.70904983  0.21520280  1
  O  O30  1  0.51371320  0.29095017  0.78479720  1
  O  O31  1  0.48628680  0.70904983  0.78479720  1
  O  O32  1  0.21583199  0.48635603  0.29052346  1
  O  O33  1  0.21583199  0.51364397  0.70947654  1
  O  O34  1  0.78416801  0.51364397  0.29052346  1
  O  O35  1  0.78416801  0.48635603  0.70947654  1
  O  O36  1  0.29109173  0.21612553  0.48595203  1
  O  O37  1  0.70890827  0.21612553  0.51404797  1
  O  O38  1  0.29109173  0.78387447  0.51404797  1
  O  O39  1  0.70890827  0.78387447  0.48595203  1
