# generated using pymatgen
data_BaEuNbBiO6
_symmetry_space_group_name_H-M   'P 1'
_cell_length_a   8.60885704
_cell_length_b   8.57019902
_cell_length_c   8.62113228
_cell_angle_alpha   90.00000000
_cell_angle_beta   90.00000000
_cell_angle_gamma   90.00000000
_symmetry_Int_Tables_number   1
_chemical_formula_structural   BaEuNbBiO6
_chemical_formula_sum   'Ba4 Eu4 Nb4 Bi4 O24'
_cell_volume   636.06384779
_cell_formula_units_Z   4
loop_
 _symmetry_equiv_pos_site_id
 _symmetry_equiv_pos_as_xyz
  1  'x, y, z'
loop_
 _atom_site_type_symbol
 _atom_site_label
 _atom_site_symmetry_multiplicity
 _atom_site_fract_x
 _atom_site_fract_y
 _atom_site_fract_z
 _atom_site_occupancy
  Ba  Ba0  1  0.00000000  0.00000000  0.00000000  1
  Ba  Ba1  1  0.50000000  0.50000000  0.50000000  1
  Ba  Ba2  1  0.50000000  0.00000000  0.50000000  1
  Ba  Ba3  1  0.50000000  0.50000000  0.00000000  1
  Eu  Eu4  1  0.00000000  0.50000000  0.50000000  1
  Eu  Eu5  1  0.50000000  0.00000000  0.00000000  1
  Eu  Eu6  1  0.00000000  0.50000000  0.00000000  1
  Eu  Eu7  1  0.00000000  0.00000000  0.50000000  1
  Nb  Nb8  1  0.24528945  0.24945194  0.24922059  1
  Nb  Nb9  1  0.75471055  0.75054806  0.24922059  1
  Nb  Nb10  1  0.75471055  0.24945194  0.75077941  1
  Nb  Nb11  1  0.24528945  0.75054806  0.75077941  1
  Bi  Bi12  1  0.75774739  0.74948503  0.74765117  1
  Bi  Bi13  1  0.24225261  0.25051497  0.74765117  1
  Bi  Bi14  1  0.24225261  0.74948503  0.25234883  1
  Bi  Bi15  1  0.75774739  0.25051497  0.25234883  1
  O  O16  1  0.01420775  0.19684503  0.28950940  1
  O  O17  1  0.98579225  0.80315497  0.28950940  1
  O  O18  1  0.98579225  0.19684503  0.71049060  1
  O  O19  1  0.01420775  0.80315497  0.71049060  1
  O  O20  1  0.28582536  0.02238517  0.19965686  1
  O  O21  1  0.28582536  0.97761483  0.80034314  1
  O  O22  1  0.71417464  0.97761483  0.19965686  1
  O  O23  1  0.71417464  0.02238517  0.80034314  1
  O  O24  1  0.19777800  0.29509413  0.02467867  1
  O  O25  1  0.80222200  0.29509413  0.97532133  1
  O  O26  1  0.19777800  0.70490587  0.97532133  1
  O  O27  1  0.80222200  0.70490587  0.02467867  1
  O  O28  1  0.47431911  0.28524898  0.22795082  1
  O  O29  1  0.52568089  0.71475102  0.22795082  1
  O  O30  1  0.52568089  0.28524898  0.77204918  1
  O  O31  1  0.47431911  0.71475102  0.77204918  1
  O  O32  1  0.20345843  0.48200200  0.29340876  1
  O  O33  1  0.20345843  0.51799800  0.70659124  1
  O  O34  1  0.79654157  0.51799800  0.29340876  1
  O  O35  1  0.79654157  0.48200200  0.70659124  1
  O  O36  1  0.27338439  0.21789727  0.48562306  1
  O  O37  1  0.72661561  0.21789727  0.51437694  1
  O  O38  1  0.27338439  0.78210273  0.51437694  1
  O  O39  1  0.72661561  0.78210273  0.48562306  1
