# generated using pymatgen
data_SrEuNbBiO6
_symmetry_space_group_name_H-M   'P 1'
_cell_length_a   5.89306403
_cell_length_b   6.09199837
_cell_length_c   8.44556752
_cell_angle_alpha   89.87627688
_cell_angle_beta   90.31253940
_cell_angle_gamma   89.92342629
_symmetry_Int_Tables_number   1
_chemical_formula_structural   SrEuNbBiO6
_chemical_formula_sum   'Sr2 Eu2 Nb2 Bi2 O12'
_cell_volume   303.19491114
_cell_formula_units_Z   2
loop_
 _symmetry_equiv_pos_site_id
 _symmetry_equiv_pos_as_xyz
  1  'x, y, z'
loop_
 _atom_site_type_symbol
 _atom_site_label
 _atom_site_symmetry_multiplicity
 _atom_site_fract_x
 _atom_site_fract_y
 _atom_site_fract_z
 _atom_site_occupancy
  Sr  Sr0  1  0.98770231  0.05223205  0.25034421  1
  Sr  Sr1  1  0.01229769  0.94776795  0.74965579  1
  Eu  Eu2  1  0.51678015  0.55431715  0.24841523  1
  Eu  Eu3  1  0.48321985  0.44568285  0.75158477  1
  Nb  Nb4  1  0.50000000  0.00000000  -0.00000000  1
  Nb  Nb5  1  -0.00000000  0.50000000  0.50000000  1
  Bi  Bi6  1  -0.00000000  0.50000000  -0.00000000  1
  Bi  Bi7  1  0.50000000  0.00000000  0.50000000  1
  O  O8  1  0.21945006  0.18319020  0.94867825  1
  O  O9  1  0.27956366  0.68302673  0.55706289  1
  O  O10  1  0.78054994  0.81680980  0.05132175  1
  O  O11  1  0.72043634  0.31697327  0.44293711  1
  O  O12  1  0.32647191  0.71846588  0.94037167  1
  O  O13  1  0.17584085  0.22117421  0.55802049  1
  O  O14  1  0.67352809  0.28153412  0.05962833  1
  O  O15  1  0.82415915  0.77882579  0.44197951  1
  O  O16  1  0.39681276  0.95754490  0.22874442  1
  O  O17  1  0.11189895  0.46538091  0.27187447  1
  O  O18  1  0.60318724  0.04245510  0.77125558  1
  O  O19  1  0.88810105  0.53461909  0.72812553  1
