# generated using pymatgen
data_Ba2CeHfO6
_symmetry_space_group_name_H-M   'P 1'
_cell_length_a   8.66002558
_cell_length_b   8.66002558
_cell_length_c   8.66002558
_cell_angle_alpha   90.00000000
_cell_angle_beta   90.00000000
_cell_angle_gamma   90.00000000
_symmetry_Int_Tables_number   1
_chemical_formula_structural   Ba2CeHfO6
_chemical_formula_sum   'Ba8 Ce4 Hf4 O24'
_cell_volume   649.46765118
_cell_formula_units_Z   4
loop_
 _symmetry_equiv_pos_site_id
 _symmetry_equiv_pos_as_xyz
  1  'x, y, z'
loop_
 _atom_site_type_symbol
 _atom_site_label
 _atom_site_symmetry_multiplicity
 _atom_site_fract_x
 _atom_site_fract_y
 _atom_site_fract_z
 _atom_site_occupancy
  Ba  Ba0  1  0.50000000  0.50000000  0.50000000  1
  Ba  Ba1  1  0.00000000  -0.00000000  0.00000000  1
  Ba  Ba2  1  -0.00000000  -0.00000000  0.50000000  1
  Ba  Ba3  1  -0.00000000  0.50000000  0.00000000  1
  Ba  Ba4  1  0.50000000  -0.00000000  0.00000000  1
  Ba  Ba5  1  0.50000000  0.50000000  0.00000000  1
  Ba  Ba6  1  0.50000000  -0.00000000  0.50000000  1
  Ba  Ba7  1  -0.00000000  0.50000000  0.50000000  1
  Ce  Ce8  1  0.75000000  0.75000000  0.75000000  1
  Ce  Ce9  1  0.75000000  0.25000000  0.25000000  1
  Ce  Ce10  1  0.25000000  0.75000000  0.25000000  1
  Ce  Ce11  1  0.25000000  0.25000000  0.75000000  1
  Hf  Hf12  1  0.25000000  0.25000000  0.25000000  1
  Hf  Hf13  1  0.25000000  0.75000000  0.75000000  1
  Hf  Hf14  1  0.75000000  0.25000000  0.75000000  1
  Hf  Hf15  1  0.75000000  0.75000000  0.25000000  1
  O  O16  1  0.23094133  0.27074288  0.49089691  1
  O  O17  1  0.23094133  0.72925712  0.50910309  1
  O  O18  1  0.76905867  0.27074288  0.50910309  1
  O  O19  1  0.76905867  0.72925712  0.49089691  1
  O  O20  1  0.27074288  0.49089691  0.23094133  1
  O  O21  1  0.72925712  0.50910309  0.23094133  1
  O  O22  1  0.27074288  0.50910309  0.76905867  1
  O  O23  1  0.72925712  0.49089691  0.76905867  1
  O  O24  1  0.49089691  0.23094133  0.27074288  1
  O  O25  1  0.50910309  0.23094133  0.72925712  1
  O  O26  1  0.50910309  0.76905867  0.27074288  1
  O  O27  1  0.49089691  0.76905867  0.72925712  1
  O  O28  1  0.26905867  0.22925712  0.00910309  1
  O  O29  1  0.26905867  0.77074288  0.99089691  1
  O  O30  1  0.73094133  0.22925712  0.99089691  1
  O  O31  1  0.73094133  0.77074288  0.00910309  1
  O  O32  1  0.22925712  0.00910309  0.26905867  1
  O  O33  1  0.77074288  0.99089691  0.26905867  1
  O  O34  1  0.22925712  0.99089691  0.73094133  1
  O  O35  1  0.77074288  0.00910309  0.73094133  1
  O  O36  1  0.00910309  0.26905867  0.22925712  1
  O  O37  1  0.99089691  0.26905867  0.77074288  1
  O  O38  1  0.99089691  0.73094133  0.22925712  1
  O  O39  1  0.00910309  0.73094133  0.77074288  1
