# generated using pymatgen
data_KSrZrBiO6
_symmetry_space_group_name_H-M   'P 1'
_cell_length_a   8.42866749
_cell_length_b   8.39295884
_cell_length_c   8.40477449
_cell_angle_alpha   90.00000000
_cell_angle_beta   90.00000000
_cell_angle_gamma   90.00000000
_symmetry_Int_Tables_number   1
_chemical_formula_structural   KSrZrBiO6
_chemical_formula_sum   'K4 Sr4 Zr4 Bi4 O24'
_cell_volume   594.56601267
_cell_formula_units_Z   4
loop_
 _symmetry_equiv_pos_site_id
 _symmetry_equiv_pos_as_xyz
  1  'x, y, z'
loop_
 _atom_site_type_symbol
 _atom_site_label
 _atom_site_symmetry_multiplicity
 _atom_site_fract_x
 _atom_site_fract_y
 _atom_site_fract_z
 _atom_site_occupancy
  K  K0  1  -0.00000000  0.50000000  0.50000000  1
  K  K1  1  0.50000000  0.50000000  0.00000000  1
  K  K2  1  0.50000000  -0.00000000  -0.00000000  1
  K  K3  1  -0.00000000  -0.00000000  0.50000000  1
  Sr  Sr4  1  0.50000000  -0.00000000  0.50000000  1
  Sr  Sr5  1  -0.00000000  0.50000000  0.00000000  1
  Sr  Sr6  1  -0.00000000  -0.00000000  -0.00000000  1
  Sr  Sr7  1  0.50000000  0.50000000  0.50000000  1
  Zr  Zr8  1  0.25000000  0.25000000  0.25000000  1
  Zr  Zr9  1  0.75000000  0.75000000  0.25000000  1
  Zr  Zr10  1  0.75000000  0.25000000  0.75000000  1
  Zr  Zr11  1  0.25000000  0.75000000  0.75000000  1
  Bi  Bi12  1  0.75000000  0.75000000  0.75000000  1
  Bi  Bi13  1  0.25000000  0.25000000  0.75000000  1
  Bi  Bi14  1  0.25000000  0.75000000  0.25000000  1
  Bi  Bi15  1  0.75000000  0.25000000  0.25000000  1
  O  O16  1  0.00160149  0.22919252  0.25810053  1
  O  O17  1  0.99839851  0.77080748  0.25810053  1
  O  O18  1  0.99839851  0.22919252  0.74189947  1
  O  O19  1  0.00160149  0.77080748  0.74189947  1
  O  O20  1  0.26696591  0.00148789  0.23111863  1
  O  O21  1  0.26696591  0.99851211  0.76888137  1
  O  O22  1  0.73303409  0.99851211  0.23111863  1
  O  O23  1  0.73303409  0.00148789  0.76888137  1
  O  O24  1  0.21713091  0.26793198  0.00025968  1
  O  O25  1  0.78286909  0.26793198  0.99974032  1
  O  O26  1  0.21713091  0.73206802  0.99974032  1
  O  O27  1  0.78286909  0.73206802  0.00025968  1
  O  O28  1  0.49839851  0.27080748  0.24189947  1
  O  O29  1  0.50160149  0.72919252  0.24189947  1
  O  O30  1  0.50160149  0.27080748  0.75810053  1
  O  O31  1  0.49839851  0.72919252  0.75810053  1
  O  O32  1  0.23303409  0.49851211  0.26888137  1
  O  O33  1  0.23303409  0.50148789  0.73111863  1
  O  O34  1  0.76696591  0.50148789  0.26888137  1
  O  O35  1  0.76696591  0.49851211  0.73111863  1
  O  O36  1  0.28286909  0.23206802  0.49974032  1
  O  O37  1  0.71713091  0.23206802  0.50025968  1
  O  O38  1  0.28286909  0.76793198  0.50025968  1
  O  O39  1  0.71713091  0.76793198  0.49974032  1
