# generated using pymatgen
data_BaSrEuWO6
_symmetry_space_group_name_H-M   'P 1'
_cell_length_a   6.04005030
_cell_length_b   6.10281028
_cell_length_c   8.58001053
_cell_angle_alpha   89.57044050
_cell_angle_beta   90.43380568
_cell_angle_gamma   89.82971224
_symmetry_Int_Tables_number   1
_chemical_formula_structural   BaSrEuWO6
_chemical_formula_sum   'Ba2 Sr2 Eu2 W2 O12'
_cell_volume   316.25077555
_cell_formula_units_Z   2
loop_
 _symmetry_equiv_pos_site_id
 _symmetry_equiv_pos_as_xyz
  1  'x, y, z'
loop_
 _atom_site_type_symbol
 _atom_site_label
 _atom_site_symmetry_multiplicity
 _atom_site_fract_x
 _atom_site_fract_y
 _atom_site_fract_z
 _atom_site_occupancy
  Ba  Ba0  1  0.99642097  0.02908495  0.24976672  1
  Ba  Ba1  1  0.00357903  0.97091505  0.75023328  1
  Sr  Sr2  1  0.50839267  0.54114474  0.24939882  1
  Sr  Sr3  1  0.49160733  0.45885526  0.75060118  1
  Eu  Eu4  1  -0.00000000  0.50000000  -0.00000000  1
  Eu  Eu5  1  0.50000000  0.00000000  0.50000000  1
  W  W6  1  0.50000000  0.00000000  -0.00000000  1
  W  W7  1  -0.00000000  0.50000000  0.50000000  1
  O  O8  1  0.23688830  0.18965428  0.97203069  1
  O  O9  1  0.25927584  0.68996614  0.54481065  1
  O  O10  1  0.76311170  0.81034572  0.02796931  1
  O  O11  1  0.74072416  0.31003386  0.45518935  1
  O  O12  1  0.31735834  0.73709196  0.95461358  1
  O  O13  1  0.18890796  0.24019217  0.54248483  1
  O  O14  1  0.68264166  0.26290804  0.04538642  1
  O  O15  1  0.81109204  0.75980783  0.45751517  1
  O  O16  1  0.43527732  0.96247587  0.22471458  1
  O  O17  1  0.08527293  0.49209175  0.27678757  1
  O  O18  1  0.56472268  0.03752413  0.77528542  1
  O  O19  1  0.91472707  0.50790825  0.72321243  1
