# generated using pymatgen
data_Sr2LaNbO6
_symmetry_space_group_name_H-M   'P 1'
_cell_length_a   8.56816983
_cell_length_b   8.56816983
_cell_length_c   8.56816983
_cell_angle_alpha   90.00000000
_cell_angle_beta   90.00000000
_cell_angle_gamma   90.00000000
_symmetry_Int_Tables_number   1
_chemical_formula_structural   Sr2LaNbO6
_chemical_formula_sum   'Sr8 La4 Nb4 O24'
_cell_volume   629.01962915
_cell_formula_units_Z   4
loop_
 _symmetry_equiv_pos_site_id
 _symmetry_equiv_pos_as_xyz
  1  'x, y, z'
loop_
 _atom_site_type_symbol
 _atom_site_label
 _atom_site_symmetry_multiplicity
 _atom_site_fract_x
 _atom_site_fract_y
 _atom_site_fract_z
 _atom_site_occupancy
  Sr  Sr0  1  0.50000000  0.50000000  0.50000000  1
  Sr  Sr1  1  0.00000000  0.00000000  0.00000000  1
  Sr  Sr2  1  0.00000000  0.00000000  0.50000000  1
  Sr  Sr3  1  0.00000000  0.50000000  0.00000000  1
  Sr  Sr4  1  0.50000000  0.00000000  0.00000000  1
  Sr  Sr5  1  0.50000000  0.50000000  0.00000000  1
  Sr  Sr6  1  0.50000000  0.00000000  0.50000000  1
  Sr  Sr7  1  0.00000000  0.50000000  0.50000000  1
  La  La8  1  0.75000000  0.75000000  0.75000000  1
  La  La9  1  0.75000000  0.25000000  0.25000000  1
  La  La10  1  0.25000000  0.75000000  0.25000000  1
  La  La11  1  0.25000000  0.25000000  0.75000000  1
  Nb  Nb12  1  0.25000000  0.25000000  0.25000000  1
  Nb  Nb13  1  0.25000000  0.75000000  0.75000000  1
  Nb  Nb14  1  0.75000000  0.25000000  0.75000000  1
  Nb  Nb15  1  0.75000000  0.75000000  0.25000000  1
  O  O16  1  0.21169633  0.29790140  0.47861856  1
  O  O17  1  0.21169633  0.70209860  0.52138144  1
  O  O18  1  0.78830367  0.29790140  0.52138144  1
  O  O19  1  0.78830367  0.70209860  0.47861856  1
  O  O20  1  0.29790140  0.47861856  0.21169633  1
  O  O21  1  0.70209860  0.52138144  0.21169633  1
  O  O22  1  0.29790140  0.52138144  0.78830367  1
  O  O23  1  0.70209860  0.47861856  0.78830367  1
  O  O24  1  0.47861856  0.21169633  0.29790140  1
  O  O25  1  0.52138144  0.21169633  0.70209860  1
  O  O26  1  0.52138144  0.78830367  0.29790140  1
  O  O27  1  0.47861856  0.78830367  0.70209860  1
  O  O28  1  0.28830367  0.20209860  0.02138144  1
  O  O29  1  0.28830367  0.79790140  0.97861856  1
  O  O30  1  0.71169633  0.20209860  0.97861856  1
  O  O31  1  0.71169633  0.79790140  0.02138144  1
  O  O32  1  0.20209860  0.02138144  0.28830367  1
  O  O33  1  0.79790140  0.97861856  0.28830367  1
  O  O34  1  0.20209860  0.97861856  0.71169633  1
  O  O35  1  0.79790140  0.02138144  0.71169633  1
  O  O36  1  0.02138144  0.28830367  0.20209860  1
  O  O37  1  0.97861856  0.28830367  0.79790140  1
  O  O38  1  0.97861856  0.71169633  0.20209860  1
  O  O39  1  0.02138144  0.71169633  0.79790140  1
