# generated using pymatgen
data_SrTbEuCoO6
_symmetry_space_group_name_H-M   'P 1'
_cell_length_a   9.38578096
_cell_length_b   9.35747748
_cell_length_c   9.41178221
_cell_angle_alpha   90.00000000
_cell_angle_beta   90.00000000
_cell_angle_gamma   90.00000000
_symmetry_Int_Tables_number   1
_chemical_formula_structural   SrTbEuCoO6
_chemical_formula_sum   'Sr4 Tb4 Eu4 Co4 O24'
_cell_volume   826.61079819
_cell_formula_units_Z   4
loop_
 _symmetry_equiv_pos_site_id
 _symmetry_equiv_pos_as_xyz
  1  'x, y, z'
loop_
 _atom_site_type_symbol
 _atom_site_label
 _atom_site_symmetry_multiplicity
 _atom_site_fract_x
 _atom_site_fract_y
 _atom_site_fract_z
 _atom_site_occupancy
  Sr  Sr0  1  -0.00000000  0.50000000  0.50000000  1
  Sr  Sr1  1  0.50000000  0.00000000  0.50000000  1
  Sr  Sr2  1  0.50000000  0.50000000  -0.00000000  1
  Sr  Sr3  1  0.50000000  0.00000000  -0.00000000  1
  Tb  Tb4  1  0.25054013  0.24934022  0.24962130  1
  Tb  Tb5  1  0.74945987  0.75065978  0.24962130  1
  Tb  Tb6  1  0.74945987  0.24934022  0.75037870  1
  Tb  Tb7  1  0.25054013  0.75065978  0.75037870  1
  Eu  Eu8  1  -0.00000000  0.50000000  -0.00000000  1
  Eu  Eu9  1  -0.00000000  0.00000000  0.50000000  1
  Eu  Eu10  1  -0.00000000  0.00000000  -0.00000000  1
  Eu  Eu11  1  0.50000000  0.50000000  0.50000000  1
  Co  Co12  1  0.74645159  0.75070217  0.74915482  1
  Co  Co13  1  0.25354841  0.24929783  0.74915482  1
  Co  Co14  1  0.25354841  0.75070217  0.25084518  1
  Co  Co15  1  0.74645159  0.24929783  0.25084518  1
  O  O16  1  0.97970392  0.22641418  0.26976870  1
  O  O17  1  0.02029608  0.77358582  0.26976870  1
  O  O18  1  0.02029608  0.22641418  0.73023130  1
  O  O19  1  0.97970392  0.77358582  0.73023130  1
  O  O20  1  0.26648449  0.97867222  0.22908499  1
  O  O21  1  0.26648449  0.02132778  0.77091501  1
  O  O22  1  0.73351551  0.02132778  0.22908499  1
  O  O23  1  0.73351551  0.97867222  0.77091501  1
  O  O24  1  0.22397388  0.27165678  0.97945593  1
  O  O25  1  0.77602612  0.27165678  0.02054407  1
  O  O26  1  0.22397388  0.72834322  0.02054407  1
  O  O27  1  0.77602612  0.72834322  0.97945593  1
  O  O28  1  0.52219581  0.27190606  0.23207155  1
  O  O29  1  0.47780419  0.72809394  0.23207155  1
  O  O30  1  0.47780419  0.27190606  0.76792845  1
  O  O31  1  0.52219581  0.72809394  0.76792845  1
  O  O32  1  0.22951020  0.52089127  0.26974136  1
  O  O33  1  0.22951020  0.47910873  0.73025864  1
  O  O34  1  0.77048980  0.47910873  0.26974136  1
  O  O35  1  0.77048980  0.52089127  0.73025864  1
  O  O36  1  0.26972080  0.23025467  0.52114670  1
  O  O37  1  0.73027920  0.23025467  0.47885330  1
  O  O38  1  0.26972080  0.76974533  0.47885330  1
  O  O39  1  0.73027920  0.76974533  0.52114670  1
