# generated using pymatgen
data_KNdNb4O12
_symmetry_space_group_name_H-M   'P 1'
_cell_length_a   5.62871948
_cell_length_b   5.62871948
_cell_length_c   7.99868291
_cell_angle_alpha   90.00000000
_cell_angle_beta   90.00000000
_cell_angle_gamma   90.20040750
_symmetry_Int_Tables_number   1
_chemical_formula_structural   KNdNb4O12
_chemical_formula_sum   'K1 Nd1 Nb4 O12'
_cell_volume   253.41658474
_cell_formula_units_Z   1
loop_
 _symmetry_equiv_pos_site_id
 _symmetry_equiv_pos_as_xyz
  1  'x, y, z'
loop_
 _atom_site_type_symbol
 _atom_site_label
 _atom_site_symmetry_multiplicity
 _atom_site_fract_x
 _atom_site_fract_y
 _atom_site_fract_z
 _atom_site_occupancy
  K  K0  1  0.01509940  0.98490060  0.50000000  1
  Nd  Nd1  1  0.47821571  0.52178429  -0.00000000  1
  Nb  Nb2  1  0.50863011  0.99680353  0.25274265  1
  Nb  Nb3  1  0.50863011  0.99680353  0.74725735  1
  Nb  Nb4  1  0.00319647  0.49136989  0.74725735  1
  Nb  Nb5  1  0.00319647  0.49136989  0.25274265  1
  O  O6  1  0.22952673  0.23145780  0.23844408  1
  O  O7  1  0.76854220  0.77047327  0.23844408  1
  O  O8  1  0.76854220  0.77047327  0.76155592  1
  O  O9  1  0.22952673  0.23145780  0.76155592  1
  O  O10  1  0.27778570  0.72221430  0.26512500  1
  O  O11  1  0.71130936  0.28869064  0.20369323  1
  O  O12  1  0.71130936  0.28869064  0.79630677  1
  O  O13  1  0.27778570  0.72221430  0.73487500  1
  O  O14  1  0.47404693  0.95270089  -0.00000000  1
  O  O15  1  0.52605699  0.02869930  0.50000000  1
  O  O16  1  0.04729911  0.52595307  -0.00000000  1
  O  O17  1  0.97130070  0.47394301  0.50000000  1
