# generated using pymatgen
data_NaTbMn4O12
_symmetry_space_group_name_H-M   'P 1'
_cell_length_a   5.32928362
_cell_length_b   5.32928362
_cell_length_c   7.64090371
_cell_angle_alpha   90.00000000
_cell_angle_beta   90.00000000
_cell_angle_gamma   90.00000000
_symmetry_Int_Tables_number   1
_chemical_formula_structural   NaTbMn4O12
_chemical_formula_sum   'Na1 Tb1 Mn4 O12'
_cell_volume   217.01132272
_cell_formula_units_Z   1
loop_
 _symmetry_equiv_pos_site_id
 _symmetry_equiv_pos_as_xyz
  1  'x, y, z'
loop_
 _atom_site_type_symbol
 _atom_site_label
 _atom_site_symmetry_multiplicity
 _atom_site_fract_x
 _atom_site_fract_y
 _atom_site_fract_z
 _atom_site_occupancy
  Na  Na0  1  0.50000000  0.50000000  0.50000000  1
  Tb  Tb1  1  0.00000000  -0.00000000  -0.00000000  1
  Mn  Mn2  1  0.00000000  0.50000000  0.74040558  1
  Mn  Mn3  1  0.00000000  0.50000000  0.25959442  1
  Mn  Mn4  1  0.50000000  -0.00000000  0.74040558  1
  Mn  Mn5  1  0.50000000  0.00000000  0.25959442  1
  O  O6  1  0.23737293  0.23737293  0.77356359  1
  O  O7  1  0.23737293  0.23737293  0.22643641  1
  O  O8  1  0.76262707  0.76262707  0.77356359  1
  O  O9  1  0.76262707  0.76262707  0.22643641  1
  O  O10  1  0.76262707  0.23737293  0.77356359  1
  O  O11  1  0.76262707  0.23737293  0.22643641  1
  O  O12  1  0.23737293  0.76262707  0.77356359  1
  O  O13  1  0.23737293  0.76262707  0.22643641  1
  O  O14  1  0.00000000  0.50000000  0.50000000  1
  O  O15  1  0.00000000  0.50000000  0.00000000  1
  O  O16  1  0.50000000  0.00000000  0.50000000  1
  O  O17  1  0.50000000  -0.00000000  0.00000000  1
