# generated using pymatgen
data_BaSrTbWO6
_symmetry_space_group_name_H-M   'P 1'
_cell_length_a   8.42634872
_cell_length_b   8.44909460
_cell_length_c   8.49307091
_cell_angle_alpha   90.00000000
_cell_angle_beta   90.00000000
_cell_angle_gamma   90.00000000
_symmetry_Int_Tables_number   1
_chemical_formula_structural   BaSrTbWO6
_chemical_formula_sum   'Ba4 Sr4 Tb4 W4 O24'
_cell_volume   604.66433179
_cell_formula_units_Z   4
loop_
 _symmetry_equiv_pos_site_id
 _symmetry_equiv_pos_as_xyz
  1  'x, y, z'
loop_
 _atom_site_type_symbol
 _atom_site_label
 _atom_site_symmetry_multiplicity
 _atom_site_fract_x
 _atom_site_fract_y
 _atom_site_fract_z
 _atom_site_occupancy
  Ba  Ba0  1  0.00000000  -0.00000000  0.00000000  1
  Ba  Ba1  1  0.50000000  0.50000000  0.50000000  1
  Ba  Ba2  1  0.50000000  0.50000000  0.00000000  1
  Ba  Ba3  1  0.00000000  -0.00000000  0.50000000  1
  Sr  Sr4  1  0.00000000  0.50000000  0.50000000  1
  Sr  Sr5  1  0.50000000  -0.00000000  0.50000000  1
  Sr  Sr6  1  0.50000000  -0.00000000  0.00000000  1
  Sr  Sr7  1  0.00000000  0.50000000  0.00000000  1
  Tb  Tb8  1  0.75000000  0.75000000  0.75000000  1
  Tb  Tb9  1  0.25000000  0.25000000  0.75000000  1
  Tb  Tb10  1  0.25000000  0.75000000  0.25000000  1
  Tb  Tb11  1  0.75000000  0.25000000  0.25000000  1
  W  W12  1  0.25000000  0.25000000  0.25000000  1
  W  W13  1  0.75000000  0.75000000  0.25000000  1
  W  W14  1  0.75000000  0.25000000  0.75000000  1
  W  W15  1  0.25000000  0.75000000  0.75000000  1
  O  O16  1  0.01529352  0.22690463  0.27660705  1
  O  O17  1  0.98470648  0.77309537  0.27660705  1
  O  O18  1  0.98470648  0.22690463  0.72339295  1
  O  O19  1  0.01529352  0.77309537  0.72339295  1
  O  O20  1  0.28153383  0.01553759  0.21857457  1
  O  O21  1  0.28153383  0.98446241  0.78142543  1
  O  O22  1  0.71846617  0.98446241  0.21857457  1
  O  O23  1  0.71846617  0.01553759  0.78142543  1
  O  O24  1  0.21913456  0.28148641  0.01278349  1
  O  O25  1  0.78086544  0.28148641  0.98721651  1
  O  O26  1  0.21913456  0.71851359  0.98721651  1
  O  O27  1  0.78086544  0.71851359  0.01278349  1
  O  O28  1  0.48470648  0.27309537  0.22339295  1
  O  O29  1  0.51529352  0.72690463  0.22339295  1
  O  O30  1  0.51529352  0.27309537  0.77660705  1
  O  O31  1  0.48470648  0.72690463  0.77660705  1
  O  O32  1  0.21846617  0.48446241  0.28142543  1
  O  O33  1  0.21846617  0.51553759  0.71857457  1
  O  O34  1  0.78153383  0.51553759  0.28142543  1
  O  O35  1  0.78153383  0.48446241  0.71857457  1
  O  O36  1  0.28086544  0.21851359  0.48721651  1
  O  O37  1  0.71913456  0.21851359  0.51278349  1
  O  O38  1  0.28086544  0.78148641  0.51278349  1
  O  O39  1  0.71913456  0.78148641  0.48721651  1
