# generated using pymatgen
data_BaSrEuWO6
_symmetry_space_group_name_H-M   'P 1'
_cell_length_a   6.00051723
_cell_length_b   6.00051723
_cell_length_c   8.75233244
_cell_angle_alpha   90.00000000
_cell_angle_beta   90.00000000
_cell_angle_gamma   90.00000000
_symmetry_Int_Tables_number   1
_chemical_formula_structural   BaSrEuWO6
_chemical_formula_sum   'Ba2 Sr2 Eu2 W2 O12'
_cell_volume   315.13829381
_cell_formula_units_Z   2
loop_
 _symmetry_equiv_pos_site_id
 _symmetry_equiv_pos_as_xyz
  1  'x, y, z'
loop_
 _atom_site_type_symbol
 _atom_site_label
 _atom_site_symmetry_multiplicity
 _atom_site_fract_x
 _atom_site_fract_y
 _atom_site_fract_z
 _atom_site_occupancy
  Ba  Ba0  1  0.00000000  0.50000000  0.25000000  1
  Ba  Ba1  1  0.50000000  -0.00000000  0.75000000  1
  Sr  Sr2  1  0.50000000  -0.00000000  0.25000000  1
  Sr  Sr3  1  -0.00000000  0.50000000  0.75000000  1
  Eu  Eu4  1  0.00000000  0.00000000  -0.00000000  1
  Eu  Eu5  1  0.50000000  0.50000000  0.50000000  1
  W  W6  1  -0.00000000  -0.00000000  0.50000000  1
  W  W7  1  0.50000000  0.50000000  -0.00000000  1
  O  O8  1  -0.00000000  0.00000000  0.27241136  1
  O  O9  1  0.50000000  0.50000000  0.22758864  1
  O  O10  1  0.00000000  0.00000000  0.72758864  1
  O  O11  1  0.50000000  0.50000000  0.77241136  1
  O  O12  1  0.33767356  0.21419453  0.01179790  1
  O  O13  1  0.66232644  0.78580547  0.01179790  1
  O  O14  1  0.78580547  0.33767356  0.98820210  1
  O  O15  1  0.21419453  0.66232644  0.98820210  1
  O  O16  1  0.83767356  0.28580547  0.51179790  1
  O  O17  1  0.16232644  0.71419453  0.51179790  1
  O  O18  1  0.28580547  0.16232644  0.48820210  1
  O  O19  1  0.71419453  0.83767356  0.48820210  1
