# generated using pymatgen
data_SrCa(SnO3)4
_symmetry_space_group_name_H-M   'P 1'
_cell_length_a   5.74046963
_cell_length_b   5.74046963
_cell_length_c   8.11818774
_cell_angle_alpha   90.00000000
_cell_angle_beta   90.00000000
_cell_angle_gamma   89.42539791
_symmetry_Int_Tables_number   1
_chemical_formula_structural   SrCa(SnO3)4
_chemical_formula_sum   'Sr1 Ca1 Sn4 O12'
_cell_volume   267.50511988
_cell_formula_units_Z   1
loop_
 _symmetry_equiv_pos_site_id
 _symmetry_equiv_pos_as_xyz
  1  'x, y, z'
loop_
 _atom_site_type_symbol
 _atom_site_label
 _atom_site_symmetry_multiplicity
 _atom_site_fract_x
 _atom_site_fract_y
 _atom_site_fract_z
 _atom_site_occupancy
  Sr  Sr0  1  0.02485206  0.97514794  0.50000000  1
  Ca  Ca1  1  0.47411762  0.52588238  0.00000000  1
  Sn  Sn2  1  0.51142924  0.01250788  0.24463869  1
  Sn  Sn3  1  0.51142924  0.01250788  0.75536131  1
  Sn  Sn4  1  0.98749212  0.48857076  0.75536131  1
  Sn  Sn5  1  0.98749212  0.48857076  0.24463869  1
  O  O6  1  0.20826740  0.20479406  0.26239578  1
  O  O7  1  0.79520594  0.79173260  0.26239578  1
  O  O8  1  0.79520594  0.79173260  0.73760422  1
  O  O9  1  0.20826740  0.20479406  0.73760422  1
  O  O10  1  0.27395004  0.72604996  0.27623438  1
  O  O11  1  0.69144751  0.30855249  0.19245109  1
  O  O12  1  0.69144751  0.30855249  0.80754891  1
  O  O13  1  0.27395004  0.72604996  0.72376562  1
  O  O14  1  0.48229826  0.92615522  0.00000000  1
  O  O15  1  0.55197097  0.03276820  0.50000000  1
  O  O16  1  0.07384478  0.51770174  0.00000000  1
  O  O17  1  0.96723180  0.44802903  0.50000000  1
