# generated using pymatgen
data_EuAlInWO6
_symmetry_space_group_name_H-M   'P 1'
_cell_length_a   10.11347207
_cell_length_b   10.16244516
_cell_length_c   8.86804071
_cell_angle_alpha   90.00000000
_cell_angle_beta   90.00000000
_cell_angle_gamma   90.00000000
_symmetry_Int_Tables_number   1
_chemical_formula_structural   EuAlInWO6
_chemical_formula_sum   'Eu4 Al4 In4 W4 O24'
_cell_volume   911.43598778
_cell_formula_units_Z   4
loop_
 _symmetry_equiv_pos_site_id
 _symmetry_equiv_pos_as_xyz
  1  'x, y, z'
loop_
 _atom_site_type_symbol
 _atom_site_label
 _atom_site_symmetry_multiplicity
 _atom_site_fract_x
 _atom_site_fract_y
 _atom_site_fract_z
 _atom_site_occupancy
  Eu  Eu0  1  -0.00000000  0.00000000  0.00000000  1
  Eu  Eu1  1  0.50000000  0.50000000  0.50000000  1
  Eu  Eu2  1  -0.00000000  0.50000000  0.50000000  1
  Eu  Eu3  1  0.50000000  0.00000000  0.00000000  1
  Al  Al4  1  0.75000000  0.75000000  0.75000000  1
  Al  Al5  1  0.25000000  0.25000000  0.75000000  1
  Al  Al6  1  0.25000000  0.75000000  0.25000000  1
  Al  Al7  1  0.75000000  0.25000000  0.25000000  1
  In  In8  1  0.50000000  0.00000000  0.50000000  1
  In  In9  1  0.50000000  0.50000000  0.00000000  1
  In  In10  1  -0.00000000  0.50000000  0.00000000  1
  In  In11  1  -0.00000000  0.00000000  0.50000000  1
  W  W12  1  0.25000000  0.25000000  0.25000000  1
  W  W13  1  0.75000000  0.75000000  0.25000000  1
  W  W14  1  0.75000000  0.25000000  0.75000000  1
  W  W15  1  0.25000000  0.75000000  0.75000000  1
  O  O16  1  0.01790771  0.20047485  0.28220749  1
  O  O17  1  -0.01790771  0.79952515  0.28220749  1
  O  O18  1  -0.01790771  0.20047485  0.71779251  1
  O  O19  1  0.01790771  0.79952515  0.71779251  1
  O  O20  1  0.29555474  0.01849430  0.18185347  1
  O  O21  1  0.29555474  -0.01849430  0.81814653  1
  O  O22  1  0.70444526  -0.01849430  0.18185347  1
  O  O23  1  0.70444526  0.01849430  0.81814653  1
  O  O24  1  0.23092653  0.23336898  0.03956522  1
  O  O25  1  0.76907347  0.23336898  -0.03956522  1
  O  O26  1  0.23092653  0.76663102  -0.03956522  1
  O  O27  1  0.76907347  0.76663102  0.03956522  1
  O  O28  1  0.48209229  0.29952515  0.21779251  1
  O  O29  1  0.51790771  0.70047485  0.21779251  1
  O  O30  1  0.51790771  0.29952515  0.78220749  1
  O  O31  1  0.48209229  0.70047485  0.78220749  1
  O  O32  1  0.20444526  0.48150570  0.31814653  1
  O  O33  1  0.20444526  0.51849430  0.68185347  1
  O  O34  1  0.79555474  0.51849430  0.31814653  1
  O  O35  1  0.79555474  0.48150570  0.68185347  1
  O  O36  1  0.26907347  0.26663102  0.46043478  1
  O  O37  1  0.73092653  0.26663102  0.53956522  1
  O  O38  1  0.26907347  0.73336898  0.53956522  1
  O  O39  1  0.73092653  0.73336898  0.46043478  1
