# generated using pymatgen
data_BaSrYNbO6
_symmetry_space_group_name_H-M   'P 1'
_cell_length_a   5.97829880
_cell_length_b   5.98353370
_cell_length_c   8.45766655
_cell_angle_alpha   90.24221183
_cell_angle_beta   89.79415050
_cell_angle_gamma   89.77188443
_symmetry_Int_Tables_number   1
_chemical_formula_structural   BaSrYNbO6
_chemical_formula_sum   'Ba2 Sr2 Y2 Nb2 O12'
_cell_volume   302.53509777
_cell_formula_units_Z   2
loop_
 _symmetry_equiv_pos_site_id
 _symmetry_equiv_pos_as_xyz
  1  'x, y, z'
loop_
 _atom_site_type_symbol
 _atom_site_label
 _atom_site_symmetry_multiplicity
 _atom_site_fract_x
 _atom_site_fract_y
 _atom_site_fract_z
 _atom_site_occupancy
  Ba  Ba0  1  0.99525142  0.02076650  0.25009411  1
  Ba  Ba1  1  0.00474858  0.97923350  0.74990589  1
  Sr  Sr2  1  0.50377280  0.52590754  0.25071213  1
  Sr  Sr3  1  0.49622720  0.47409246  0.74928787  1
  Y  Y4  1  0.50000000  -0.00000000  0.00000000  1
  Y  Y5  1  -0.00000000  0.50000000  0.50000000  1
  Nb  Nb6  1  -0.00000000  0.50000000  0.00000000  1
  Nb  Nb7  1  0.50000000  -0.00000000  0.50000000  1
  O  O8  1  0.20853263  0.23657659  0.96767559  1
  O  O9  1  0.29953746  0.72850815  0.53382108  1
  O  O10  1  0.79146737  0.76342341  0.03232441  1
  O  O11  1  0.70046254  0.27149185  0.46617892  1
  O  O12  1  0.26850990  0.70228245  0.96519142  1
  O  O13  1  0.23822516  0.21023222  0.53070823  1
  O  O14  1  0.73149010  0.29771755  0.03480858  1
  O  O15  1  0.76177484  0.78976778  0.46929177  1
  O  O16  1  0.44534242  0.98204307  0.26421730  1
  O  O17  1  0.06968897  0.49354343  0.23534611  1
  O  O18  1  0.55465758  0.01795693  0.73578270  1
  O  O19  1  0.93031103  0.50645657  0.76465389  1
