# generated using pymatgen
data_NaSrCeBiO6
_symmetry_space_group_name_H-M   'P 1'
_cell_length_a   8.51591518
_cell_length_b   8.53209439
_cell_length_c   8.53360581
_cell_angle_alpha   90.00000000
_cell_angle_beta   90.00000000
_cell_angle_gamma   90.00000000
_symmetry_Int_Tables_number   1
_chemical_formula_structural   NaSrCeBiO6
_chemical_formula_sum   'Na4 Sr4 Ce4 Bi4 O24'
_cell_volume   620.03978397
_cell_formula_units_Z   4
loop_
 _symmetry_equiv_pos_site_id
 _symmetry_equiv_pos_as_xyz
  1  'x, y, z'
loop_
 _atom_site_type_symbol
 _atom_site_label
 _atom_site_symmetry_multiplicity
 _atom_site_fract_x
 _atom_site_fract_y
 _atom_site_fract_z
 _atom_site_occupancy
  Na  Na0  1  0.00000000  -0.00000000  -0.00000000  1
  Na  Na1  1  0.50000000  0.50000000  0.50000000  1
  Na  Na2  1  0.00000000  0.50000000  0.50000000  1
  Na  Na3  1  0.50000000  -0.00000000  -0.00000000  1
  Sr  Sr4  1  0.50000000  -0.00000000  0.50000000  1
  Sr  Sr5  1  0.50000000  0.50000000  -0.00000000  1
  Sr  Sr6  1  0.00000000  0.50000000  -0.00000000  1
  Sr  Sr7  1  0.00000000  -0.00000000  0.50000000  1
  Ce  Ce8  1  0.25000000  0.25000000  0.25000000  1
  Ce  Ce9  1  0.75000000  0.75000000  0.25000000  1
  Ce  Ce10  1  0.75000000  0.25000000  0.75000000  1
  Ce  Ce11  1  0.25000000  0.75000000  0.75000000  1
  Bi  Bi12  1  0.75000000  0.75000000  0.75000000  1
  Bi  Bi13  1  0.25000000  0.25000000  0.75000000  1
  Bi  Bi14  1  0.25000000  0.75000000  0.25000000  1
  Bi  Bi15  1  0.75000000  0.25000000  0.25000000  1
  O  O16  1  0.99473733  0.20372818  0.28097597  1
  O  O17  1  0.00526267  0.79627182  0.28097597  1
  O  O18  1  0.00526267  0.20372818  0.71902403  1
  O  O19  1  0.99473733  0.79627182  0.71902403  1
  O  O20  1  0.29321319  0.99492494  0.21586590  1
  O  O21  1  0.29321319  0.00507506  0.78413410  1
  O  O22  1  0.70678681  0.00507506  0.21586590  1
  O  O23  1  0.70678681  0.99492494  0.78413410  1
  O  O24  1  0.21523754  0.29429210  0.99476033  1
  O  O25  1  0.78476246  0.29429210  0.00523967  1
  O  O26  1  0.21523754  0.70570790  0.00523967  1
  O  O27  1  0.78476246  0.70570790  0.99476033  1
  O  O28  1  0.50526267  0.29627182  0.21902403  1
  O  O29  1  0.49473733  0.70372818  0.21902403  1
  O  O30  1  0.49473733  0.29627182  0.78097597  1
  O  O31  1  0.50526267  0.70372818  0.78097597  1
  O  O32  1  0.20678681  0.50507506  0.28413410  1
  O  O33  1  0.20678681  0.49492494  0.71586590  1
  O  O34  1  0.79321319  0.49492494  0.28413410  1
  O  O35  1  0.79321319  0.50507506  0.71586590  1
  O  O36  1  0.28476246  0.20570790  0.50523967  1
  O  O37  1  0.71523754  0.20570790  0.49476033  1
  O  O38  1  0.28476246  0.79429210  0.49476033  1
  O  O39  1  0.71523754  0.79429210  0.50523967  1
