# generated using pymatgen
data_Ba2TbSnO6
_symmetry_space_group_name_H-M   'P 1'
_cell_length_a   8.64614992
_cell_length_b   8.64614992
_cell_length_c   8.64614992
_cell_angle_alpha   90.00000000
_cell_angle_beta   90.00000000
_cell_angle_gamma   90.00000000
_symmetry_Int_Tables_number   1
_chemical_formula_structural   Ba2TbSnO6
_chemical_formula_sum   'Ba8 Tb4 Sn4 O24'
_cell_volume   646.35079177
_cell_formula_units_Z   4
loop_
 _symmetry_equiv_pos_site_id
 _symmetry_equiv_pos_as_xyz
  1  'x, y, z'
loop_
 _atom_site_type_symbol
 _atom_site_label
 _atom_site_symmetry_multiplicity
 _atom_site_fract_x
 _atom_site_fract_y
 _atom_site_fract_z
 _atom_site_occupancy
  Ba  Ba0  1  0.50000000  0.50000000  0.50000000  1
  Ba  Ba1  1  0.00000000  -0.00000000  0.00000000  1
  Ba  Ba2  1  0.00000000  -0.00000000  0.50000000  1
  Ba  Ba3  1  0.00000000  0.50000000  0.00000000  1
  Ba  Ba4  1  0.50000000  -0.00000000  0.00000000  1
  Ba  Ba5  1  0.50000000  0.50000000  0.00000000  1
  Ba  Ba6  1  0.50000000  -0.00000000  0.50000000  1
  Ba  Ba7  1  0.00000000  0.50000000  0.50000000  1
  Tb  Tb8  1  0.25000000  0.25000000  0.25000000  1
  Tb  Tb9  1  0.25000000  0.75000000  0.75000000  1
  Tb  Tb10  1  0.75000000  0.25000000  0.75000000  1
  Tb  Tb11  1  0.75000000  0.75000000  0.25000000  1
  Sn  Sn12  1  0.75000000  0.75000000  0.75000000  1
  Sn  Sn13  1  0.75000000  0.25000000  0.25000000  1
  Sn  Sn14  1  0.25000000  0.75000000  0.25000000  1
  Sn  Sn15  1  0.25000000  0.25000000  0.75000000  1
  O  O16  1  0.23763868  0.26303091  0.50953182  1
  O  O17  1  0.23763868  0.73696909  0.49046818  1
  O  O18  1  0.76236132  0.26303091  0.49046818  1
  O  O19  1  0.76236132  0.73696909  0.50953182  1
  O  O20  1  0.26303091  0.50953182  0.23763868  1
  O  O21  1  0.73696909  0.49046818  0.23763868  1
  O  O22  1  0.26303091  0.49046818  0.76236132  1
  O  O23  1  0.73696909  0.50953182  0.76236132  1
  O  O24  1  0.50953182  0.23763868  0.26303091  1
  O  O25  1  0.49046818  0.23763868  0.73696909  1
  O  O26  1  0.49046818  0.76236132  0.26303091  1
  O  O27  1  0.50953182  0.76236132  0.73696909  1
  O  O28  1  0.26236132  0.23696909  0.99046818  1
  O  O29  1  0.26236132  0.76303091  0.00953182  1
  O  O30  1  0.73763868  0.23696909  0.00953182  1
  O  O31  1  0.73763868  0.76303091  0.99046818  1
  O  O32  1  0.23696909  0.99046818  0.26236132  1
  O  O33  1  0.76303091  0.00953182  0.26236132  1
  O  O34  1  0.23696909  0.00953182  0.73763868  1
  O  O35  1  0.76303091  0.99046818  0.73763868  1
  O  O36  1  0.99046818  0.26236132  0.23696909  1
  O  O37  1  0.00953182  0.26236132  0.76303091  1
  O  O38  1  0.00953182  0.73763868  0.23696909  1
  O  O39  1  0.99046818  0.73763868  0.76303091  1
