# generated using pymatgen
data_BaSrNdBiO6
_symmetry_space_group_name_H-M   'P 1'
_cell_length_a   6.15482762
_cell_length_b   6.22893069
_cell_length_c   8.75093054
_cell_angle_alpha   90.19360226
_cell_angle_beta   89.72140817
_cell_angle_gamma   89.94936288
_symmetry_Int_Tables_number   1
_chemical_formula_structural   BaSrNdBiO6
_chemical_formula_sum   'Ba2 Sr2 Nd2 Bi2 O12'
_cell_volume   335.48711134
_cell_formula_units_Z   2
loop_
 _symmetry_equiv_pos_site_id
 _symmetry_equiv_pos_as_xyz
  1  'x, y, z'
loop_
 _atom_site_type_symbol
 _atom_site_label
 _atom_site_symmetry_multiplicity
 _atom_site_fract_x
 _atom_site_fract_y
 _atom_site_fract_z
 _atom_site_occupancy
  Ba  Ba0  1  0.99338416  0.03182437  0.24991676  1
  Ba  Ba1  1  0.00661584  0.96817563  0.75008324  1
  Sr  Sr2  1  0.50923897  0.53924486  0.25149688  1
  Sr  Sr3  1  0.49076103  0.46075514  0.74850312  1
  Nd  Nd4  1  0.50000000  0.00000000  0.00000000  1
  Nd  Nd5  1  0.00000000  0.50000000  0.50000000  1
  Bi  Bi6  1  0.00000000  0.50000000  0.00000000  1
  Bi  Bi7  1  0.50000000  0.00000000  0.50000000  1
  O  O8  1  0.20007068  0.22337859  0.95722295  1
  O  O9  1  0.30746822  0.71712456  0.54901842  1
  O  O10  1  0.79992932  0.77662141  0.04277705  1
  O  O11  1  0.69253178  0.28287544  0.45098158  1
  O  O12  1  0.27982339  0.69751141  0.94965105  1
  O  O13  1  0.22272546  0.20254052  0.53741289  1
  O  O14  1  0.72017661  0.30248859  0.05034895  1
  O  O15  1  0.77727454  0.79745948  0.46258711  1
  O  O16  1  0.42699443  0.95689017  0.26141042  1
  O  O17  1  0.09477368  0.48504307  0.23784425  1
  O  O18  1  0.57300557  0.04310983  0.73858958  1
  O  O19  1  0.90522632  0.51495693  0.76215575  1
