# generated using pymatgen
data_YMg15
_symmetry_space_group_name_H-M   'P 1'
_cell_length_a   6.52416421
_cell_length_b   6.52416421
_cell_length_c   10.32318100
_cell_angle_alpha   90.00000000
_cell_angle_beta   90.00000000
_cell_angle_gamma   120.00000209
_symmetry_Int_Tables_number   1
_chemical_formula_structural   YMg15
_chemical_formula_sum   'Y1 Mg15'
_cell_volume   380.53440724
_cell_formula_units_Z   1
loop_
 _symmetry_equiv_pos_site_id
 _symmetry_equiv_pos_as_xyz
  1  'x, y, z'
loop_
 _atom_site_type_symbol
 _atom_site_label
 _atom_site_symmetry_multiplicity
 _atom_site_fract_x
 _atom_site_fract_y
 _atom_site_fract_z
 _atom_site_occupancy
  Y  Y0  1  0.00000000  0.00000000  0.50000000  1
  Mg  Mg1  1  0.00000000  0.00000000  0.00000000  1
  Mg  Mg2  1  0.00636200  0.50318100  0.50000000  1
  Mg  Mg3  1  0.99958000  0.49979000  0.00000000  1
  Mg  Mg4  1  0.49681900  0.50318100  0.50000000  1
  Mg  Mg5  1  0.50021000  0.49979000  0.00000000  1
  Mg  Mg6  1  0.49681900  0.99363800  0.50000000  1
  Mg  Mg7  1  0.50021000  0.00042000  0.00000000  1
  Mg  Mg8  1  0.16683300  0.33366600  0.24806300  1
  Mg  Mg9  1  0.16683300  0.33366600  0.75193700  1
  Mg  Mg10  1  0.16683300  0.83316700  0.24806300  1
  Mg  Mg11  1  0.16683300  0.83316700  0.75193700  1
  Mg  Mg12  1  0.66633400  0.83316700  0.24806300  1
  Mg  Mg13  1  0.66633400  0.83316700  0.75193700  1
  Mg  Mg14  1  0.66666700  0.33333300  0.25236400  1
  Mg  Mg15  1  0.66666700  0.33333300  0.74763600  1
