# generated using pymatgen
data_BaSrPrNbO6
_symmetry_space_group_name_H-M   'P 1'
_cell_length_a   8.60872645
_cell_length_b   8.62649465
_cell_length_c   8.61505513
_cell_angle_alpha   90.00000000
_cell_angle_beta   90.00000000
_cell_angle_gamma   90.00000000
_symmetry_Int_Tables_number   1
_chemical_formula_structural   BaSrPrNbO6
_chemical_formula_sum   'Ba4 Sr4 Pr4 Nb4 O24'
_cell_volume   639.78098203
_cell_formula_units_Z   4
loop_
 _symmetry_equiv_pos_site_id
 _symmetry_equiv_pos_as_xyz
  1  'x, y, z'
loop_
 _atom_site_type_symbol
 _atom_site_label
 _atom_site_symmetry_multiplicity
 _atom_site_fract_x
 _atom_site_fract_y
 _atom_site_fract_z
 _atom_site_occupancy
  Ba  Ba0  1  0.00000000  -0.00000000  0.00000000  1
  Ba  Ba1  1  0.50000000  0.50000000  0.50000000  1
  Ba  Ba2  1  0.00000000  0.50000000  0.00000000  1
  Ba  Ba3  1  0.00000000  -0.00000000  0.50000000  1
  Sr  Sr4  1  0.00000000  0.50000000  0.50000000  1
  Sr  Sr5  1  0.50000000  -0.00000000  0.50000000  1
  Sr  Sr6  1  0.50000000  0.50000000  0.00000000  1
  Sr  Sr7  1  0.50000000  -0.00000000  0.00000000  1
  Pr  Pr8  1  0.25228833  0.25036001  0.25180534  1
  Pr  Pr9  1  0.74771167  0.74963999  0.25180534  1
  Pr  Pr10  1  0.74771167  0.25036001  0.74819466  1
  Pr  Pr11  1  0.25228833  0.74963999  0.74819466  1
  Nb  Nb12  1  0.74623103  0.74907545  0.75038785  1
  Nb  Nb13  1  0.25376897  0.25092455  0.75038785  1
  Nb  Nb14  1  0.25376897  0.74907545  0.24961215  1
  Nb  Nb15  1  0.74623103  0.25092455  0.24961215  1
  O  O16  1  0.97936428  0.21815452  0.27572019  1
  O  O17  1  0.02063572  0.78184548  0.27572019  1
  O  O18  1  0.02063572  0.21815452  0.72427981  1
  O  O19  1  0.97936428  0.78184548  0.72427981  1
  O  O20  1  0.28809050  0.98050465  0.21281397  1
  O  O21  1  0.28809050  0.01949535  0.78718603  1
  O  O22  1  0.71190950  0.01949535  0.21281397  1
  O  O23  1  0.71190950  0.98050465  0.78718603  1
  O  O24  1  0.22137332  0.27932965  0.98148548  1
  O  O25  1  0.77862668  0.27932965  0.01851452  1
  O  O26  1  0.22137332  0.72067035  0.01851452  1
  O  O27  1  0.77862668  0.72067035  0.98148548  1
  O  O28  1  0.51942019  0.29773086  0.21406290  1
  O  O29  1  0.48057981  0.70226914  0.21406290  1
  O  O30  1  0.48057981  0.29773086  0.78593710  1
  O  O31  1  0.51942019  0.70226914  0.78593710  1
  O  O32  1  0.21606240  0.52042248  0.29484170  1
  O  O33  1  0.21606240  0.47957752  0.70515830  1
  O  O34  1  0.78393760  0.47957752  0.29484170  1
  O  O35  1  0.78393760  0.52042248  0.70515830  1
  O  O36  1  0.29394701  0.21065854  0.52172937  1
  O  O37  1  0.70605299  0.21065854  0.47827063  1
  O  O38  1  0.29394701  0.78934146  0.47827063  1
  O  O39  1  0.70605299  0.78934146  0.52172937  1
