# generated using pymatgen
data_CaEuTi4O12
_symmetry_space_group_name_H-M   'P 1'
_cell_length_a   5.48394479
_cell_length_b   5.48394479
_cell_length_c   7.77900392
_cell_angle_alpha   90.00000000
_cell_angle_beta   90.00000000
_cell_angle_gamma   89.85953576
_symmetry_Int_Tables_number   1
_chemical_formula_structural   CaEuTi4O12
_chemical_formula_sum   'Ca1 Eu1 Ti4 O12'
_cell_volume   233.94234175
_cell_formula_units_Z   1
loop_
 _symmetry_equiv_pos_site_id
 _symmetry_equiv_pos_as_xyz
  1  'x, y, z'
loop_
 _atom_site_type_symbol
 _atom_site_label
 _atom_site_symmetry_multiplicity
 _atom_site_fract_x
 _atom_site_fract_y
 _atom_site_fract_z
 _atom_site_occupancy
  Ca  Ca0  1  0.49316174  0.49316174  0.50000000  1
  Eu  Eu1  1  0.00588146  0.00588146  -0.00000000  1
  Ti  Ti2  1  0.50253740  0.99777163  0.74764185  1
  Ti  Ti3  1  0.50253740  0.99777163  0.25235815  1
  Ti  Ti4  1  0.99777163  0.50253740  0.25235815  1
  Ti  Ti5  1  0.99777163  0.50253740  0.74764185  1
  O  O6  1  0.77393009  0.22653015  0.75977461  1
  O  O7  1  0.22653015  0.77393009  0.75977461  1
  O  O8  1  0.22653015  0.77393009  0.24022539  1
  O  O9  1  0.77393009  0.22653015  0.24022539  1
  O  O10  1  0.72369986  0.72369986  0.72462700  1
  O  O11  1  0.26409438  0.26409438  0.76966163  1
  O  O12  1  0.26409438  0.26409438  0.23033837  1
  O  O13  1  0.72369986  0.72369986  0.27537300  1
  O  O14  1  0.52665918  0.98169207  -0.00000000  1
  O  O15  1  0.48596532  0.03051320  0.50000000  1
  O  O16  1  0.98169207  0.52665918  -0.00000000  1
  O  O17  1  0.03051320  0.48596532  0.50000000  1
