# generated using pymatgen
data_KSm(FeO3)4
_symmetry_space_group_name_H-M   'P 1'
_cell_length_a   5.43780477
_cell_length_b   5.43780477
_cell_length_c   7.66360592
_cell_angle_alpha   90.00000000
_cell_angle_beta   90.00000000
_cell_angle_gamma   89.95357817
_symmetry_Int_Tables_number   1
_chemical_formula_structural   KSm(FeO3)4
_chemical_formula_sum   'K1 Sm1 Fe4 O12'
_cell_volume   226.61061211
_cell_formula_units_Z   1
loop_
 _symmetry_equiv_pos_site_id
 _symmetry_equiv_pos_as_xyz
  1  'x, y, z'
loop_
 _atom_site_type_symbol
 _atom_site_label
 _atom_site_symmetry_multiplicity
 _atom_site_fract_x
 _atom_site_fract_y
 _atom_site_fract_z
 _atom_site_occupancy
  K  K0  1  0.99780104  0.99780104  0.50000000  1
  Sm  Sm1  1  0.50819589  0.50819589  0.00000000  1
  Fe  Fe2  1  0.49903073  0.00152326  0.74604123  1
  Fe  Fe3  1  0.49903073  0.00152326  0.25395877  1
  Fe  Fe4  1  0.00152326  0.49903073  0.25395877  1
  Fe  Fe5  1  0.00152326  0.49903073  0.74604123  1
  O  O6  1  0.74071868  0.25875661  0.76773282  1
  O  O7  1  0.25875661  0.74071868  0.76773282  1
  O  O8  1  0.25875661  0.74071868  0.23226718  1
  O  O9  1  0.74071868  0.25875661  0.23226718  1
  O  O10  1  0.73559445  0.73559445  0.75306138  1
  O  O11  1  0.26487441  0.26487441  0.77953928  1
  O  O12  1  0.26487441  0.26487441  0.22046072  1
  O  O13  1  0.73559445  0.73559445  0.24693862  1
  O  O14  1  0.51231234  0.97456318  0.00000000  1
  O  O15  1  0.49302451  0.01070678  0.50000000  1
  O  O16  1  0.97456318  0.51231234  0.00000000  1
  O  O17  1  0.01070678  0.49302451  0.50000000  1
