# generated using pymatgen
data_KSrPrMnO6
_symmetry_space_group_name_H-M   'P 1'
_cell_length_a   8.46223516
_cell_length_b   8.43159021
_cell_length_c   8.47631496
_cell_angle_alpha   90.00000000
_cell_angle_beta   90.00000000
_cell_angle_gamma   90.00000000
_symmetry_Int_Tables_number   1
_chemical_formula_structural   KSrPrMnO6
_chemical_formula_sum   'K4 Sr4 Pr4 Mn4 O24'
_cell_volume   604.78591265
_cell_formula_units_Z   4
loop_
 _symmetry_equiv_pos_site_id
 _symmetry_equiv_pos_as_xyz
  1  'x, y, z'
loop_
 _atom_site_type_symbol
 _atom_site_label
 _atom_site_symmetry_multiplicity
 _atom_site_fract_x
 _atom_site_fract_y
 _atom_site_fract_z
 _atom_site_occupancy
  K  K0  1  0.50000000  -0.00000000  0.50000000  1
  K  K1  1  0.50000000  0.50000000  0.00000000  1
  K  K2  1  -0.00000000  0.50000000  0.00000000  1
  K  K3  1  -0.00000000  0.00000000  0.50000000  1
  Sr  Sr4  1  -0.00000000  0.50000000  0.50000000  1
  Sr  Sr5  1  0.50000000  0.00000000  -0.00000000  1
  Sr  Sr6  1  -0.00000000  -0.00000000  -0.00000000  1
  Sr  Sr7  1  0.50000000  0.50000000  0.50000000  1
  Pr  Pr8  1  0.25000000  0.25000000  0.25000000  1
  Pr  Pr9  1  0.75000000  0.75000000  0.25000000  1
  Pr  Pr10  1  0.75000000  0.25000000  0.75000000  1
  Pr  Pr11  1  0.25000000  0.75000000  0.75000000  1
  Mn  Mn12  1  0.75000000  0.75000000  0.75000000  1
  Mn  Mn13  1  0.25000000  0.25000000  0.75000000  1
  Mn  Mn14  1  0.25000000  0.75000000  0.25000000  1
  Mn  Mn15  1  0.75000000  0.25000000  0.25000000  1
  O  O16  1  0.97424663  0.23189621  0.26621443  1
  O  O17  1  0.02575337  0.76810379  0.26621443  1
  O  O18  1  0.02575337  0.23189621  0.73378557  1
  O  O19  1  0.97424663  0.76810379  0.73378557  1
  O  O20  1  0.26854453  0.97629544  0.21537949  1
  O  O21  1  0.26854453  0.02370456  0.78462051  1
  O  O22  1  0.73145547  0.02370456  0.21537949  1
  O  O23  1  0.73145547  0.97629544  0.78462051  1
  O  O24  1  0.22897612  0.25614855  0.97481357  1
  O  O25  1  0.77102388  0.25614855  0.02518643  1
  O  O26  1  0.22897612  0.74385145  0.02518643  1
  O  O27  1  0.77102388  0.74385145  0.97481357  1
  O  O28  1  0.52575337  0.26810379  0.23378557  1
  O  O29  1  0.47424663  0.73189621  0.23378557  1
  O  O30  1  0.47424663  0.26810379  0.76621443  1
  O  O31  1  0.52575337  0.73189621  0.76621443  1
  O  O32  1  0.23145547  0.52370456  0.28462051  1
  O  O33  1  0.23145547  0.47629544  0.71537949  1
  O  O34  1  0.76854453  0.47629544  0.28462051  1
  O  O35  1  0.76854453  0.52370456  0.71537949  1
  O  O36  1  0.27102388  0.24385145  0.52518643  1
  O  O37  1  0.72897612  0.24385145  0.47481357  1
  O  O38  1  0.27102388  0.75614855  0.47481357  1
  O  O39  1  0.72897612  0.75614855  0.52518643  1
