# generated using pymatgen
data_Li7Mn5O12
_symmetry_space_group_name_H-M   'P 1'
_cell_length_a   2.87231900
_cell_length_b   7.76604116
_cell_length_c   20.37268539
_cell_angle_alpha   84.60478498
_cell_angle_beta   94.04285774
_cell_angle_gamma   100.65597446
_symmetry_Int_Tables_number   1
_chemical_formula_structural   Li7Mn5O12
_chemical_formula_sum   'Li14 Mn10 O24'
_cell_volume   443.97320421
_cell_formula_units_Z   2
loop_
 _symmetry_equiv_pos_site_id
 _symmetry_equiv_pos_as_xyz
  1  'x, y, z'
loop_
 _atom_site_type_symbol
 _atom_site_label
 _atom_site_symmetry_multiplicity
 _atom_site_fract_x
 _atom_site_fract_y
 _atom_site_fract_z
 _atom_site_occupancy
  Li  Li0  1  0.66668300  0.25003600  0.08333100  1
  Li  Li1  1  0.66666800  0.75001400  0.58332800  1
  Li  Li2  1  0.50223500  0.88354100  0.12086600  1
  Li  Li3  1  0.50217500  0.38348900  0.62082500  1
  Li  Li4  1  0.83115200  0.61659400  0.04577500  1
  Li  Li5  1  0.83116700  0.11655800  0.54580700  1
  Li  Li6  1  0.51076500  0.63696800  0.38460000  1
  Li  Li7  1  0.51080300  0.13703900  0.88464000  1
  Li  Li8  1  0.82252100  0.36292200  0.28203200  1
  Li  Li9  1  0.82253100  0.86293300  0.78208700  1
  Li  Li10  1  0.15479900  0.11538600  0.19423100  1
  Li  Li11  1  0.15468400  0.61527100  0.69416600  1
  Li  Li12  1  0.17865400  0.88474900  0.47249200  1
  Li  Li13  1  0.17859300  0.38470900  0.97245500  1
  Mn  Mn14  1  0.66655300  0.99986800  0.33330100  1
  Mn  Mn15  1  0.01021300  0.51163500  0.50871100  1
  Mn  Mn16  1  0.32318100  0.48848900  0.15788300  1
  Mn  Mn17  1  0.99401300  0.24295200  0.74512600  1
  Mn  Mn18  1  0.33931900  0.75712700  0.92155900  1
  Mn  Mn19  1  0.66689500  0.49989100  0.83336900  1
  Mn  Mn20  1  0.01020700  0.01160000  0.00876300  1
  Mn  Mn21  1  0.32315300  0.98836400  0.65797700  1
  Mn  Mn22  1  0.99407800  0.74297000  0.24517300  1
  Mn  Mn23  1  0.33928300  0.25704200  0.42150300  1
  O  O24  1  0.43205600  0.84123700  0.02280100  1
  O  O25  1  0.43200300  0.34120700  0.52276700  1
  O  O26  1  0.90130900  0.65885600  0.14383800  1
  O  O27  1  0.90129000  0.15877600  0.64387000  1
  O  O28  1  0.41188800  0.56540000  0.25841300  1
  O  O29  1  0.41188800  0.06540000  0.75844600  1
  O  O30  1  0.92136900  0.43459400  0.40819700  1
  O  O31  1  0.92139700  0.93464500  0.90823800  1
  O  O32  1  0.07609800  0.05659000  0.09554000  1
  O  O33  1  0.07604100  0.55655800  0.59550300  1
  O  O34  1  0.25729600  0.44351000  0.07111300  1
  O  O35  1  0.25730100  0.94344300  0.57117200  1
  O  O36  1  0.08939100  0.82704800  0.35175200  1
  O  O37  1  0.08942300  0.32714900  0.85176400  1
  O  O38  1  0.24376000  0.17263400  0.31492400  1
  O  O39  1  0.24381700  0.67275400  0.81495700  1
  O  O40  1  0.76286400  0.08515600  0.44044600  1
  O  O41  1  0.76283700  0.58519400  0.94044500  1
  O  O42  1  0.57049400  0.91480900  0.22623900  1
  O  O43  1  0.57044400  0.41482400  0.72622000  1
  O  O44  1  0.75381800  0.32475200  0.18288600  1
  O  O45  1  0.75379400  0.82464200  0.68293600  1
  O  O46  1  0.57952900  0.67534000  0.48374900  1
  O  O47  1  0.57956700  0.17533500  0.98378200  1
