# generated using pymatgen
data_SrCo(GeO3)4
_symmetry_space_group_name_H-M   'P 1'
_cell_length_a   5.31846788
_cell_length_b   5.31846788
_cell_length_c   7.45963679
_cell_angle_alpha   90.00000000
_cell_angle_beta   90.00000000
_cell_angle_gamma   90.00000000
_symmetry_Int_Tables_number   1
_chemical_formula_structural   SrCo(GeO3)4
_chemical_formula_sum   'Sr1 Co1 Ge4 O12'
_cell_volume   211.00403661
_cell_formula_units_Z   1
loop_
 _symmetry_equiv_pos_site_id
 _symmetry_equiv_pos_as_xyz
  1  'x, y, z'
loop_
 _atom_site_type_symbol
 _atom_site_label
 _atom_site_symmetry_multiplicity
 _atom_site_fract_x
 _atom_site_fract_y
 _atom_site_fract_z
 _atom_site_occupancy
  Sr  Sr0  1  -0.00000000  0.00000000  -0.00000000  1
  Co  Co1  1  0.50000000  0.50000000  0.50000000  1
  Ge  Ge2  1  -0.00000000  0.50000000  0.74758861  1
  Ge  Ge3  1  0.00000000  0.50000000  0.25241139  1
  Ge  Ge4  1  0.50000000  0.00000000  0.74758861  1
  Ge  Ge5  1  0.50000000  -0.00000000  0.25241139  1
  O  O6  1  0.25797943  0.25797943  0.73626032  1
  O  O7  1  0.25797943  0.25797943  0.26373968  1
  O  O8  1  0.74202057  0.74202057  0.26373968  1
  O  O9  1  0.74202057  0.74202057  0.73626032  1
  O  O10  1  0.74202057  0.25797943  0.73626032  1
  O  O11  1  0.74202057  0.25797943  0.26373968  1
  O  O12  1  0.25797943  0.74202057  0.26373968  1
  O  O13  1  0.25797943  0.74202057  0.73626032  1
  O  O14  1  -0.00000000  0.50000000  0.50000000  1
  O  O15  1  -0.00000000  0.50000000  -0.00000000  1
  O  O16  1  0.50000000  0.00000000  0.50000000  1
  O  O17  1  0.50000000  -0.00000000  -0.00000000  1
