# generated using pymatgen
data_Ba2GdWO6
_symmetry_space_group_name_H-M   'P 1'
_cell_length_a   8.57920520
_cell_length_b   8.57920520
_cell_length_c   8.57920520
_cell_angle_alpha   90.00000000
_cell_angle_beta   90.00000000
_cell_angle_gamma   90.00000000
_symmetry_Int_Tables_number   1
_chemical_formula_structural   Ba2GdWO6
_chemical_formula_sum   'Ba8 Gd4 W4 O24'
_cell_volume   631.45319732
_cell_formula_units_Z   4
loop_
 _symmetry_equiv_pos_site_id
 _symmetry_equiv_pos_as_xyz
  1  'x, y, z'
loop_
 _atom_site_type_symbol
 _atom_site_label
 _atom_site_symmetry_multiplicity
 _atom_site_fract_x
 _atom_site_fract_y
 _atom_site_fract_z
 _atom_site_occupancy
  Ba  Ba0  1  0.50000000  0.50000000  0.50000000  1
  Ba  Ba1  1  -0.00000000  -0.00000000  0.00000000  1
  Ba  Ba2  1  -0.00000000  -0.00000000  0.50000000  1
  Ba  Ba3  1  -0.00000000  0.50000000  0.00000000  1
  Ba  Ba4  1  0.50000000  -0.00000000  0.00000000  1
  Ba  Ba5  1  0.50000000  0.50000000  0.00000000  1
  Ba  Ba6  1  0.50000000  -0.00000000  0.50000000  1
  Ba  Ba7  1  -0.00000000  0.50000000  0.50000000  1
  Gd  Gd8  1  0.75000000  0.75000000  0.75000000  1
  Gd  Gd9  1  0.75000000  0.25000000  0.25000000  1
  Gd  Gd10  1  0.25000000  0.75000000  0.25000000  1
  Gd  Gd11  1  0.25000000  0.25000000  0.75000000  1
  W  W12  1  0.25000000  0.25000000  0.25000000  1
  W  W13  1  0.25000000  0.75000000  0.75000000  1
  W  W14  1  0.75000000  0.25000000  0.75000000  1
  W  W15  1  0.75000000  0.75000000  0.25000000  1
  O  O16  1  0.23737058  0.26691978  0.48409913  1
  O  O17  1  0.23737058  0.73308022  0.51590087  1
  O  O18  1  0.76262942  0.26691978  0.51590087  1
  O  O19  1  0.76262942  0.73308022  0.48409913  1
  O  O20  1  0.26691978  0.48409913  0.23737058  1
  O  O21  1  0.73308022  0.51590087  0.23737058  1
  O  O22  1  0.26691978  0.51590087  0.76262942  1
  O  O23  1  0.73308022  0.48409913  0.76262942  1
  O  O24  1  0.48409913  0.23737058  0.26691978  1
  O  O25  1  0.51590087  0.23737058  0.73308022  1
  O  O26  1  0.51590087  0.76262942  0.26691978  1
  O  O27  1  0.48409913  0.76262942  0.73308022  1
  O  O28  1  0.26262942  0.23308022  0.01590087  1
  O  O29  1  0.26262942  0.76691978  0.98409913  1
  O  O30  1  0.73737058  0.23308022  0.98409913  1
  O  O31  1  0.73737058  0.76691978  0.01590087  1
  O  O32  1  0.23308022  0.01590087  0.26262942  1
  O  O33  1  0.76691978  0.98409913  0.26262942  1
  O  O34  1  0.23308022  0.98409913  0.73737058  1
  O  O35  1  0.76691978  0.01590087  0.73737058  1
  O  O36  1  0.01590087  0.26262942  0.23308022  1
  O  O37  1  0.98409913  0.26262942  0.76691978  1
  O  O38  1  0.98409913  0.73737058  0.23308022  1
  O  O39  1  0.01590087  0.73737058  0.76691978  1
