# generated using pymatgen
data_SrLaEuNbO6
_symmetry_space_group_name_H-M   'P 1'
_cell_length_a   5.90359687
_cell_length_b   6.08077422
_cell_length_c   8.47719274
_cell_angle_alpha   89.78280112
_cell_angle_beta   90.68204648
_cell_angle_gamma   89.96092617
_symmetry_Int_Tables_number   1
_chemical_formula_structural   SrLaEuNbO6
_chemical_formula_sum   'Sr2 La2 Eu2 Nb2 O12'
_cell_volume   304.29416389
_cell_formula_units_Z   2
loop_
 _symmetry_equiv_pos_site_id
 _symmetry_equiv_pos_as_xyz
  1  'x, y, z'
loop_
 _atom_site_type_symbol
 _atom_site_label
 _atom_site_symmetry_multiplicity
 _atom_site_fract_x
 _atom_site_fract_y
 _atom_site_fract_z
 _atom_site_occupancy
  Sr  Sr0  1  0.98716379  0.05006166  0.25013434  1
  Sr  Sr1  1  0.01283621  0.94993834  0.74986566  1
  La  La2  1  0.00000000  0.50000000  -0.00000000  1
  La  La3  1  0.50000000  -0.00000000  0.50000000  1
  Eu  Eu4  1  0.51629597  0.55274678  0.24858730  1
  Eu  Eu5  1  0.48370403  0.44725322  0.75141270  1
  Nb  Nb6  1  0.50000000  -0.00000000  -0.00000000  1
  Nb  Nb7  1  0.00000000  0.50000000  0.50000000  1
  O  O8  1  0.22153464  0.18286506  0.94604041  1
  O  O9  1  0.27794273  0.68123525  0.55864111  1
  O  O10  1  0.77846536  0.81713494  0.05395959  1
  O  O11  1  0.72205727  0.31876475  0.44135889  1
  O  O12  1  0.32785932  0.71862759  0.93887358  1
  O  O13  1  0.17552091  0.22155601  0.56010793  1
  O  O14  1  0.67214068  0.28137241  0.06112642  1
  O  O15  1  0.82447909  0.77844399  0.43989207  1
  O  O16  1  0.39668664  0.95452765  0.22698150  1
  O  O17  1  0.11291295  0.46231151  0.27376924  1
  O  O18  1  0.60331336  0.04547235  0.77301850  1
  O  O19  1  0.88708705  0.53768849  0.72623076  1
