# generated using pymatgen
data_KCeNbSnO6
_symmetry_space_group_name_H-M   'P 1'
_cell_length_a   6.02611195
_cell_length_b   6.02611195
_cell_length_c   8.49138535
_cell_angle_alpha   90.00000000
_cell_angle_beta   90.00000000
_cell_angle_gamma   90.00000000
_symmetry_Int_Tables_number   1
_chemical_formula_structural   KCeNbSnO6
_chemical_formula_sum   'K2 Ce2 Nb2 Sn2 O12'
_cell_volume   308.35638187
_cell_formula_units_Z   2
loop_
 _symmetry_equiv_pos_site_id
 _symmetry_equiv_pos_as_xyz
  1  'x, y, z'
loop_
 _atom_site_type_symbol
 _atom_site_label
 _atom_site_symmetry_multiplicity
 _atom_site_fract_x
 _atom_site_fract_y
 _atom_site_fract_z
 _atom_site_occupancy
  K  K0  1  0.00000000  0.00000000  0.25000000  1
  K  K1  1  0.00000000  0.00000000  0.75000000  1
  Ce  Ce2  1  0.00000000  0.50000000  0.00000000  1
  Ce  Ce3  1  0.50000000  0.00000000  0.50000000  1
  Nb  Nb4  1  0.00000000  0.50000000  0.50000000  1
  Nb  Nb5  1  0.50000000  0.00000000  0.00000000  1
  Sn  Sn6  1  0.50000000  0.50000000  0.75000000  1
  Sn  Sn7  1  0.50000000  0.50000000  0.25000000  1
  O  O8  1  0.00000000  0.50000000  0.73719356  1
  O  O9  1  0.50000000  0.00000000  0.76280644  1
  O  O10  1  0.24526412  0.72899106  0.50000000  1
  O  O11  1  0.75473588  0.27100894  0.50000000  1
  O  O12  1  0.27100894  0.75473588  0.00000000  1
  O  O13  1  0.72899106  0.24526412  0.00000000  1
  O  O14  1  0.24526412  0.27100894  0.50000000  1
  O  O15  1  0.27100894  0.24526412  0.00000000  1
  O  O16  1  0.75473588  0.72899106  0.50000000  1
  O  O17  1  0.72899106  0.75473588  0.00000000  1
  O  O18  1  0.00000000  0.50000000  0.26280644  1
  O  O19  1  0.50000000  0.00000000  0.23719356  1
