# generated using pymatgen
data_BaSrSmWO6
_symmetry_space_group_name_H-M   'P 1'
_cell_length_a   8.55725462
_cell_length_b   8.46327734
_cell_length_c   8.56504339
_cell_angle_alpha   90.00000000
_cell_angle_beta   90.00000000
_cell_angle_gamma   90.00000000
_symmetry_Int_Tables_number   1
_chemical_formula_structural   BaSrSmWO6
_chemical_formula_sum   'Ba4 Sr4 Sm4 W4 O24'
_cell_volume   620.30116215
_cell_formula_units_Z   4
loop_
 _symmetry_equiv_pos_site_id
 _symmetry_equiv_pos_as_xyz
  1  'x, y, z'
loop_
 _atom_site_type_symbol
 _atom_site_label
 _atom_site_symmetry_multiplicity
 _atom_site_fract_x
 _atom_site_fract_y
 _atom_site_fract_z
 _atom_site_occupancy
  Ba  Ba0  1  0.00000000  -0.00000000  -0.00000000  1
  Ba  Ba1  1  0.50000000  0.50000000  0.50000000  1
  Ba  Ba2  1  0.50000000  0.00000000  0.50000000  1
  Ba  Ba3  1  0.00000000  0.50000000  -0.00000000  1
  Sr  Sr4  1  0.00000000  0.50000000  0.50000000  1
  Sr  Sr5  1  0.50000000  0.50000000  -0.00000000  1
  Sr  Sr6  1  0.50000000  0.00000000  -0.00000000  1
  Sr  Sr7  1  0.00000000  0.00000000  0.50000000  1
  Sm  Sm8  1  0.75000000  0.75000000  0.75000000  1
  Sm  Sm9  1  0.25000000  0.25000000  0.75000000  1
  Sm  Sm10  1  0.25000000  0.75000000  0.25000000  1
  Sm  Sm11  1  0.75000000  0.25000000  0.25000000  1
  W  W12  1  0.25000000  0.25000000  0.25000000  1
  W  W13  1  0.75000000  0.75000000  0.25000000  1
  W  W14  1  0.75000000  0.25000000  0.75000000  1
  W  W15  1  0.25000000  0.75000000  0.75000000  1
  O  O16  1  0.01685073  0.21372423  0.27986305  1
  O  O17  1  0.98314927  0.78627577  0.27986305  1
  O  O18  1  0.98314927  0.21372423  0.72013695  1
  O  O19  1  0.01685073  0.78627577  0.72013695  1
  O  O20  1  0.28862524  0.01937800  0.21847999  1
  O  O21  1  0.28862524  0.98062200  0.78152001  1
  O  O22  1  0.71137476  0.98062200  0.21847999  1
  O  O23  1  0.71137476  0.01937800  0.78152001  1
  O  O24  1  0.22411563  0.27681607  0.01494520  1
  O  O25  1  0.77588437  0.27681607  0.98505480  1
  O  O26  1  0.22411563  0.72318393  0.98505480  1
  O  O27  1  0.77588437  0.72318393  0.01494520  1
  O  O28  1  0.48314927  0.28627577  0.22013695  1
  O  O29  1  0.51685073  0.71372423  0.22013695  1
  O  O30  1  0.51685073  0.28627577  0.77986305  1
  O  O31  1  0.48314927  0.71372423  0.77986305  1
  O  O32  1  0.21137476  0.48062200  0.28152001  1
  O  O33  1  0.21137476  0.51937800  0.71847999  1
  O  O34  1  0.78862524  0.51937800  0.28152001  1
  O  O35  1  0.78862524  0.48062200  0.71847999  1
  O  O36  1  0.27588437  0.22318393  0.48505480  1
  O  O37  1  0.72411563  0.22318393  0.51494520  1
  O  O38  1  0.27588437  0.77681607  0.51494520  1
  O  O39  1  0.72411563  0.77681607  0.48505480  1
