# generated using pymatgen
data_BaSrLaVO6
_symmetry_space_group_name_H-M   'P 1'
_cell_length_a   8.45976844
_cell_length_b   8.47691897
_cell_length_c   8.45619456
_cell_angle_alpha   90.00000000
_cell_angle_beta   90.00000000
_cell_angle_gamma   90.00000000
_symmetry_Int_Tables_number   1
_chemical_formula_structural   BaSrLaVO6
_chemical_formula_sum   'Ba4 Sr4 La4 V4 O24'
_cell_volume   606.41714884
_cell_formula_units_Z   4
loop_
 _symmetry_equiv_pos_site_id
 _symmetry_equiv_pos_as_xyz
  1  'x, y, z'
loop_
 _atom_site_type_symbol
 _atom_site_label
 _atom_site_symmetry_multiplicity
 _atom_site_fract_x
 _atom_site_fract_y
 _atom_site_fract_z
 _atom_site_occupancy
  Ba  Ba0  1  0.00000000  0.00000000  0.00000000  1
  Ba  Ba1  1  0.50000000  0.50000000  0.50000000  1
  Ba  Ba2  1  0.50000000  -0.00000000  0.50000000  1
  Ba  Ba3  1  0.50000000  0.50000000  -0.00000000  1
  Sr  Sr4  1  0.00000000  0.50000000  0.50000000  1
  Sr  Sr5  1  0.50000000  -0.00000000  0.00000000  1
  Sr  Sr6  1  0.00000000  0.50000000  0.00000000  1
  Sr  Sr7  1  0.00000000  -0.00000000  0.50000000  1
  La  La8  1  0.75250909  0.74954774  0.75125280  1
  La  La9  1  0.24749091  0.25045226  0.75125280  1
  La  La10  1  0.24749091  0.74954774  0.24874720  1
  La  La11  1  0.75250909  0.25045226  0.24874720  1
  V  V12  1  0.24632493  0.24844850  0.25054502  1
  V  V13  1  0.75367507  0.75155150  0.25054502  1
  V  V14  1  0.75367507  0.24844850  0.74945498  1
  V  V15  1  0.24632493  0.75155150  0.74945498  1
  O  O16  1  0.02519863  0.21078757  0.28109310  1
  O  O17  1  0.97480137  0.78921243  0.28109310  1
  O  O18  1  0.97480137  0.21078757  0.71890690  1
  O  O19  1  0.02519863  0.78921243  0.71890690  1
  O  O20  1  0.27832423  0.02661088  0.21264441  1
  O  O21  1  0.27832423  0.97338912  0.78735559  1
  O  O22  1  0.72167577  0.97338912  0.21264441  1
  O  O23  1  0.72167577  0.02661088  0.78735559  1
  O  O24  1  0.21304749  0.28354476  0.02803516  1
  O  O25  1  0.78695251  0.28354476  0.97196484  1
  O  O26  1  0.21304749  0.71645524  0.97196484  1
  O  O27  1  0.78695251  0.71645524  0.02803516  1
  O  O28  1  0.47212808  0.27353763  0.22979896  1
  O  O29  1  0.52787192  0.72646237  0.22979896  1
  O  O30  1  0.52787192  0.27353763  0.77020104  1
  O  O31  1  0.47212808  0.72646237  0.77020104  1
  O  O32  1  0.21745989  0.47459149  0.27976662  1
  O  O33  1  0.21745989  0.52540851  0.72023338  1
  O  O34  1  0.78254011  0.52540851  0.27976662  1
  O  O35  1  0.78254011  0.47459149  0.72023338  1
  O  O36  1  0.27019296  0.22633082  0.47473949  1
  O  O37  1  0.72980704  0.22633082  0.52526051  1
  O  O38  1  0.27019296  0.77366918  0.52526051  1
  O  O39  1  0.72980704  0.77366918  0.47473949  1
