# generated using pymatgen
data_KBaBiWO6
_symmetry_space_group_name_H-M   'P 1'
_cell_length_a   8.60633021
_cell_length_b   8.58857505
_cell_length_c   8.59962602
_cell_angle_alpha   90.00000000
_cell_angle_beta   90.00000000
_cell_angle_gamma   90.00000000
_symmetry_Int_Tables_number   1
_chemical_formula_structural   KBaBiWO6
_chemical_formula_sum   'K4 Ba4 Bi4 W4 O24'
_cell_volume   635.65092791
_cell_formula_units_Z   4
loop_
 _symmetry_equiv_pos_site_id
 _symmetry_equiv_pos_as_xyz
  1  'x, y, z'
loop_
 _atom_site_type_symbol
 _atom_site_label
 _atom_site_symmetry_multiplicity
 _atom_site_fract_x
 _atom_site_fract_y
 _atom_site_fract_z
 _atom_site_occupancy
  K  K0  1  0.50000000  0.00000000  0.50000000  1
  K  K1  1  0.50000000  0.50000000  0.00000000  1
  K  K2  1  0.00000000  0.50000000  0.00000000  1
  K  K3  1  0.00000000  0.00000000  0.50000000  1
  Ba  Ba4  1  -0.00000000  0.50000000  0.50000000  1
  Ba  Ba5  1  0.50000000  -0.00000000  0.00000000  1
  Ba  Ba6  1  0.00000000  -0.00000000  0.00000000  1
  Ba  Ba7  1  0.50000000  0.50000000  0.50000000  1
  Bi  Bi8  1  0.75000000  0.75000000  0.75000000  1
  Bi  Bi9  1  0.25000000  0.25000000  0.75000000  1
  Bi  Bi10  1  0.25000000  0.75000000  0.25000000  1
  Bi  Bi11  1  0.75000000  0.25000000  0.25000000  1
  W  W12  1  0.25000000  0.25000000  0.25000000  1
  W  W13  1  0.75000000  0.75000000  0.25000000  1
  W  W14  1  0.75000000  0.25000000  0.75000000  1
  W  W15  1  0.25000000  0.75000000  0.75000000  1
  O  O16  1  0.02332302  0.23343118  0.26570546  1
  O  O17  1  0.97667698  0.76656882  0.26570546  1
  O  O18  1  0.97667698  0.23343118  0.73429454  1
  O  O19  1  0.02332302  0.76656882  0.73429454  1
  O  O20  1  0.26511298  0.02238723  0.22677362  1
  O  O21  1  0.26511298  0.97761277  0.77322638  1
  O  O22  1  0.73488702  0.97761277  0.22677362  1
  O  O23  1  0.73488702  0.02238723  0.77322638  1
  O  O24  1  0.23246990  0.25944913  0.02305126  1
  O  O25  1  0.76753010  0.25944913  0.97694874  1
  O  O26  1  0.23246990  0.74055087  0.97694874  1
  O  O27  1  0.76753010  0.74055087  0.02305126  1
  O  O28  1  0.47667698  0.26656882  0.23429454  1
  O  O29  1  0.52332302  0.73343118  0.23429454  1
  O  O30  1  0.52332302  0.26656882  0.76570546  1
  O  O31  1  0.47667698  0.73343118  0.76570546  1
  O  O32  1  0.23488702  0.47761277  0.27322638  1
  O  O33  1  0.23488702  0.52238723  0.72677362  1
  O  O34  1  0.76511298  0.52238723  0.27322638  1
  O  O35  1  0.76511298  0.47761277  0.72677362  1
  O  O36  1  0.26753010  0.24055087  0.47694874  1
  O  O37  1  0.73246990  0.24055087  0.52305126  1
  O  O38  1  0.26753010  0.75944913  0.52305126  1
  O  O39  1  0.73246990  0.75944913  0.47694874  1
