# generated using pymatgen
data_BaSrLaVO6
_symmetry_space_group_name_H-M   'P 1'
_cell_length_a   5.98641006
_cell_length_b   5.98854923
_cell_length_c   8.46813573
_cell_angle_alpha   90.77045404
_cell_angle_beta   90.66600947
_cell_angle_gamma   90.36404370
_symmetry_Int_Tables_number   1
_chemical_formula_structural   BaSrLaVO6
_chemical_formula_sum   'Ba2 Sr2 La2 V2 O12'
_cell_volume   303.52752663
_cell_formula_units_Z   2
loop_
 _symmetry_equiv_pos_site_id
 _symmetry_equiv_pos_as_xyz
  1  'x, y, z'
loop_
 _atom_site_type_symbol
 _atom_site_label
 _atom_site_symmetry_multiplicity
 _atom_site_fract_x
 _atom_site_fract_y
 _atom_site_fract_z
 _atom_site_occupancy
  Ba  Ba0  1  0.50544744  0.52417318  0.24964263  1
  Ba  Ba1  1  0.49455256  0.47582682  0.75035737  1
  Sr  Sr2  1  0.99254975  0.03637761  0.25369640  1
  Sr  Sr3  1  0.00745025  0.96362239  0.74630360  1
  La  La4  1  0.00000000  0.50000000  0.00000000  1
  La  La5  1  0.50000000  -0.00000000  0.50000000  1
  V  V6  1  0.50000000  -0.00000000  0.00000000  1
  V  V7  1  0.00000000  0.50000000  0.50000000  1
  O  O8  1  0.24592479  0.19183055  0.95960137  1
  O  O9  1  0.25157318  0.69476010  0.52983691  1
  O  O10  1  0.75407521  0.80816945  0.04039863  1
  O  O11  1  0.74842682  0.30523990  0.47016309  1
  O  O12  1  0.30643612  0.74738831  0.96426000  1
  O  O13  1  0.18592457  0.23862597  0.53713728  1
  O  O14  1  0.69356388  0.25261169  0.03574000  1
  O  O15  1  0.81407543  0.76137403  0.46286272  1
  O  O16  1  0.42412372  0.99671578  0.22236001  1
  O  O17  1  0.05722751  0.47327532  0.27737031  1
  O  O18  1  0.57587628  0.00328422  0.77763999  1
  O  O19  1  0.94277249  0.52672468  0.72262969  1
