# generated using pymatgen
data_BaSrLaBiO6
_symmetry_space_group_name_H-M   'P 1'
_cell_length_a   6.10832192
_cell_length_b   6.32146881
_cell_length_c   8.77607295
_cell_angle_alpha   90.00077254
_cell_angle_beta   89.46799585
_cell_angle_gamma   89.99952652
_symmetry_Int_Tables_number   1
_chemical_formula_structural   BaSrLaBiO6
_chemical_formula_sum   'Ba2 Sr2 La2 Bi2 O12'
_cell_volume   338.86086851
_cell_formula_units_Z   2
loop_
 _symmetry_equiv_pos_site_id
 _symmetry_equiv_pos_as_xyz
  1  'x, y, z'
loop_
 _atom_site_type_symbol
 _atom_site_label
 _atom_site_symmetry_multiplicity
 _atom_site_fract_x
 _atom_site_fract_y
 _atom_site_fract_z
 _atom_site_occupancy
  Ba  Ba0  1  0.99425738  0.03379522  0.24735184  1
  Ba  Ba1  1  0.49421353  0.46618717  0.74735048  1
  Sr  Sr2  1  0.50322950  0.01473722  0.99727295  1
  Sr  Sr3  1  0.00323194  0.48525507  0.49728180  1
  La  La4  1  0.52378707  0.56233016  0.24751447  1
  La  La5  1  0.02382870  0.93767637  0.74750368  1
  Bi  Bi6  1  0.00122945  0.50078243  0.00055692  1
  Bi  Bi7  1  0.50116528  0.99917696  0.50055425  1
  O  O8  1  0.15119901  0.20356179  0.93420175  1
  O  O9  1  0.29718158  0.73515432  0.56710666  1
  O  O10  1  0.79714436  0.76487832  0.06712220  1
  O  O11  1  0.65123712  0.29642842  0.43418324  1
  O  O12  1  0.26612778  0.71054215  0.94757527  1
  O  O13  1  0.20712791  0.16618458  0.56525305  1
  O  O14  1  0.70707831  0.33384179  0.06523514  1
  O  O15  1  0.76616847  0.78945842  0.44758190  1
  O  O16  1  0.41281671  0.93600928  0.26728909  1
  O  O17  1  0.14308783  0.46366231  0.22588600  1
  O  O18  1  0.64309979  0.03634963  0.72589390  1
  O  O19  1  0.91278831  0.56398838  0.76728542  1
