# generated using pymatgen
data_Nb4GaSe8
_symmetry_space_group_name_H-M   'P 1'
_cell_length_a   7.46376522
_cell_length_b   7.46376522
_cell_length_c   7.46376522
_cell_angle_alpha   60.00000000
_cell_angle_beta   60.00000000
_cell_angle_gamma   60.00000000
_symmetry_Int_Tables_number   1
_chemical_formula_structural   Nb4GaSe8
_chemical_formula_sum   'Nb4 Ga1 Se8'
_cell_volume   294.00784004
_cell_formula_units_Z   1
loop_
 _symmetry_equiv_pos_site_id
 _symmetry_equiv_pos_as_xyz
  1  'x, y, z'
loop_
 _atom_site_type_symbol
 _atom_site_label
 _atom_site_symmetry_multiplicity
 _atom_site_fract_x
 _atom_site_fract_y
 _atom_site_fract_z
 _atom_site_occupancy
  Nb  Nb0  1  0.39723900  0.39723900  0.80828300  1
  Nb  Nb1  1  0.39723900  0.80828300  0.39723900  1
  Nb  Nb2  1  0.80828300  0.39723900  0.39723900  1
  Nb  Nb3  1  0.39723900  0.39723900  0.39723900  1
  Ga  Ga4  1  0.00000000  0.00000000  0.00000000  1
  Se  Se5  1  0.13520500  0.13520500  0.59438400  1
  Se  Se6  1  0.13520500  0.59438400  0.13520500  1
  Se  Se7  1  0.59438400  0.13520500  0.13520500  1
  Se  Se8  1  0.63473300  0.63473300  0.63473300  1
  Se  Se9  1  0.09580100  0.63473300  0.63473300  1
  Se  Se10  1  0.63473300  0.09580100  0.63473300  1
  Se  Se11  1  0.63473300  0.63473300  0.09580100  1
  Se  Se12  1  0.13520500  0.13520500  0.13520500  1
