# generated using pymatgen
data_KLaEuSbO6
_symmetry_space_group_name_H-M   'P 1'
_cell_length_a   9.21117755
_cell_length_b   9.19711803
_cell_length_c   9.34066937
_cell_angle_alpha   90.00000000
_cell_angle_beta   90.00000000
_cell_angle_gamma   90.00000000
_symmetry_Int_Tables_number   1
_chemical_formula_structural   KLaEuSbO6
_chemical_formula_sum   'K4 La4 Eu4 Sb4 O24'
_cell_volume   791.30682827
_cell_formula_units_Z   4
loop_
 _symmetry_equiv_pos_site_id
 _symmetry_equiv_pos_as_xyz
  1  'x, y, z'
loop_
 _atom_site_type_symbol
 _atom_site_label
 _atom_site_symmetry_multiplicity
 _atom_site_fract_x
 _atom_site_fract_y
 _atom_site_fract_z
 _atom_site_occupancy
  K  K0  1  0.00000000  0.50000000  0.50000000  1
  K  K1  1  0.50000000  0.50000000  0.00000000  1
  K  K2  1  0.50000000  0.00000000  0.00000000  1
  K  K3  1  0.00000000  0.00000000  0.50000000  1
  La  La4  1  0.75000000  0.75000000  0.75000000  1
  La  La5  1  0.25000000  0.25000000  0.75000000  1
  La  La6  1  0.25000000  0.75000000  0.25000000  1
  La  La7  1  0.75000000  0.25000000  0.25000000  1
  Eu  Eu8  1  0.50000000  0.00000000  0.50000000  1
  Eu  Eu9  1  0.00000000  0.50000000  0.00000000  1
  Eu  Eu10  1  0.00000000  0.00000000  0.00000000  1
  Eu  Eu11  1  0.50000000  0.50000000  0.50000000  1
  Sb  Sb12  1  0.25000000  0.25000000  0.25000000  1
  Sb  Sb13  1  0.75000000  0.75000000  0.25000000  1
  Sb  Sb14  1  0.75000000  0.25000000  0.75000000  1
  Sb  Sb15  1  0.25000000  0.75000000  0.75000000  1
  O  O16  1  0.02108458  0.20103988  0.28487375  1
  O  O17  1  0.97891542  0.79896012  0.28487375  1
  O  O18  1  0.97891542  0.20103988  0.71512625  1
  O  O19  1  0.02108458  0.79896012  0.71512625  1
  O  O20  1  0.28777680  0.02074853  0.20269293  1
  O  O21  1  0.28777680  0.97925147  0.79730707  1
  O  O22  1  0.71222320  0.97925147  0.20269293  1
  O  O23  1  0.71222320  0.02074853  0.79730707  1
  O  O24  1  0.19379453  0.29191461  0.01875005  1
  O  O25  1  0.80620547  0.29191461  0.98124995  1
  O  O26  1  0.19379453  0.70808539  0.98124995  1
  O  O27  1  0.80620547  0.70808539  0.01875005  1
  O  O28  1  0.47891542  0.29896012  0.21512625  1
  O  O29  1  0.52108458  0.70103988  0.21512625  1
  O  O30  1  0.52108458  0.29896012  0.78487375  1
  O  O31  1  0.47891542  0.70103988  0.78487375  1
  O  O32  1  0.21222320  0.47925147  0.29730707  1
  O  O33  1  0.21222320  0.52074853  0.70269293  1
  O  O34  1  0.78777680  0.52074853  0.29730707  1
  O  O35  1  0.78777680  0.47925147  0.70269293  1
  O  O36  1  0.30620547  0.20808539  0.48124995  1
  O  O37  1  0.69379453  0.20808539  0.51875005  1
  O  O38  1  0.30620547  0.79191461  0.51875005  1
  O  O39  1  0.69379453  0.79191461  0.48124995  1
