# generated using pymatgen
data_BaSrPrVO6
_symmetry_space_group_name_H-M   'P 1'
_cell_length_a   8.44077751
_cell_length_b   8.44570604
_cell_length_c   8.46212407
_cell_angle_alpha   90.00000000
_cell_angle_beta   90.00000000
_cell_angle_gamma   90.00000000
_symmetry_Int_Tables_number   1
_chemical_formula_structural   BaSrPrVO6
_chemical_formula_sum   'Ba4 Sr4 Pr4 V4 O24'
_cell_volume   603.25065596
_cell_formula_units_Z   4
loop_
 _symmetry_equiv_pos_site_id
 _symmetry_equiv_pos_as_xyz
  1  'x, y, z'
loop_
 _atom_site_type_symbol
 _atom_site_label
 _atom_site_symmetry_multiplicity
 _atom_site_fract_x
 _atom_site_fract_y
 _atom_site_fract_z
 _atom_site_occupancy
  Ba  Ba0  1  -0.00000000  -0.00000000  -0.00000000  1
  Ba  Ba1  1  0.50000000  0.50000000  0.50000000  1
  Ba  Ba2  1  0.50000000  -0.00000000  -0.00000000  1
  Ba  Ba3  1  0.00000000  -0.00000000  0.50000000  1
  Sr  Sr4  1  0.00000000  0.50000000  0.50000000  1
  Sr  Sr5  1  0.50000000  -0.00000000  0.50000000  1
  Sr  Sr6  1  0.50000000  0.50000000  -0.00000000  1
  Sr  Sr7  1  0.00000000  0.50000000  -0.00000000  1
  Pr  Pr8  1  0.74840677  0.74722796  0.75038111  1
  Pr  Pr9  1  0.25159323  0.25277204  0.75038111  1
  Pr  Pr10  1  0.25159323  0.74722796  0.24961889  1
  Pr  Pr11  1  0.74840677  0.25277204  0.24961889  1
  V  V12  1  0.24918996  0.25360333  0.25171879  1
  V  V13  1  0.75081004  0.74639667  0.25171879  1
  V  V14  1  0.75081004  0.25360333  0.74828121  1
  V  V15  1  0.24918996  0.74639667  0.74828121  1
  O  O16  1  0.02504880  0.23003378  0.27321990  1
  O  O17  1  0.97495120  0.76996622  0.27321990  1
  O  O18  1  0.97495120  0.23003378  0.72678010  1
  O  O19  1  0.02504880  0.76996622  0.72678010  1
  O  O20  1  0.27000309  0.02702585  0.22738088  1
  O  O21  1  0.27000309  0.97297415  0.77261912  1
  O  O22  1  0.72999691  0.97297415  0.22738088  1
  O  O23  1  0.72999691  0.02702585  0.77261912  1
  O  O24  1  0.22096060  0.28156549  0.02519648  1
  O  O25  1  0.77903940  0.28156549  0.97480352  1
  O  O26  1  0.22096060  0.71843451  0.97480352  1
  O  O27  1  0.77903940  0.71843451  0.02519648  1
  O  O28  1  0.47247762  0.28598600  0.21723603  1
  O  O29  1  0.52752238  0.71401400  0.21723603  1
  O  O30  1  0.52752238  0.28598600  0.78276397  1
  O  O31  1  0.47247762  0.71401400  0.78276397  1
  O  O32  1  0.21915888  0.47483662  0.28795372  1
  O  O33  1  0.21915888  0.52516338  0.71204628  1
  O  O34  1  0.78084112  0.52516338  0.28795372  1
  O  O35  1  0.78084112  0.47483662  0.71204628  1
  O  O36  1  0.28624584  0.22220486  0.47388142  1
  O  O37  1  0.71375416  0.22220486  0.52611858  1
  O  O38  1  0.28624584  0.77779514  0.52611858  1
  O  O39  1  0.71375416  0.77779514  0.47388142  1
