# generated using pymatgen
data_NdEu2NbO6
_symmetry_space_group_name_H-M   'P 1'
_cell_length_a   8.49812323
_cell_length_b   8.49812323
_cell_length_c   8.49812323
_cell_angle_alpha   90.00000000
_cell_angle_beta   90.00000000
_cell_angle_gamma   90.00000000
_symmetry_Int_Tables_number   1
_chemical_formula_structural   NdEu2NbO6
_chemical_formula_sum   'Nd4 Eu8 Nb4 O24'
_cell_volume   613.71829991
_cell_formula_units_Z   4
loop_
 _symmetry_equiv_pos_site_id
 _symmetry_equiv_pos_as_xyz
  1  'x, y, z'
loop_
 _atom_site_type_symbol
 _atom_site_label
 _atom_site_symmetry_multiplicity
 _atom_site_fract_x
 _atom_site_fract_y
 _atom_site_fract_z
 _atom_site_occupancy
  Nd  Nd0  1  0.25000000  0.25000000  0.25000000  1
  Nd  Nd1  1  0.25000000  0.75000000  0.75000000  1
  Nd  Nd2  1  0.75000000  0.25000000  0.75000000  1
  Nd  Nd3  1  0.75000000  0.75000000  0.25000000  1
  Eu  Eu4  1  0.50000000  0.50000000  0.50000000  1
  Eu  Eu5  1  0.00000000  0.00000000  0.00000000  1
  Eu  Eu6  1  0.00000000  -0.00000000  0.50000000  1
  Eu  Eu7  1  0.00000000  0.50000000  0.00000000  1
  Eu  Eu8  1  0.50000000  0.00000000  0.00000000  1
  Eu  Eu9  1  0.50000000  0.50000000  0.00000000  1
  Eu  Eu10  1  0.50000000  -0.00000000  0.50000000  1
  Eu  Eu11  1  0.00000000  0.50000000  0.50000000  1
  Nb  Nb12  1  0.75000000  0.75000000  0.75000000  1
  Nb  Nb13  1  0.75000000  0.25000000  0.25000000  1
  Nb  Nb14  1  0.25000000  0.75000000  0.25000000  1
  Nb  Nb15  1  0.25000000  0.25000000  0.75000000  1
  O  O16  1  0.20995666  0.29877466  0.51809848  1
  O  O17  1  0.20995666  0.70122534  0.48190152  1
  O  O18  1  0.79004334  0.29877466  0.48190152  1
  O  O19  1  0.79004334  0.70122534  0.51809848  1
  O  O20  1  0.29877466  0.51809848  0.20995666  1
  O  O21  1  0.70122534  0.48190152  0.20995666  1
  O  O22  1  0.29877466  0.48190152  0.79004334  1
  O  O23  1  0.70122534  0.51809848  0.79004334  1
  O  O24  1  0.51809848  0.20995666  0.29877466  1
  O  O25  1  0.48190152  0.20995666  0.70122534  1
  O  O26  1  0.48190152  0.79004334  0.29877466  1
  O  O27  1  0.51809848  0.79004334  0.70122534  1
  O  O28  1  0.29004334  0.20122534  0.98190152  1
  O  O29  1  0.29004334  0.79877466  0.01809848  1
  O  O30  1  0.70995666  0.20122534  0.01809848  1
  O  O31  1  0.70995666  0.79877466  0.98190152  1
  O  O32  1  0.20122534  0.98190152  0.29004334  1
  O  O33  1  0.79877466  0.01809848  0.29004334  1
  O  O34  1  0.20122534  0.01809848  0.70995666  1
  O  O35  1  0.79877466  0.98190152  0.70995666  1
  O  O36  1  0.98190152  0.29004334  0.20122534  1
  O  O37  1  0.01809848  0.29004334  0.79877466  1
  O  O38  1  0.01809848  0.70995666  0.20122534  1
  O  O39  1  0.98190152  0.70995666  0.79877466  1
