# generated using pymatgen
data_KGdV4O12
_symmetry_space_group_name_H-M   'P 1'
_cell_length_a   6.14372579
_cell_length_b   6.14372579
_cell_length_c   7.26147656
_cell_angle_alpha   90.00000000
_cell_angle_beta   90.00000000
_cell_angle_gamma   110.18070511
_symmetry_Int_Tables_number   1
_chemical_formula_structural   KGdV4O12
_chemical_formula_sum   'K1 Gd1 V4 O12'
_cell_volume   257.26068319
_cell_formula_units_Z   1
loop_
 _symmetry_equiv_pos_site_id
 _symmetry_equiv_pos_as_xyz
  1  'x, y, z'
loop_
 _atom_site_type_symbol
 _atom_site_label
 _atom_site_symmetry_multiplicity
 _atom_site_fract_x
 _atom_site_fract_y
 _atom_site_fract_z
 _atom_site_occupancy
  K  K0  1  -0.03904550  0.03904550  0.50000000  1
  Gd  Gd1  1  0.43225832  0.56774168  -0.00000000  1
  V  V2  1  0.46281316  0.04266742  0.24643224  1
  V  V3  1  0.46281316  0.04266742  0.75356776  1
  V  V4  1  -0.04266742  0.53718684  0.75356776  1
  V  V5  1  -0.04266742  0.53718684  0.24643224  1
  O  O6  1  0.30673136  0.21275903  0.20669002  1
  O  O7  1  0.78724097  0.69326864  0.20669002  1
  O  O8  1  0.78724097  0.69326864  0.79330998  1
  O  O9  1  0.30673136  0.21275903  0.79330998  1
  O  O10  1  0.27931997  0.72068003  0.26273612  1
  O  O11  1  0.76641117  0.23358883  0.23351212  1
  O  O12  1  0.76641117  0.23358883  0.76648788  1
  O  O13  1  0.27931997  0.72068003  0.73726388  1
  O  O14  1  0.50395471  0.95299511  -0.00000000  1
  O  O15  1  0.48245940  0.04273024  0.50000000  1
  O  O16  1  0.04700489  0.49604529  -0.00000000  1
  O  O17  1  0.95726976  0.51754060  0.50000000  1
