# generated using pymatgen
data_BaCaCeSnO6
_symmetry_space_group_name_H-M   'P 1'
_cell_length_a   8.49482648
_cell_length_b   8.48352705
_cell_length_c   8.47810447
_cell_angle_alpha   90.00000000
_cell_angle_beta   90.00000000
_cell_angle_gamma   90.00000000
_symmetry_Int_Tables_number   1
_chemical_formula_structural   BaCaCeSnO6
_chemical_formula_sum   'Ba4 Ca4 Ce4 Sn4 O24'
_cell_volume   610.98384170
_cell_formula_units_Z   4
loop_
 _symmetry_equiv_pos_site_id
 _symmetry_equiv_pos_as_xyz
  1  'x, y, z'
loop_
 _atom_site_type_symbol
 _atom_site_label
 _atom_site_symmetry_multiplicity
 _atom_site_fract_x
 _atom_site_fract_y
 _atom_site_fract_z
 _atom_site_occupancy
  Ba  Ba0  1  0.00000000  -0.00000000  -0.00000000  1
  Ba  Ba1  1  0.50000000  0.50000000  0.50000000  1
  Ba  Ba2  1  0.50000000  -0.00000000  -0.00000000  1
  Ba  Ba3  1  0.00000000  0.50000000  -0.00000000  1
  Ca  Ca4  1  -0.00000000  0.50000000  0.50000000  1
  Ca  Ca5  1  0.50000000  -0.00000000  0.50000000  1
  Ca  Ca6  1  0.50000000  0.50000000  -0.00000000  1
  Ca  Ca7  1  -0.00000000  -0.00000000  0.50000000  1
  Ce  Ce8  1  0.74877823  0.74933434  0.74474724  1
  Ce  Ce9  1  0.25122177  0.25066566  0.74474724  1
  Ce  Ce10  1  0.25122177  0.74933434  0.25525276  1
  Ce  Ce11  1  0.74877823  0.25066566  0.25525276  1
  Sn  Sn12  1  0.25138747  0.25067327  0.25608578  1
  Sn  Sn13  1  0.74861253  0.74932673  0.25608578  1
  Sn  Sn14  1  0.74861253  0.25067327  0.74391422  1
  Sn  Sn15  1  0.25138747  0.74932673  0.74391422  1
  O  O16  1  0.00882284  0.20649693  0.29887362  1
  O  O17  1  0.99117716  0.79350307  0.29887362  1
  O  O18  1  0.99117716  0.20649693  0.70112638  1
  O  O19  1  0.00882284  0.79350307  0.70112638  1
  O  O20  1  0.28242025  0.00670009  0.22680981  1
  O  O21  1  0.28242025  0.99329991  0.77319019  1
  O  O22  1  0.71757975  0.99329991  0.22680981  1
  O  O23  1  0.71757975  0.00670009  0.77319019  1
  O  O24  1  0.21795636  0.27238207  0.00965552  1
  O  O25  1  0.78204364  0.27238207  0.99034448  1
  O  O26  1  0.21795636  0.72761793  0.99034448  1
  O  O27  1  0.78204364  0.72761793  0.00965552  1
  O  O28  1  0.49125886  0.30415509  0.20970629  1
  O  O29  1  0.50874114  0.69584491  0.20970629  1
  O  O30  1  0.50874114  0.30415509  0.79029371  1
  O  O31  1  0.49125886  0.69584491  0.79029371  1
  O  O32  1  0.20284556  0.49041115  0.30038008  1
  O  O33  1  0.20284556  0.50958885  0.69961992  1
  O  O34  1  0.79715444  0.50958885  0.30038008  1
  O  O35  1  0.79715444  0.49041115  0.69961992  1
  O  O36  1  0.30858371  0.21046034  0.49290288  1
  O  O37  1  0.69141629  0.21046034  0.50709712  1
  O  O38  1  0.30858371  0.78953966  0.50709712  1
  O  O39  1  0.69141629  0.78953966  0.49290288  1
