# generated using pymatgen
data_NaNd(FeO3)4
_symmetry_space_group_name_H-M   'P 1'
_cell_length_a   5.37851638
_cell_length_b   5.37851638
_cell_length_c   7.66081013
_cell_angle_alpha   90.00000000
_cell_angle_beta   90.00000000
_cell_angle_gamma   90.00000000
_symmetry_Int_Tables_number   1
_chemical_formula_structural   NaNd(FeO3)4
_chemical_formula_sum   'Na1 Nd1 Fe4 O12'
_cell_volume   221.61527432
_cell_formula_units_Z   1
loop_
 _symmetry_equiv_pos_site_id
 _symmetry_equiv_pos_as_xyz
  1  'x, y, z'
loop_
 _atom_site_type_symbol
 _atom_site_label
 _atom_site_symmetry_multiplicity
 _atom_site_fract_x
 _atom_site_fract_y
 _atom_site_fract_z
 _atom_site_occupancy
  Na  Na0  1  0.50000000  0.50000000  -0.00000000  1
  Nd  Nd1  1  0.00000000  0.00000000  0.50000000  1
  Fe  Fe2  1  -0.00000000  0.50000000  0.75529083  1
  Fe  Fe3  1  -0.00000000  0.50000000  0.24470917  1
  Fe  Fe4  1  0.50000000  0.00000000  0.24470917  1
  Fe  Fe5  1  0.50000000  -0.00000000  0.75529083  1
  O  O6  1  0.24194020  0.24194020  0.26185151  1
  O  O7  1  0.24194020  0.24194020  0.73814849  1
  O  O8  1  0.75805980  0.75805980  0.73814849  1
  O  O9  1  0.75805980  0.75805980  0.26185151  1
  O  O10  1  0.75805980  0.24194020  0.73814849  1
  O  O11  1  0.75805980  0.24194020  0.26185151  1
  O  O12  1  0.24194020  0.75805980  0.73814849  1
  O  O13  1  0.24194020  0.75805980  0.26185151  1
  O  O14  1  0.00000000  0.50000000  0.50000000  1
  O  O15  1  -0.00000000  0.50000000  0.00000000  1
  O  O16  1  0.50000000  0.00000000  0.50000000  1
  O  O17  1  0.50000000  -0.00000000  0.00000000  1
