# generated using pymatgen
data_KBaLaSeO6
_symmetry_space_group_name_H-M   'P 1'
_cell_length_a   8.40942055
_cell_length_b   8.41212639
_cell_length_c   8.42506470
_cell_angle_alpha   90.00000000
_cell_angle_beta   90.00000000
_cell_angle_gamma   90.00000000
_symmetry_Int_Tables_number   1
_chemical_formula_structural   KBaLaSeO6
_chemical_formula_sum   'K4 Ba4 La4 Se4 O24'
_cell_volume   595.99841634
_cell_formula_units_Z   4
loop_
 _symmetry_equiv_pos_site_id
 _symmetry_equiv_pos_as_xyz
  1  'x, y, z'
loop_
 _atom_site_type_symbol
 _atom_site_label
 _atom_site_symmetry_multiplicity
 _atom_site_fract_x
 _atom_site_fract_y
 _atom_site_fract_z
 _atom_site_occupancy
  K  K0  1  -0.00000000  0.50000000  0.50000000  1
  K  K1  1  0.50000000  -0.00000000  0.50000000  1
  K  K2  1  0.50000000  -0.00000000  0.00000000  1
  K  K3  1  0.00000000  0.50000000  0.00000000  1
  Ba  Ba4  1  0.50000000  0.50000000  0.00000000  1
  Ba  Ba5  1  -0.00000000  0.00000000  0.50000000  1
  Ba  Ba6  1  -0.00000000  -0.00000000  0.00000000  1
  Ba  Ba7  1  0.50000000  0.50000000  0.50000000  1
  La  La8  1  0.75000000  0.75000000  0.75000000  1
  La  La9  1  0.25000000  0.25000000  0.75000000  1
  La  La10  1  0.25000000  0.75000000  0.25000000  1
  La  La11  1  0.75000000  0.25000000  0.25000000  1
  Se  Se12  1  0.25000000  0.25000000  0.25000000  1
  Se  Se13  1  0.75000000  0.75000000  0.25000000  1
  Se  Se14  1  0.75000000  0.25000000  0.75000000  1
  Se  Se15  1  0.25000000  0.75000000  0.75000000  1
  O  O16  1  0.03025688  0.23849841  0.25672776  1
  O  O17  1  0.96974312  0.76150159  0.25672776  1
  O  O18  1  0.96974312  0.23849841  0.74327224  1
  O  O19  1  0.03025688  0.76150159  0.74327224  1
  O  O20  1  0.25230259  0.03040900  0.24259563  1
  O  O21  1  0.25230259  0.96959100  0.75740437  1
  O  O22  1  0.74769741  0.96959100  0.24259563  1
  O  O23  1  0.74769741  0.03040900  0.75740437  1
  O  O24  1  0.24273635  0.25724354  0.03100592  1
  O  O25  1  0.75726365  0.25724354  0.96899408  1
  O  O26  1  0.24273635  0.74275646  0.96899408  1
  O  O27  1  0.75726365  0.74275646  0.03100592  1
  O  O28  1  0.46974312  0.26150159  0.24327224  1
  O  O29  1  0.53025688  0.73849841  0.24327224  1
  O  O30  1  0.53025688  0.26150159  0.75672776  1
  O  O31  1  0.46974312  0.73849841  0.75672776  1
  O  O32  1  0.24769741  0.46959100  0.25740437  1
  O  O33  1  0.24769741  0.53040900  0.74259563  1
  O  O34  1  0.75230259  0.53040900  0.25740437  1
  O  O35  1  0.75230259  0.46959100  0.74259563  1
  O  O36  1  0.25726365  0.24275646  0.46899408  1
  O  O37  1  0.74273635  0.24275646  0.53100592  1
  O  O38  1  0.25726365  0.75724354  0.53100592  1
  O  O39  1  0.74273635  0.75724354  0.46899408  1
