# generated using pymatgen
data_BaSrZr4O12
_symmetry_space_group_name_H-M   'P 1'
_cell_length_a   5.95007904
_cell_length_b   5.95007904
_cell_length_c   8.38780272
_cell_angle_alpha   90.00000000
_cell_angle_beta   90.00000000
_cell_angle_gamma   89.70934844
_symmetry_Int_Tables_number   1
_chemical_formula_structural   BaSrZr4O12
_chemical_formula_sum   'Ba1 Sr1 Zr4 O12'
_cell_volume   296.95325447
_cell_formula_units_Z   1
loop_
 _symmetry_equiv_pos_site_id
 _symmetry_equiv_pos_as_xyz
  1  'x, y, z'
loop_
 _atom_site_type_symbol
 _atom_site_label
 _atom_site_symmetry_multiplicity
 _atom_site_fract_x
 _atom_site_fract_y
 _atom_site_fract_z
 _atom_site_occupancy
  Ba  Ba0  1  0.51276292  0.51276292  -0.00000000  1
  Sr  Sr1  1  0.98447086  0.98447086  0.50000000  1
  Zr  Zr2  1  0.49244314  0.00678158  0.74690027  1
  Zr  Zr3  1  0.49244314  0.00678158  0.25309973  1
  Zr  Zr4  1  0.00678158  0.49244314  0.25309973  1
  Zr  Zr5  1  0.00678158  0.49244314  0.74690027  1
  O  O6  1  0.73328392  0.26688086  0.75188141  1
  O  O7  1  0.26688086  0.73328392  0.75188141  1
  O  O8  1  0.26688086  0.73328392  0.24811859  1
  O  O9  1  0.73328392  0.26688086  0.24811859  1
  O  O10  1  0.76158703  0.76158703  0.75681317  1
  O  O11  1  0.22132618  0.22132618  0.71336879  1
  O  O12  1  0.22132618  0.22132618  0.28663121  1
  O  O13  1  0.76158703  0.76158703  0.24318683  1
  O  O14  1  0.49112303  0.01647061  -0.00000000  1
  O  O15  1  0.54607055  0.98619663  0.50000000  1
  O  O16  1  0.01647061  0.49112303  -0.00000000  1
  O  O17  1  0.98619663  0.54607055  0.50000000  1
