# generated using pymatgen
data_NdEu(GeO3)4
_symmetry_space_group_name_H-M   'P 1'
_cell_length_a   6.75701780
_cell_length_b   6.75701780
_cell_length_c   9.52475898
_cell_angle_alpha   90.00000000
_cell_angle_beta   90.00000000
_cell_angle_gamma   90.00000000
_symmetry_Int_Tables_number   1
_chemical_formula_structural   NdEu(GeO3)4
_chemical_formula_sum   'Nd1 Eu1 Ge4 O12'
_cell_volume   434.87467864
_cell_formula_units_Z   1
loop_
 _symmetry_equiv_pos_site_id
 _symmetry_equiv_pos_as_xyz
  1  'x, y, z'
loop_
 _atom_site_type_symbol
 _atom_site_label
 _atom_site_symmetry_multiplicity
 _atom_site_fract_x
 _atom_site_fract_y
 _atom_site_fract_z
 _atom_site_occupancy
  Nd  Nd0  1  -0.00000000  -0.00000000  0.00000000  1
  Eu  Eu1  1  0.50000000  0.50000000  0.50000000  1
  Ge  Ge2  1  -0.00000000  0.50000000  0.74483613  1
  Ge  Ge3  1  -0.00000000  0.50000000  0.25516387  1
  Ge  Ge4  1  0.50000000  0.00000000  0.74483613  1
  Ge  Ge5  1  0.50000000  -0.00000000  0.25516387  1
  O  O6  1  0.24628190  0.24628190  0.75322467  1
  O  O7  1  0.24628190  0.24628190  0.24677533  1
  O  O8  1  0.75371810  0.75371810  0.24677533  1
  O  O9  1  0.75371810  0.75371810  0.75322467  1
  O  O10  1  0.75371810  0.24628190  0.75322467  1
  O  O11  1  0.75371810  0.24628190  0.24677533  1
  O  O12  1  0.24628190  0.75371810  0.24677533  1
  O  O13  1  0.24628190  0.75371810  0.75322467  1
  O  O14  1  -0.00000000  0.50000000  0.50000000  1
  O  O15  1  -0.00000000  0.50000000  0.00000000  1
  O  O16  1  0.50000000  0.00000000  0.50000000  1
  O  O17  1  0.50000000  0.00000000  0.00000000  1
