# generated using pymatgen
data_NaSrPrNbO6
_symmetry_space_group_name_H-M   'P 1'
_cell_length_a   8.50932683
_cell_length_b   8.53077322
_cell_length_c   8.51533378
_cell_angle_alpha   90.00000000
_cell_angle_beta   90.00000000
_cell_angle_gamma   90.00000000
_symmetry_Int_Tables_number   1
_chemical_formula_structural   NaSrPrNbO6
_chemical_formula_sum   'Na4 Sr4 Pr4 Nb4 O24'
_cell_volume   618.13776479
_cell_formula_units_Z   4
loop_
 _symmetry_equiv_pos_site_id
 _symmetry_equiv_pos_as_xyz
  1  'x, y, z'
loop_
 _atom_site_type_symbol
 _atom_site_label
 _atom_site_symmetry_multiplicity
 _atom_site_fract_x
 _atom_site_fract_y
 _atom_site_fract_z
 _atom_site_occupancy
  Na  Na0  1  0.00000000  -0.00000000  -0.00000000  1
  Na  Na1  1  0.50000000  0.50000000  0.50000000  1
  Na  Na2  1  0.00000000  0.50000000  0.50000000  1
  Na  Na3  1  0.50000000  -0.00000000  -0.00000000  1
  Sr  Sr4  1  0.50000000  0.00000000  0.50000000  1
  Sr  Sr5  1  0.50000000  0.50000000  -0.00000000  1
  Sr  Sr6  1  0.00000000  0.50000000  -0.00000000  1
  Sr  Sr7  1  0.00000000  -0.00000000  0.50000000  1
  Pr  Pr8  1  0.25000000  0.25000000  0.25000000  1
  Pr  Pr9  1  0.75000000  0.75000000  0.25000000  1
  Pr  Pr10  1  0.75000000  0.25000000  0.75000000  1
  Pr  Pr11  1  0.25000000  0.75000000  0.75000000  1
  Nb  Nb12  1  0.75000000  0.75000000  0.75000000  1
  Nb  Nb13  1  0.25000000  0.25000000  0.75000000  1
  Nb  Nb14  1  0.25000000  0.75000000  0.25000000  1
  Nb  Nb15  1  0.75000000  0.25000000  0.25000000  1
  O  O16  1  0.97833286  0.19331478  0.27658414  1
  O  O17  1  0.02166714  0.80668522  0.27658414  1
  O  O18  1  0.02166714  0.19331478  0.72341586  1
  O  O19  1  0.97833286  0.80668522  0.72341586  1
  O  O20  1  0.30205405  0.97708526  0.20821764  1
  O  O21  1  0.30205405  0.02291474  0.79178236  1
  O  O22  1  0.69794595  0.02291474  0.20821764  1
  O  O23  1  0.69794595  0.97708526  0.79178236  1
  O  O24  1  0.21524117  0.29910997  0.98020679  1
  O  O25  1  0.78475883  0.29910997  0.01979321  1
  O  O26  1  0.21524117  0.70089003  0.01979321  1
  O  O27  1  0.78475883  0.70089003  0.98020679  1
  O  O28  1  0.52166714  0.30668522  0.22341586  1
  O  O29  1  0.47833286  0.69331478  0.22341586  1
  O  O30  1  0.47833286  0.30668522  0.77658414  1
  O  O31  1  0.52166714  0.69331478  0.77658414  1
  O  O32  1  0.19794595  0.52291474  0.29178236  1
  O  O33  1  0.19794595  0.47708526  0.70821764  1
  O  O34  1  0.80205405  0.47708526  0.29178236  1
  O  O35  1  0.80205405  0.52291474  0.70821764  1
  O  O36  1  0.28475883  0.20089003  0.51979321  1
  O  O37  1  0.71524117  0.20089003  0.48020679  1
  O  O38  1  0.28475883  0.79910997  0.48020679  1
  O  O39  1  0.71524117  0.79910997  0.51979321  1
