# generated using pymatgen
data_BaCaCeHfO6
_symmetry_space_group_name_H-M   'P 1'
_cell_length_a   5.94943285
_cell_length_b   6.01083667
_cell_length_c   8.49733416
_cell_angle_alpha   90.29565260
_cell_angle_beta   90.31658567
_cell_angle_gamma   89.98294843
_symmetry_Int_Tables_number   1
_chemical_formula_structural   BaCaCeHfO6
_chemical_formula_sum   'Ba2 Ca2 Ce2 Hf2 O12'
_cell_volume   303.86505919
_cell_formula_units_Z   2
loop_
 _symmetry_equiv_pos_site_id
 _symmetry_equiv_pos_as_xyz
  1  'x, y, z'
loop_
 _atom_site_type_symbol
 _atom_site_label
 _atom_site_symmetry_multiplicity
 _atom_site_fract_x
 _atom_site_fract_y
 _atom_site_fract_z
 _atom_site_occupancy
  Ba  Ba0  1  0.50605344  0.52952157  0.25019135  1
  Ba  Ba1  1  0.49394656  0.47047843  0.74980865  1
  Ca  Ca2  1  0.99297835  0.03601227  0.25272111  1
  Ca  Ca3  1  0.00702165  0.96398773  0.74727889  1
  Ce  Ce4  1  -0.00000000  0.50000000  -0.00000000  1
  Ce  Ce5  1  0.50000000  -0.00000000  0.50000000  1
  Hf  Hf6  1  0.50000000  -0.00000000  -0.00000000  1
  Hf  Hf7  1  -0.00000000  0.50000000  0.50000000  1
  O  O8  1  0.21575137  0.19523814  0.93946594  1
  O  O9  1  0.28046965  0.70295216  0.52698837  1
  O  O10  1  0.78424863  0.80476186  0.06053406  1
  O  O11  1  0.71953035  0.29704784  0.47301163  1
  O  O12  1  0.29694998  0.72058004  0.96765359  1
  O  O13  1  0.19068412  0.21154791  0.55730080  1
  O  O14  1  0.70305002  0.27941996  0.03234641  1
  O  O15  1  0.80931588  0.78845209  0.44269920  1
  O  O16  1  0.39707151  0.00346949  0.23935082  1
  O  O17  1  0.06181107  0.43769613  0.26032128  1
  O  O18  1  0.60292849  0.99653051  0.76064918  1
  O  O19  1  0.93818893  0.56230387  0.73967872  1
