# generated using pymatgen
data_CaNdMn4O12
_symmetry_space_group_name_H-M   'P 1'
_cell_length_a   5.34135566
_cell_length_b   5.34135566
_cell_length_c   7.55740526
_cell_angle_alpha   90.00000000
_cell_angle_beta   90.00000000
_cell_angle_gamma   88.46473158
_symmetry_Int_Tables_number   1
_chemical_formula_structural   CaNdMn4O12
_chemical_formula_sum   'Ca1 Nd1 Mn4 O12'
_cell_volume   215.53597830
_cell_formula_units_Z   1
loop_
 _symmetry_equiv_pos_site_id
 _symmetry_equiv_pos_as_xyz
  1  'x, y, z'
loop_
 _atom_site_type_symbol
 _atom_site_label
 _atom_site_symmetry_multiplicity
 _atom_site_fract_x
 _atom_site_fract_y
 _atom_site_fract_z
 _atom_site_occupancy
  Ca  Ca0  1  0.50982254  0.50982254  -0.00000000  1
  Nd  Nd1  1  0.98199052  0.98199052  0.50000000  1
  Mn  Mn2  1  0.49526938  0.00172941  0.75465803  1
  Mn  Mn3  1  0.49526938  0.00172941  0.24534197  1
  Mn  Mn4  1  0.00172941  0.49526938  0.24534197  1
  Mn  Mn5  1  0.00172941  0.49526938  0.75465803  1
  O  O6  1  0.71363725  0.28743487  0.74537182  1
  O  O7  1  0.28743487  0.71363725  0.74537182  1
  O  O8  1  0.28743487  0.71363725  0.25462818  1
  O  O9  1  0.71363725  0.28743487  0.25462818  1
  O  O10  1  0.78943978  0.78943978  0.78489277  1
  O  O11  1  0.21306012  0.21306012  0.70526785  1
  O  O12  1  0.21306012  0.21306012  0.29473215  1
  O  O13  1  0.78943978  0.78943978  0.21510723  1
  O  O14  1  0.45033448  0.05955755  -0.00000000  1
  O  O15  1  0.53746476  0.96218851  0.50000000  1
  O  O16  1  0.05955755  0.45033448  -0.00000000  1
  O  O17  1  0.96218851  0.53746476  0.50000000  1
