# generated using pymatgen
data_Ba2BiSbO6
_symmetry_space_group_name_H-M   'P 1'
_cell_length_a   8.66803589
_cell_length_b   8.66803589
_cell_length_c   8.66803589
_cell_angle_alpha   90.00000000
_cell_angle_beta   90.00000000
_cell_angle_gamma   90.00000000
_symmetry_Int_Tables_number   1
_chemical_formula_structural   Ba2BiSbO6
_chemical_formula_sum   'Ba8 Bi4 Sb4 O24'
_cell_volume   651.27154337
_cell_formula_units_Z   4
loop_
 _symmetry_equiv_pos_site_id
 _symmetry_equiv_pos_as_xyz
  1  'x, y, z'
loop_
 _atom_site_type_symbol
 _atom_site_label
 _atom_site_symmetry_multiplicity
 _atom_site_fract_x
 _atom_site_fract_y
 _atom_site_fract_z
 _atom_site_occupancy
  Ba  Ba0  1  0.50000000  0.50000000  0.50000000  1
  Ba  Ba1  1  -0.00000000  -0.00000000  0.00000000  1
  Ba  Ba2  1  -0.00000000  -0.00000000  0.50000000  1
  Ba  Ba3  1  -0.00000000  0.50000000  0.00000000  1
  Ba  Ba4  1  0.50000000  -0.00000000  0.00000000  1
  Ba  Ba5  1  0.50000000  0.50000000  0.00000000  1
  Ba  Ba6  1  0.50000000  -0.00000000  0.50000000  1
  Ba  Ba7  1  -0.00000000  0.50000000  0.50000000  1
  Bi  Bi8  1  0.75000000  0.75000000  0.75000000  1
  Bi  Bi9  1  0.75000000  0.25000000  0.25000000  1
  Bi  Bi10  1  0.25000000  0.75000000  0.25000000  1
  Bi  Bi11  1  0.25000000  0.25000000  0.75000000  1
  Sb  Sb12  1  0.25000000  0.25000000  0.25000000  1
  Sb  Sb13  1  0.25000000  0.75000000  0.75000000  1
  Sb  Sb14  1  0.75000000  0.25000000  0.75000000  1
  Sb  Sb15  1  0.75000000  0.75000000  0.25000000  1
  O  O16  1  0.22983330  0.27245458  0.48198744  1
  O  O17  1  0.22983330  0.72754542  0.51801256  1
  O  O18  1  0.77016670  0.27245458  0.51801256  1
  O  O19  1  0.77016670  0.72754542  0.48198744  1
  O  O20  1  0.27245458  0.48198744  0.22983330  1
  O  O21  1  0.72754542  0.51801256  0.22983330  1
  O  O22  1  0.27245458  0.51801256  0.77016670  1
  O  O23  1  0.72754542  0.48198744  0.77016670  1
  O  O24  1  0.48198744  0.22983330  0.27245458  1
  O  O25  1  0.51801256  0.22983330  0.72754542  1
  O  O26  1  0.51801256  0.77016670  0.27245458  1
  O  O27  1  0.48198744  0.77016670  0.72754542  1
  O  O28  1  0.27016670  0.22754542  0.01801256  1
  O  O29  1  0.27016670  0.77245458  0.98198744  1
  O  O30  1  0.72983330  0.22754542  0.98198744  1
  O  O31  1  0.72983330  0.77245458  0.01801256  1
  O  O32  1  0.22754542  0.01801256  0.27016670  1
  O  O33  1  0.77245458  0.98198744  0.27016670  1
  O  O34  1  0.22754542  0.98198744  0.72983330  1
  O  O35  1  0.77245458  0.01801256  0.72983330  1
  O  O36  1  0.01801256  0.27016670  0.22754542  1
  O  O37  1  0.98198744  0.27016670  0.77245458  1
  O  O38  1  0.98198744  0.72983330  0.22754542  1
  O  O39  1  0.01801256  0.72983330  0.77245458  1
