# generated using pymatgen
data_KBaNdWO6
_symmetry_space_group_name_H-M   'P 1'
_cell_length_a   8.61329636
_cell_length_b   8.59603562
_cell_length_c   8.60820969
_cell_angle_alpha   90.00000000
_cell_angle_beta   90.00000000
_cell_angle_gamma   90.00000000
_symmetry_Int_Tables_number   1
_chemical_formula_structural   KBaNdWO6
_chemical_formula_sum   'K4 Ba4 Nd4 W4 O24'
_cell_volume   637.35358703
_cell_formula_units_Z   4
loop_
 _symmetry_equiv_pos_site_id
 _symmetry_equiv_pos_as_xyz
  1  'x, y, z'
loop_
 _atom_site_type_symbol
 _atom_site_label
 _atom_site_symmetry_multiplicity
 _atom_site_fract_x
 _atom_site_fract_y
 _atom_site_fract_z
 _atom_site_occupancy
  K  K0  1  0.50000000  0.00000000  0.50000000  1
  K  K1  1  0.50000000  0.50000000  0.00000000  1
  K  K2  1  -0.00000000  0.50000000  0.00000000  1
  K  K3  1  -0.00000000  0.00000000  0.50000000  1
  Ba  Ba4  1  0.00000000  0.50000000  0.50000000  1
  Ba  Ba5  1  0.50000000  0.00000000  0.00000000  1
  Ba  Ba6  1  -0.00000000  0.00000000  -0.00000000  1
  Ba  Ba7  1  0.50000000  0.50000000  0.50000000  1
  Nd  Nd8  1  0.75000000  0.75000000  0.75000000  1
  Nd  Nd9  1  0.25000000  0.25000000  0.75000000  1
  Nd  Nd10  1  0.25000000  0.75000000  0.25000000  1
  Nd  Nd11  1  0.75000000  0.25000000  0.25000000  1
  W  W12  1  0.25000000  0.25000000  0.25000000  1
  W  W13  1  0.75000000  0.75000000  0.25000000  1
  W  W14  1  0.75000000  0.25000000  0.75000000  1
  W  W15  1  0.25000000  0.75000000  0.75000000  1
  O  O16  1  0.02317064  0.23263756  0.26629631  1
  O  O17  1  0.97682936  0.76736244  0.26629631  1
  O  O18  1  0.97682936  0.23263756  0.73370369  1
  O  O19  1  0.02317064  0.76736244  0.73370369  1
  O  O20  1  0.26572735  0.02235679  0.22617610  1
  O  O21  1  0.26572735  0.97764321  0.77382390  1
  O  O22  1  0.73427265  0.97764321  0.22617610  1
  O  O23  1  0.73427265  0.02235679  0.77382390  1
  O  O24  1  0.23168868  0.26027446  0.02304236  1
  O  O25  1  0.76831132  0.26027446  0.97695764  1
  O  O26  1  0.23168868  0.73972554  0.97695764  1
  O  O27  1  0.76831132  0.73972554  0.02304236  1
  O  O28  1  0.47682936  0.26736244  0.23370369  1
  O  O29  1  0.52317064  0.73263756  0.23370369  1
  O  O30  1  0.52317064  0.26736244  0.76629631  1
  O  O31  1  0.47682936  0.73263756  0.76629631  1
  O  O32  1  0.23427265  0.47764321  0.27382390  1
  O  O33  1  0.23427265  0.52235679  0.72617610  1
  O  O34  1  0.76572735  0.52235679  0.27382390  1
  O  O35  1  0.76572735  0.47764321  0.72617610  1
  O  O36  1  0.26831132  0.23972554  0.47695764  1
  O  O37  1  0.73168868  0.23972554  0.52304236  1
  O  O38  1  0.26831132  0.76027446  0.52304236  1
  O  O39  1  0.73168868  0.76027446  0.47695764  1
