# generated using pymatgen
data_BaZn(SeO3)4
_symmetry_space_group_name_H-M   'P 1'
_cell_length_a   5.48365912
_cell_length_b   5.48365912
_cell_length_c   7.58508820
_cell_angle_alpha   90.00000000
_cell_angle_beta   90.00000000
_cell_angle_gamma   90.00000000
_symmetry_Int_Tables_number   1
_chemical_formula_structural   BaZn(SeO3)4
_chemical_formula_sum   'Ba1 Zn1 Se4 O12'
_cell_volume   228.08752628
_cell_formula_units_Z   1
loop_
 _symmetry_equiv_pos_site_id
 _symmetry_equiv_pos_as_xyz
  1  'x, y, z'
loop_
 _atom_site_type_symbol
 _atom_site_label
 _atom_site_symmetry_multiplicity
 _atom_site_fract_x
 _atom_site_fract_y
 _atom_site_fract_z
 _atom_site_occupancy
  Ba  Ba0  1  0.50000000  0.50000000  0.00000000  1
  Zn  Zn1  1  0.00000000  -0.00000000  0.50000000  1
  Se  Se2  1  0.00000000  0.50000000  0.74163484  1
  Se  Se3  1  0.00000000  0.50000000  0.25836516  1
  Se  Se4  1  0.50000000  0.00000000  0.74163484  1
  Se  Se5  1  0.50000000  0.00000000  0.25836516  1
  O  O6  1  0.24026269  0.24026269  0.72233035  1
  O  O7  1  0.24026269  0.24026269  0.27766965  1
  O  O8  1  0.75973731  0.75973731  0.27766965  1
  O  O9  1  0.75973731  0.75973731  0.72233035  1
  O  O10  1  0.75973731  0.24026269  0.27766965  1
  O  O11  1  0.75973731  0.24026269  0.72233035  1
  O  O12  1  0.24026269  0.75973731  0.27766965  1
  O  O13  1  0.24026269  0.75973731  0.72233035  1
  O  O14  1  0.00000000  0.50000000  0.50000000  1
  O  O15  1  0.00000000  0.50000000  0.00000000  1
  O  O16  1  0.50000000  -0.00000000  0.50000000  1
  O  O17  1  0.50000000  0.00000000  0.00000000  1
