# generated using pymatgen
data_NaSmMn4O12
_symmetry_space_group_name_H-M   'P 1'
_cell_length_a   5.32792898
_cell_length_b   5.32792898
_cell_length_c   7.76980362
_cell_angle_alpha   90.00000000
_cell_angle_beta   90.00000000
_cell_angle_gamma   90.00000000
_symmetry_Int_Tables_number   1
_chemical_formula_structural   NaSmMn4O12
_chemical_formula_sum   'Na1 Sm1 Mn4 O12'
_cell_volume   220.56007286
_cell_formula_units_Z   1
loop_
 _symmetry_equiv_pos_site_id
 _symmetry_equiv_pos_as_xyz
  1  'x, y, z'
loop_
 _atom_site_type_symbol
 _atom_site_label
 _atom_site_symmetry_multiplicity
 _atom_site_fract_x
 _atom_site_fract_y
 _atom_site_fract_z
 _atom_site_occupancy
  Na  Na0  1  0.50000000  0.50000000  0.50000000  1
  Sm  Sm1  1  0.00000000  0.00000000  -0.00000000  1
  Mn  Mn2  1  0.00000000  0.50000000  0.73904276  1
  Mn  Mn3  1  0.00000000  0.50000000  0.26095724  1
  Mn  Mn4  1  0.50000000  -0.00000000  0.73904276  1
  Mn  Mn5  1  0.50000000  0.00000000  0.26095724  1
  O  O6  1  0.24102618  0.24102618  0.77246723  1
  O  O7  1  0.24102618  0.24102618  0.22753277  1
  O  O8  1  0.75897382  0.75897382  0.77246723  1
  O  O9  1  0.75897382  0.75897382  0.22753277  1
  O  O10  1  0.75897382  0.24102618  0.77246723  1
  O  O11  1  0.75897382  0.24102618  0.22753277  1
  O  O12  1  0.24102618  0.75897382  0.77246723  1
  O  O13  1  0.24102618  0.75897382  0.22753277  1
  O  O14  1  0.00000000  0.50000000  0.50000000  1
  O  O15  1  0.00000000  0.50000000  -0.00000000  1
  O  O16  1  0.50000000  -0.00000000  0.50000000  1
  O  O17  1  0.50000000  0.00000000  -0.00000000  1
