# generated using pymatgen
data_BaNaPrSbO6
_symmetry_space_group_name_H-M   'P 1'
_cell_length_a   8.67672788
_cell_length_b   8.61159865
_cell_length_c   8.67693265
_cell_angle_alpha   90.00000000
_cell_angle_beta   90.00000000
_cell_angle_gamma   90.00000000
_symmetry_Int_Tables_number   1
_chemical_formula_structural   BaNaPrSbO6
_chemical_formula_sum   'Ba4 Na4 Pr4 Sb4 O24'
_cell_volume   648.34472957
_cell_formula_units_Z   4
loop_
 _symmetry_equiv_pos_site_id
 _symmetry_equiv_pos_as_xyz
  1  'x, y, z'
loop_
 _atom_site_type_symbol
 _atom_site_label
 _atom_site_symmetry_multiplicity
 _atom_site_fract_x
 _atom_site_fract_y
 _atom_site_fract_z
 _atom_site_occupancy
  Ba  Ba0  1  -0.00000000  -0.00000000  -0.00000000  1
  Ba  Ba1  1  0.50000000  0.50000000  0.50000000  1
  Ba  Ba2  1  -0.00000000  0.50000000  0.50000000  1
  Ba  Ba3  1  0.50000000  -0.00000000  0.00000000  1
  Na  Na4  1  0.50000000  -0.00000000  0.50000000  1
  Na  Na5  1  0.50000000  0.50000000  0.00000000  1
  Na  Na6  1  -0.00000000  0.50000000  0.00000000  1
  Na  Na7  1  -0.00000000  -0.00000000  0.50000000  1
  Pr  Pr8  1  0.75000000  0.75000000  0.75000000  1
  Pr  Pr9  1  0.25000000  0.25000000  0.75000000  1
  Pr  Pr10  1  0.25000000  0.75000000  0.25000000  1
  Pr  Pr11  1  0.75000000  0.25000000  0.25000000  1
  Sb  Sb12  1  0.25000000  0.25000000  0.25000000  1
  Sb  Sb13  1  0.75000000  0.75000000  0.25000000  1
  Sb  Sb14  1  0.75000000  0.25000000  0.75000000  1
  Sb  Sb15  1  0.25000000  0.75000000  0.75000000  1
  O  O16  1  0.02067002  0.22381374  0.27596628  1
  O  O17  1  0.97932998  0.77618626  0.27596628  1
  O  O18  1  0.97932998  0.22381374  0.72403372  1
  O  O19  1  0.02067002  0.77618626  0.72403372  1
  O  O20  1  0.27079785  0.02006948  0.21913392  1
  O  O21  1  0.27079785  0.97993052  0.78086608  1
  O  O22  1  0.72920215  0.97993052  0.21913392  1
  O  O23  1  0.72920215  0.02006948  0.78086608  1
  O  O24  1  0.22106257  0.26705185  0.02080785  1
  O  O25  1  0.77893743  0.26705185  0.97919215  1
  O  O26  1  0.22106257  0.73294815  0.97919215  1
  O  O27  1  0.77893743  0.73294815  0.02080785  1
  O  O28  1  0.47932998  0.27618626  0.22403372  1
  O  O29  1  0.52067002  0.72381374  0.22403372  1
  O  O30  1  0.52067002  0.27618626  0.77596628  1
  O  O31  1  0.47932998  0.72381374  0.77596628  1
  O  O32  1  0.22920215  0.47993052  0.28086608  1
  O  O33  1  0.22920215  0.52006948  0.71913392  1
  O  O34  1  0.77079785  0.52006948  0.28086608  1
  O  O35  1  0.77079785  0.47993052  0.71913392  1
  O  O36  1  0.27893743  0.23294815  0.47919215  1
  O  O37  1  0.72106257  0.23294815  0.52080785  1
  O  O38  1  0.27893743  0.76705185  0.52080785  1
  O  O39  1  0.72106257  0.76705185  0.47919215  1
