# generated using pymatgen
data_KCeEuWO6
_symmetry_space_group_name_H-M   'P 1'
_cell_length_a   8.48148536
_cell_length_b   8.52559492
_cell_length_c   8.43442032
_cell_angle_alpha   90.00000000
_cell_angle_beta   90.00000000
_cell_angle_gamma   90.00000000
_symmetry_Int_Tables_number   1
_chemical_formula_structural   KCeEuWO6
_chemical_formula_sum   'K4 Ce4 Eu4 W4 O24'
_cell_volume   609.89047470
_cell_formula_units_Z   4
loop_
 _symmetry_equiv_pos_site_id
 _symmetry_equiv_pos_as_xyz
  1  'x, y, z'
loop_
 _atom_site_type_symbol
 _atom_site_label
 _atom_site_symmetry_multiplicity
 _atom_site_fract_x
 _atom_site_fract_y
 _atom_site_fract_z
 _atom_site_occupancy
  K  K0  1  0.50000000  -0.00000000  0.50000000  1
  K  K1  1  0.50000000  0.50000000  0.00000000  1
  K  K2  1  -0.00000000  0.50000000  0.00000000  1
  K  K3  1  -0.00000000  -0.00000000  0.50000000  1
  Ce  Ce4  1  0.75000000  0.75000000  0.75000000  1
  Ce  Ce5  1  0.25000000  0.25000000  0.75000000  1
  Ce  Ce6  1  0.25000000  0.75000000  0.25000000  1
  Ce  Ce7  1  0.75000000  0.25000000  0.25000000  1
  Eu  Eu8  1  -0.00000000  0.50000000  0.50000000  1
  Eu  Eu9  1  0.50000000  -0.00000000  0.00000000  1
  Eu  Eu10  1  -0.00000000  -0.00000000  0.00000000  1
  Eu  Eu11  1  0.50000000  0.50000000  0.50000000  1
  W  W12  1  0.25000000  0.25000000  0.25000000  1
  W  W13  1  0.75000000  0.75000000  0.25000000  1
  W  W14  1  0.75000000  0.25000000  0.75000000  1
  W  W15  1  0.25000000  0.75000000  0.75000000  1
  O  O16  1  0.01331940  0.22051874  0.27418626  1
  O  O17  1  0.98668060  0.77948126  0.27418626  1
  O  O18  1  0.98668060  0.22051874  0.72581374  1
  O  O19  1  0.01331940  0.77948126  0.72581374  1
  O  O20  1  0.27841977  0.01456698  0.20615091  1
  O  O21  1  0.27841977  0.98543302  0.79384909  1
  O  O22  1  0.72158023  0.98543302  0.20615091  1
  O  O23  1  0.72158023  0.01456698  0.79384909  1
  O  O24  1  0.21732220  0.26952062  0.02208292  1
  O  O25  1  0.78267780  0.26952062  0.97791708  1
  O  O26  1  0.21732220  0.73047938  0.97791708  1
  O  O27  1  0.78267780  0.73047938  0.02208292  1
  O  O28  1  0.48668060  0.27948126  0.22581374  1
  O  O29  1  0.51331940  0.72051874  0.22581374  1
  O  O30  1  0.51331940  0.27948126  0.77418626  1
  O  O31  1  0.48668060  0.72051874  0.77418626  1
  O  O32  1  0.22158023  0.48543302  0.29384909  1
  O  O33  1  0.22158023  0.51456698  0.70615091  1
  O  O34  1  0.77841977  0.51456698  0.29384909  1
  O  O35  1  0.77841977  0.48543302  0.70615091  1
  O  O36  1  0.28267780  0.23047938  0.47791708  1
  O  O37  1  0.71732220  0.23047938  0.52208292  1
  O  O38  1  0.28267780  0.76952062  0.52208292  1
  O  O39  1  0.71732220  0.76952062  0.47791708  1
