# generated using pymatgen
data_KSrTbBiO6
_symmetry_space_group_name_H-M   'P 1'
_cell_length_a   8.63988945
_cell_length_b   8.61108289
_cell_length_c   8.69546792
_cell_angle_alpha   90.00000000
_cell_angle_beta   90.00000000
_cell_angle_gamma   90.00000000
_symmetry_Int_Tables_number   1
_chemical_formula_structural   KSrTbBiO6
_chemical_formula_sum   'K4 Sr4 Tb4 Bi4 O24'
_cell_volume   646.93241533
_cell_formula_units_Z   4
loop_
 _symmetry_equiv_pos_site_id
 _symmetry_equiv_pos_as_xyz
  1  'x, y, z'
loop_
 _atom_site_type_symbol
 _atom_site_label
 _atom_site_symmetry_multiplicity
 _atom_site_fract_x
 _atom_site_fract_y
 _atom_site_fract_z
 _atom_site_occupancy
  K  K0  1  0.50000000  -0.00000000  0.50000000  1
  K  K1  1  0.50000000  0.50000000  0.00000000  1
  K  K2  1  0.00000000  0.50000000  0.00000000  1
  K  K3  1  0.00000000  -0.00000000  0.50000000  1
  Sr  Sr4  1  0.00000000  0.50000000  0.50000000  1
  Sr  Sr5  1  0.50000000  -0.00000000  -0.00000000  1
  Sr  Sr6  1  0.00000000  0.00000000  -0.00000000  1
  Sr  Sr7  1  0.50000000  0.50000000  0.50000000  1
  Tb  Tb8  1  0.25000000  0.25000000  0.25000000  1
  Tb  Tb9  1  0.75000000  0.75000000  0.25000000  1
  Tb  Tb10  1  0.75000000  0.25000000  0.75000000  1
  Tb  Tb11  1  0.25000000  0.75000000  0.75000000  1
  Bi  Bi12  1  0.75000000  0.75000000  0.75000000  1
  Bi  Bi13  1  0.25000000  0.25000000  0.75000000  1
  Bi  Bi14  1  0.25000000  0.75000000  0.25000000  1
  Bi  Bi15  1  0.75000000  0.25000000  0.25000000  1
  O  O16  1  0.99296589  0.22413634  0.27133818  1
  O  O17  1  0.00703411  0.77586366  0.27133818  1
  O  O18  1  0.00703411  0.22413634  0.72866182  1
  O  O19  1  0.99296589  0.77586366  0.72866182  1
  O  O20  1  0.27462353  0.99271515  0.20678402  1
  O  O21  1  0.27462353  0.00728485  0.79321598  1
  O  O22  1  0.72537647  0.00728485  0.20678402  1
  O  O23  1  0.72537647  0.99271515  0.79321598  1
  O  O24  1  0.22074287  0.26186764  0.99302581  1
  O  O25  1  0.77925713  0.26186764  0.00697419  1
  O  O26  1  0.22074287  0.73813236  0.00697419  1
  O  O27  1  0.77925713  0.73813236  0.99302581  1
  O  O28  1  0.50703411  0.27586366  0.22866182  1
  O  O29  1  0.49296589  0.72413634  0.22866182  1
  O  O30  1  0.49296589  0.27586366  0.77133818  1
  O  O31  1  0.50703411  0.72413634  0.77133818  1
  O  O32  1  0.22537647  0.50728485  0.29321598  1
  O  O33  1  0.22537647  0.49271515  0.70678402  1
  O  O34  1  0.77462353  0.49271515  0.29321598  1
  O  O35  1  0.77462353  0.50728485  0.70678402  1
  O  O36  1  0.27925713  0.23813236  0.50697419  1
  O  O37  1  0.72074287  0.23813236  0.49302581  1
  O  O38  1  0.27925713  0.76186764  0.49302581  1
  O  O39  1  0.72074287  0.76186764  0.50697419  1
