# generated using pymatgen
data_KLaZr4O12
_symmetry_space_group_name_H-M   'P 1'
_cell_length_a   5.85754347
_cell_length_b   5.85754347
_cell_length_c   8.45050746
_cell_angle_alpha   90.00000000
_cell_angle_beta   90.00000000
_cell_angle_gamma   89.75040838
_symmetry_Int_Tables_number   1
_chemical_formula_structural   KLaZr4O12
_chemical_formula_sum   'K1 La1 Zr4 O12'
_cell_volume   289.94105147
_cell_formula_units_Z   1
loop_
 _symmetry_equiv_pos_site_id
 _symmetry_equiv_pos_as_xyz
  1  'x, y, z'
loop_
 _atom_site_type_symbol
 _atom_site_label
 _atom_site_symmetry_multiplicity
 _atom_site_fract_x
 _atom_site_fract_y
 _atom_site_fract_z
 _atom_site_occupancy
  K  K0  1  0.99745576  0.00254424  -0.00000000  1
  La  La1  1  0.51005212  0.48994788  0.50000000  1
  Zr  Zr2  1  0.49950471  0.99524808  0.24210319  1
  Zr  Zr3  1  0.49950471  0.99524808  0.75789681  1
  Zr  Zr4  1  0.00475192  0.50049529  0.75789681  1
  Zr  Zr5  1  0.00475192  0.50049529  0.24210319  1
  O  O6  1  0.28247152  0.27956992  0.28459332  1
  O  O7  1  0.72043008  0.71752848  0.28459332  1
  O  O8  1  0.72043008  0.71752848  0.71540668  1
  O  O9  1  0.28247152  0.27956992  0.71540668  1
  O  O10  1  0.22070344  0.77929656  0.23692548  1
  O  O11  1  0.74663377  0.25336623  0.29559600  1
  O  O12  1  0.74663377  0.25336623  0.70440400  1
  O  O13  1  0.22070344  0.77929656  0.76307452  1
  O  O14  1  0.52613342  0.00823160  -0.00000000  1
  O  O15  1  0.47642843  0.93892899  0.50000000  1
  O  O16  1  0.99176840  0.47386658  0.00000000  1
  O  O17  1  0.06107101  0.52357157  0.50000000  1
