# generated using pymatgen
data_BaSrEuBiO6
_symmetry_space_group_name_H-M   'P 1'
_cell_length_a   8.69227652
_cell_length_b   8.69822500
_cell_length_c   8.68806005
_cell_angle_alpha   90.00000000
_cell_angle_beta   90.00000000
_cell_angle_gamma   90.00000000
_symmetry_Int_Tables_number   1
_chemical_formula_structural   BaSrEuBiO6
_chemical_formula_sum   'Ba4 Sr4 Eu4 Bi4 O24'
_cell_volume   656.88143102
_cell_formula_units_Z   4
loop_
 _symmetry_equiv_pos_site_id
 _symmetry_equiv_pos_as_xyz
  1  'x, y, z'
loop_
 _atom_site_type_symbol
 _atom_site_label
 _atom_site_symmetry_multiplicity
 _atom_site_fract_x
 _atom_site_fract_y
 _atom_site_fract_z
 _atom_site_occupancy
  Ba  Ba0  1  0.00000000  -0.00000000  -0.00000000  1
  Ba  Ba1  1  0.50000000  0.50000000  0.50000000  1
  Ba  Ba2  1  0.00000000  0.50000000  -0.00000000  1
  Ba  Ba3  1  0.00000000  -0.00000000  0.50000000  1
  Sr  Sr4  1  0.00000000  0.50000000  0.50000000  1
  Sr  Sr5  1  0.50000000  -0.00000000  0.50000000  1
  Sr  Sr6  1  0.50000000  0.50000000  -0.00000000  1
  Sr  Sr7  1  0.50000000  -0.00000000  -0.00000000  1
  Eu  Eu8  1  0.25255037  0.25040533  0.25018145  1
  Eu  Eu9  1  0.74744963  0.74959467  0.25018145  1
  Eu  Eu10  1  0.74744963  0.25040533  0.74981855  1
  Eu  Eu11  1  0.25255037  0.74959467  0.74981855  1
  Bi  Bi12  1  0.74686062  0.74960068  0.75010863  1
  Bi  Bi13  1  0.25313938  0.25039932  0.75010863  1
  Bi  Bi14  1  0.25313938  0.74960068  0.24989137  1
  Bi  Bi15  1  0.74686062  0.25039932  0.24989137  1
  O  O16  1  0.99064719  0.21748496  0.27628510  1
  O  O17  1  0.00935281  0.78251504  0.27628510  1
  O  O18  1  0.00935281  0.21748496  0.72371490  1
  O  O19  1  0.99064719  0.78251504  0.72371490  1
  O  O20  1  0.28847583  0.99092193  0.20962986  1
  O  O21  1  0.28847583  0.00907807  0.79037014  1
  O  O22  1  0.71152417  0.00907807  0.20962986  1
  O  O23  1  0.71152417  0.99092193  0.79037014  1
  O  O24  1  0.21940312  0.27872005  0.99203415  1
  O  O25  1  0.78059688  0.27872005  0.00796585  1
  O  O26  1  0.21940312  0.72127995  0.00796585  1
  O  O27  1  0.78059688  0.72127995  0.99203415  1
  O  O28  1  0.50826603  0.29633882  0.21238353  1
  O  O29  1  0.49173397  0.70366118  0.21238353  1
  O  O30  1  0.49173397  0.29633882  0.78761647  1
  O  O31  1  0.50826603  0.70366118  0.78761647  1
  O  O32  1  0.21436424  0.50954937  0.29485939  1
  O  O33  1  0.21436424  0.49045063  0.70514061  1
  O  O34  1  0.78563576  0.49045063  0.29485939  1
  O  O35  1  0.78563576  0.50954937  0.70514061  1
  O  O36  1  0.29476699  0.21107172  0.50949450  1
  O  O37  1  0.70523301  0.21107172  0.49050550  1
  O  O38  1  0.29476699  0.78892828  0.49050550  1
  O  O39  1  0.70523301  0.78892828  0.50949450  1
