# generated using pymatgen
data_BaCaLaBiO6
_symmetry_space_group_name_H-M   'P 1'
_cell_length_a   6.08492736
_cell_length_b   6.22193188
_cell_length_c   8.74403788
_cell_angle_alpha   90.48987801
_cell_angle_beta   89.46253627
_cell_angle_gamma   89.85308896
_symmetry_Int_Tables_number   1
_chemical_formula_structural   BaCaLaBiO6
_chemical_formula_sum   'Ba2 Ca2 La2 Bi2 O12'
_cell_volume   331.02148231
_cell_formula_units_Z   2
loop_
 _symmetry_equiv_pos_site_id
 _symmetry_equiv_pos_as_xyz
  1  'x, y, z'
loop_
 _atom_site_type_symbol
 _atom_site_label
 _atom_site_symmetry_multiplicity
 _atom_site_fract_x
 _atom_site_fract_y
 _atom_site_fract_z
 _atom_site_occupancy
  Ba  Ba0  1  0.99251534  0.04227600  0.25060492  1
  Ba  Ba1  1  0.00748466  0.95772400  0.74939508  1
  Ca  Ca2  1  0.51101466  0.54700062  0.25276694  1
  Ca  Ca3  1  0.48898534  0.45299938  0.74723306  1
  La  La4  1  0.50000000  0.00000000  0.00000000  1
  La  La5  1  -0.00000000  0.50000000  0.50000000  1
  Bi  Bi6  1  -0.00000000  0.50000000  0.00000000  1
  Bi  Bi7  1  0.50000000  0.00000000  0.50000000  1
  O  O8  1  0.19022309  0.21788026  0.95095230  1
  O  O9  1  0.32200105  0.70959993  0.56170518  1
  O  O10  1  0.80977691  0.78211974  0.04904770  1
  O  O11  1  0.67799895  0.29040007  0.43829482  1
  O  O12  1  0.28592142  0.68404456  0.93086196  1
  O  O13  1  0.21653107  0.19639462  0.54114262  1
  O  O14  1  0.71407858  0.31595544  0.06913804  1
  O  O15  1  0.78346893  0.80360538  0.45885738  1
  O  O16  1  0.42138361  0.93177898  0.26366616  1
  O  O17  1  0.12632077  0.48370860  0.23353452  1
  O  O18  1  0.57861639  0.06822102  0.73633384  1
  O  O19  1  0.87367923  0.51629140  0.76646548  1
