# generated using pymatgen
data_BaCaLaBiO6
_symmetry_space_group_name_H-M   'P 1'
_cell_length_a   8.70588016
_cell_length_b   8.68178037
_cell_length_c   8.75466022
_cell_angle_alpha   90.00000000
_cell_angle_beta   90.00000000
_cell_angle_gamma   90.00000000
_symmetry_Int_Tables_number   1
_chemical_formula_structural   BaCaLaBiO6
_chemical_formula_sum   'Ba4 Ca4 La4 Bi4 O24'
_cell_volume   661.69945168
_cell_formula_units_Z   4
loop_
 _symmetry_equiv_pos_site_id
 _symmetry_equiv_pos_as_xyz
  1  'x, y, z'
loop_
 _atom_site_type_symbol
 _atom_site_label
 _atom_site_symmetry_multiplicity
 _atom_site_fract_x
 _atom_site_fract_y
 _atom_site_fract_z
 _atom_site_occupancy
  Ba  Ba0  1  0.00000000  0.00000000  0.00000000  1
  Ba  Ba1  1  0.50000000  0.50000000  0.50000000  1
  Ba  Ba2  1  0.00000000  0.50000000  0.50000000  1
  Ba  Ba3  1  0.00000000  -0.00000000  0.50000000  1
  Ca  Ca4  1  0.50000000  0.00000000  0.50000000  1
  Ca  Ca5  1  0.50000000  0.50000000  -0.00000000  1
  Ca  Ca6  1  0.50000000  -0.00000000  -0.00000000  1
  Ca  Ca7  1  0.00000000  0.50000000  -0.00000000  1
  La  La8  1  0.25426718  0.24959338  0.24600905  1
  La  La9  1  0.74573282  0.75040662  0.24600905  1
  La  La10  1  0.74573282  0.24959338  0.75399095  1
  La  La11  1  0.25426718  0.75040662  0.75399095  1
  Bi  Bi12  1  0.74476349  0.74758417  0.75745712  1
  Bi  Bi13  1  0.25523651  0.25241583  0.75745712  1
  Bi  Bi14  1  0.25523651  0.74758417  0.24254288  1
  Bi  Bi15  1  0.74476349  0.25241583  0.24254288  1
  O  O16  1  0.98502931  0.21117394  0.28136023  1
  O  O17  1  0.01497069  0.78882606  0.28136023  1
  O  O18  1  0.01497069  0.21117394  0.71863977  1
  O  O19  1  0.98502931  0.78882606  0.71863977  1
  O  O20  1  0.29985297  0.98524165  0.18710325  1
  O  O21  1  0.29985297  0.01475835  0.81289675  1
  O  O22  1  0.70014703  0.01475835  0.18710325  1
  O  O23  1  0.70014703  0.98524165  0.81289675  1
  O  O24  1  0.19205810  0.30167047  0.98894765  1
  O  O25  1  0.80794190  0.30167047  0.01105235  1
  O  O26  1  0.19205810  0.69832953  0.01105235  1
  O  O27  1  0.80794190  0.69832953  0.98894765  1
  O  O28  1  0.51112556  0.30460282  0.19075553  1
  O  O29  1  0.48887444  0.69539718  0.19075553  1
  O  O30  1  0.48887444  0.30460282  0.80924447  1
  O  O31  1  0.51112556  0.69539718  0.80924447  1
  O  O32  1  0.22619013  0.51154541  0.29740931  1
  O  O33  1  0.22619013  0.48845459  0.70259069  1
  O  O34  1  0.77380987  0.48845459  0.29740931  1
  O  O35  1  0.77380987  0.51154541  0.70259069  1
  O  O36  1  0.30741770  0.19997885  0.51857177  1
  O  O37  1  0.69258230  0.19997885  0.48142823  1
  O  O38  1  0.30741770  0.80002115  0.48142823  1
  O  O39  1  0.69258230  0.80002115  0.51857177  1
