# generated using pymatgen
data_BaNdEuWO6
_symmetry_space_group_name_H-M   'P 1'
_cell_length_a   6.02948852
_cell_length_b   6.05320251
_cell_length_c   8.59823084
_cell_angle_alpha   90.01451572
_cell_angle_beta   90.38821845
_cell_angle_gamma   90.65347270
_symmetry_Int_Tables_number   1
_chemical_formula_structural   BaNdEuWO6
_chemical_formula_sum   'Ba2 Nd2 Eu2 W2 O12'
_cell_volume   313.78814838
_cell_formula_units_Z   2
loop_
 _symmetry_equiv_pos_site_id
 _symmetry_equiv_pos_as_xyz
  1  'x, y, z'
loop_
 _atom_site_type_symbol
 _atom_site_label
 _atom_site_symmetry_multiplicity
 _atom_site_fract_x
 _atom_site_fract_y
 _atom_site_fract_z
 _atom_site_occupancy
  Ba  Ba0  1  0.50622503  0.52966114  0.24937807  1
  Ba  Ba1  1  0.49377497  0.47033886  0.75062193  1
  Nd  Nd2  1  0.00000000  0.50000000  -0.00000000  1
  Nd  Nd3  1  0.50000000  0.00000000  0.50000000  1
  Eu  Eu4  1  0.99507436  0.03689471  0.25172596  1
  Eu  Eu5  1  0.00492564  0.96310529  0.74827404  1
  W  W6  1  0.50000000  0.00000000  -0.00000000  1
  W  W7  1  0.00000000  0.50000000  0.50000000  1
  O  O8  1  0.22976559  0.19061702  0.95470231  1
  O  O9  1  0.26141766  0.69407591  0.53227808  1
  O  O10  1  0.77023441  0.80938298  0.04529769  1
  O  O11  1  0.73858234  0.30592409  0.46772192  1
  O  O12  1  0.30358140  0.73977275  0.95677615  1
  O  O13  1  0.18686561  0.22214368  0.54560469  1
  O  O14  1  0.69641860  0.26022725  0.04322385  1
  O  O15  1  0.81313439  0.77785632  0.45439531  1
  O  O16  1  0.40803707  0.99499656  0.23086401  1
  O  O17  1  0.06548801  0.46589733  0.26718395  1
  O  O18  1  0.59196293  0.00500344  0.76913599  1
  O  O19  1  0.93451199  0.53410267  0.73281605  1
