# generated using pymatgen
data_SrEuHf4O12
_symmetry_space_group_name_H-M   'P 1'
_cell_length_a   5.73773438
_cell_length_b   5.73773438
_cell_length_c   8.14694123
_cell_angle_alpha   90.00000000
_cell_angle_beta   90.00000000
_cell_angle_gamma   90.69510014
_symmetry_Int_Tables_number   1
_chemical_formula_structural   SrEuHf4O12
_chemical_formula_sum   'Sr1 Eu1 Hf4 O12'
_cell_volume   268.19056870
_cell_formula_units_Z   1
loop_
 _symmetry_equiv_pos_site_id
 _symmetry_equiv_pos_as_xyz
  1  'x, y, z'
loop_
 _atom_site_type_symbol
 _atom_site_label
 _atom_site_symmetry_multiplicity
 _atom_site_fract_x
 _atom_site_fract_y
 _atom_site_fract_z
 _atom_site_occupancy
  Sr  Sr0  1  0.01486280  0.98513720  0.50000000  1
  Eu  Eu1  1  0.48949734  0.51050266  0.00000000  1
  Hf  Hf2  1  0.50609437  0.00710018  0.25114393  1
  Hf  Hf3  1  0.50609437  0.00710018  0.74885607  1
  Hf  Hf4  1  0.99289982  0.49390563  0.74885607  1
  Hf  Hf5  1  0.99289982  0.49390563  0.25114393  1
  O  O6  1  0.29472564  0.29810297  0.22947116  1
  O  O7  1  0.70189703  0.70527436  0.22947116  1
  O  O8  1  0.70189703  0.70527436  0.77052884  1
  O  O9  1  0.29472564  0.29810297  0.77052884  1
  O  O10  1  0.22366152  0.77633848  0.21154916  1
  O  O11  1  0.79637888  0.20362112  0.29188910  1
  O  O12  1  0.79637888  0.20362112  0.70811090  1
  O  O13  1  0.22366152  0.77633848  0.78845084  1
  O  O14  1  0.53633478  0.05363076  0.00000000  1
  O  O15  1  0.45197015  0.97564883  0.50000000  1
  O  O16  1  0.94636924  0.46366522  -0.00000000  1
  O  O17  1  0.02435117  0.54802985  0.50000000  1
