# generated using pymatgen
data_BaSrTbSnO6
_symmetry_space_group_name_H-M   'P 1'
_cell_length_a   8.55779123
_cell_length_b   8.55468137
_cell_length_c   8.56587288
_cell_angle_alpha   90.00000000
_cell_angle_beta   90.00000000
_cell_angle_gamma   90.00000000
_symmetry_Int_Tables_number   1
_chemical_formula_structural   BaSrTbSnO6
_chemical_formula_sum   'Ba4 Sr4 Tb4 Sn4 O24'
_cell_volume   627.10050558
_cell_formula_units_Z   4
loop_
 _symmetry_equiv_pos_site_id
 _symmetry_equiv_pos_as_xyz
  1  'x, y, z'
loop_
 _atom_site_type_symbol
 _atom_site_label
 _atom_site_symmetry_multiplicity
 _atom_site_fract_x
 _atom_site_fract_y
 _atom_site_fract_z
 _atom_site_occupancy
  Ba  Ba0  1  0.00000000  0.00000000  -0.00000000  1
  Ba  Ba1  1  0.50000000  0.50000000  0.50000000  1
  Ba  Ba2  1  0.00000000  0.50000000  -0.00000000  1
  Ba  Ba3  1  -0.00000000  0.00000000  0.50000000  1
  Sr  Sr4  1  -0.00000000  0.50000000  0.50000000  1
  Sr  Sr5  1  0.50000000  0.00000000  0.50000000  1
  Sr  Sr6  1  0.50000000  0.50000000  -0.00000000  1
  Sr  Sr7  1  0.50000000  0.00000000  -0.00000000  1
  Tb  Tb8  1  0.25271838  0.25011445  0.25124786  1
  Tb  Tb9  1  0.74728162  0.74988555  0.25124786  1
  Tb  Tb10  1  0.74728162  0.25011445  0.74875214  1
  Tb  Tb11  1  0.25271838  0.74988555  0.74875214  1
  Sn  Sn12  1  0.74674092  0.74964766  0.74891381  1
  Sn  Sn13  1  0.25325908  0.25035234  0.74891381  1
  Sn  Sn14  1  0.25325908  0.74964766  0.25108619  1
  Sn  Sn15  1  0.74674092  0.25035234  0.25108619  1
  O  O16  1  0.98907967  0.22810278  0.27184079  1
  O  O17  1  0.01092033  0.77189722  0.27184079  1
  O  O18  1  0.01092033  0.22810278  0.72815921  1
  O  O19  1  0.98907967  0.77189722  0.72815921  1
  O  O20  1  0.28201708  0.98978660  0.21892872  1
  O  O21  1  0.28201708  0.01021340  0.78107128  1
  O  O22  1  0.71798292  0.01021340  0.21892872  1
  O  O23  1  0.71798292  0.98978660  0.78107128  1
  O  O24  1  0.22817519  0.27379071  0.98964450  1
  O  O25  1  0.77182481  0.27379071  0.01035550  1
  O  O26  1  0.22817519  0.72620929  0.01035550  1
  O  O27  1  0.77182481  0.72620929  0.98964450  1
  O  O28  1  0.50932810  0.28589414  0.21526532  1
  O  O29  1  0.49067190  0.71410586  0.21526532  1
  O  O30  1  0.49067190  0.28589414  0.78473468  1
  O  O31  1  0.50932810  0.71410586  0.78473468  1
  O  O32  1  0.22039283  0.51010926  0.28616639  1
  O  O33  1  0.22039283  0.48989074  0.71383361  1
  O  O34  1  0.77960717  0.48989074  0.28616639  1
  O  O35  1  0.77960717  0.51010926  0.71383361  1
  O  O36  1  0.28680747  0.21619393  0.51005555  1
  O  O37  1  0.71319253  0.21619393  0.48994445  1
  O  O38  1  0.28680747  0.78380607  0.48994445  1
  O  O39  1  0.71319253  0.78380607  0.51005555  1
