# generated using pymatgen
data_KNdHf4O12
_symmetry_space_group_name_H-M   'P 1'
_cell_length_a   5.78003370
_cell_length_b   5.78003370
_cell_length_c   8.25775159
_cell_angle_alpha   90.00000000
_cell_angle_beta   90.00000000
_cell_angle_gamma   90.71898926
_symmetry_Int_Tables_number   1
_chemical_formula_structural   KNdHf4O12
_chemical_formula_sum   'K1 Nd1 Hf4 O12'
_cell_volume   275.85976386
_cell_formula_units_Z   1
loop_
 _symmetry_equiv_pos_site_id
 _symmetry_equiv_pos_as_xyz
  1  'x, y, z'
loop_
 _atom_site_type_symbol
 _atom_site_label
 _atom_site_symmetry_multiplicity
 _atom_site_fract_x
 _atom_site_fract_y
 _atom_site_fract_z
 _atom_site_occupancy
  K  K0  1  0.01630779  0.98369221  0.50000000  1
  Nd  Nd1  1  0.47892541  0.52107459  -0.00000000  1
  Hf  Hf2  1  0.50632926  0.00754710  0.25491833  1
  Hf  Hf3  1  0.50632926  0.00754710  0.74508167  1
  Hf  Hf4  1  0.99245290  0.49367074  0.74508167  1
  Hf  Hf5  1  0.99245290  0.49367074  0.25491833  1
  O  O6  1  0.24079993  0.24063410  0.22968674  1
  O  O7  1  0.75936590  0.75920007  0.22968674  1
  O  O8  1  0.75936590  0.75920007  0.77031326  1
  O  O9  1  0.24079993  0.24063410  0.77031326  1
  O  O10  1  0.27267637  0.72732363  0.24475189  1
  O  O11  1  0.71413942  0.28586058  0.19599439  1
  O  O12  1  0.71413942  0.28586058  0.80400561  1
  O  O13  1  0.27267637  0.72732363  0.75524811  1
  O  O14  1  0.48456713  0.94320043  -0.00000000  1
  O  O15  1  0.52224789  0.01677537  0.50000000  1
  O  O16  1  0.05679957  0.51543287  0.00000000  1
  O  O17  1  0.98322463  0.47775211  0.50000000  1
