# generated using pymatgen
data_Ba2YNbO6
_symmetry_space_group_name_H-M   'P 1'
_cell_length_a   8.54912336
_cell_length_b   8.54912336
_cell_length_c   8.54912336
_cell_angle_alpha   90.00000000
_cell_angle_beta   90.00000000
_cell_angle_gamma   90.00000000
_symmetry_Int_Tables_number   1
_chemical_formula_structural   Ba2YNbO6
_chemical_formula_sum   'Ba8 Y4 Nb4 O24'
_cell_volume   624.83414098
_cell_formula_units_Z   4
loop_
 _symmetry_equiv_pos_site_id
 _symmetry_equiv_pos_as_xyz
  1  'x, y, z'
loop_
 _atom_site_type_symbol
 _atom_site_label
 _atom_site_symmetry_multiplicity
 _atom_site_fract_x
 _atom_site_fract_y
 _atom_site_fract_z
 _atom_site_occupancy
  Ba  Ba0  1  0.50000000  0.50000000  0.50000000  1
  Ba  Ba1  1  0.00000000  0.00000000  0.00000000  1
  Ba  Ba2  1  0.00000000  0.00000000  0.50000000  1
  Ba  Ba3  1  0.00000000  0.50000000  0.00000000  1
  Ba  Ba4  1  0.50000000  0.00000000  0.00000000  1
  Ba  Ba5  1  0.50000000  0.50000000  0.00000000  1
  Ba  Ba6  1  0.50000000  0.00000000  0.50000000  1
  Ba  Ba7  1  0.00000000  0.50000000  0.50000000  1
  Y  Y8  1  0.25000000  0.25000000  0.25000000  1
  Y  Y9  1  0.25000000  0.75000000  0.75000000  1
  Y  Y10  1  0.75000000  0.25000000  0.75000000  1
  Y  Y11  1  0.75000000  0.75000000  0.25000000  1
  Nb  Nb12  1  0.75000000  0.75000000  0.75000000  1
  Nb  Nb13  1  0.75000000  0.25000000  0.25000000  1
  Nb  Nb14  1  0.25000000  0.75000000  0.25000000  1
  Nb  Nb15  1  0.25000000  0.25000000  0.75000000  1
  O  O16  1  0.23290822  0.26878258  0.51404579  1
  O  O17  1  0.23290822  0.73121742  0.48595421  1
  O  O18  1  0.76709178  0.26878258  0.48595421  1
  O  O19  1  0.76709178  0.73121742  0.51404579  1
  O  O20  1  0.26878258  0.51404579  0.23290822  1
  O  O21  1  0.73121742  0.48595421  0.23290822  1
  O  O22  1  0.26878258  0.48595421  0.76709178  1
  O  O23  1  0.73121742  0.51404579  0.76709178  1
  O  O24  1  0.51404579  0.23290822  0.26878258  1
  O  O25  1  0.48595421  0.23290822  0.73121742  1
  O  O26  1  0.48595421  0.76709178  0.26878258  1
  O  O27  1  0.51404579  0.76709178  0.73121742  1
  O  O28  1  0.26709178  0.23121742  0.98595421  1
  O  O29  1  0.26709178  0.76878258  0.01404579  1
  O  O30  1  0.73290822  0.23121742  0.01404579  1
  O  O31  1  0.73290822  0.76878258  0.98595421  1
  O  O32  1  0.23121742  0.98595421  0.26709178  1
  O  O33  1  0.76878258  0.01404579  0.26709178  1
  O  O34  1  0.23121742  0.01404579  0.73290822  1
  O  O35  1  0.76878258  0.98595421  0.73290822  1
  O  O36  1  0.98595421  0.26709178  0.23121742  1
  O  O37  1  0.01404579  0.26709178  0.76878258  1
  O  O38  1  0.01404579  0.73290822  0.23121742  1
  O  O39  1  0.98595421  0.73290822  0.76878258  1
