# generated using pymatgen
data_SrPrGdCoO6
_symmetry_space_group_name_H-M   'P 1'
_cell_length_a   6.34409732
_cell_length_b   6.35590754
_cell_length_c   6.35590754
_cell_angle_alpha   59.68677082
_cell_angle_beta   60.10095704
_cell_angle_gamma   60.10095704
_symmetry_Int_Tables_number   1
_chemical_formula_structural   SrPrGdCoO6
_chemical_formula_sum   'Sr1 Pr1 Gd1 Co1 O6'
_cell_volume   181.06282010
_cell_formula_units_Z   1
loop_
 _symmetry_equiv_pos_site_id
 _symmetry_equiv_pos_as_xyz
  1  'x, y, z'
loop_
 _atom_site_type_symbol
 _atom_site_label
 _atom_site_symmetry_multiplicity
 _atom_site_fract_x
 _atom_site_fract_y
 _atom_site_fract_z
 _atom_site_occupancy
  Sr  Sr0  1  0.83060718  0.69998185  0.69998185  1
  Pr  Pr1  1  0.16974451  0.30041595  0.30041595  1
  Gd  Gd2  1  0.49528932  0.50253810  0.50253810  1
  Co  Co3  1  -0.00079719  -0.00040836  -0.00040836  1
  O  O4  1  0.10644926  0.77689154  0.77689154  1
  O  O5  1  0.89932876  0.22509510  0.22509510  1
  O  O6  1  0.28798752  0.70688571  0.16925230  1
  O  O7  1  0.71170156  0.28899478  0.83035303  1
  O  O8  1  0.71170156  0.83035303  0.28899478  1
  O  O9  1  0.28798752  0.16925230  0.70688571  1
