# generated using pymatgen
data_BaSrPrCoO6
_symmetry_space_group_name_H-M   'P 1'
_cell_length_a   5.90537084
_cell_length_b   5.89456665
_cell_length_c   8.40840321
_cell_angle_alpha   90.07259954
_cell_angle_beta   89.98615066
_cell_angle_gamma   89.39960589
_symmetry_Int_Tables_number   1
_chemical_formula_structural   BaSrPrCoO6
_chemical_formula_sum   'Ba2 Sr2 Pr2 Co2 O12'
_cell_volume   292.67685555
_cell_formula_units_Z   2
loop_
 _symmetry_equiv_pos_site_id
 _symmetry_equiv_pos_as_xyz
  1  'x, y, z'
loop_
 _atom_site_type_symbol
 _atom_site_label
 _atom_site_symmetry_multiplicity
 _atom_site_fract_x
 _atom_site_fract_y
 _atom_site_fract_z
 _atom_site_occupancy
  Ba  Ba0  1  0.99978625  0.00274016  0.24962002  1
  Ba  Ba1  1  0.00021375  0.99725984  0.75037998  1
  Sr  Sr2  1  0.49955078  0.50320368  0.25025861  1
  Sr  Sr3  1  0.50044922  0.49679632  0.74974139  1
  Pr  Pr4  1  0.50000000  -0.00000000  -0.00000000  1
  Pr  Pr5  1  -0.00000000  0.50000000  0.50000000  1
  Co  Co6  1  -0.00000000  0.50000000  -0.00000000  1
  Co  Co7  1  0.50000000  -0.00000000  0.50000000  1
  O  O8  1  0.21362408  0.26814485  0.98799115  1
  O  O9  1  0.28804754  0.75862997  0.51175503  1
  O  O10  1  0.78637592  0.73185515  0.01200885  1
  O  O11  1  0.71195246  0.24137003  0.48824497  1
  O  O12  1  0.23884051  0.71108629  0.98768298  1
  O  O13  1  0.27048239  0.21270844  0.51158782  1
  O  O14  1  0.76115949  0.28891371  0.01231702  1
  O  O15  1  0.72951761  0.78729156  0.48841218  1
  O  O16  1  0.47853388  0.99815265  0.27476262  1
  O  O17  1  0.02726644  0.49924310  0.22505100  1
  O  O18  1  0.52146612  0.00184735  0.72523738  1
  O  O19  1  0.97273356  0.50075690  0.77494900  1
