# generated using pymatgen
data_KCeNb4O12
_symmetry_space_group_name_H-M   'P 1'
_cell_length_a   5.63230329
_cell_length_b   5.63230329
_cell_length_c   7.96626562
_cell_angle_alpha   90.00000000
_cell_angle_beta   90.00000000
_cell_angle_gamma   90.92214167
_symmetry_Int_Tables_number   1
_chemical_formula_structural   KCeNb4O12
_chemical_formula_sum   'K1 Ce1 Nb4 O12'
_cell_volume   252.67984336
_cell_formula_units_Z   1
loop_
 _symmetry_equiv_pos_site_id
 _symmetry_equiv_pos_as_xyz
  1  'x, y, z'
loop_
 _atom_site_type_symbol
 _atom_site_label
 _atom_site_symmetry_multiplicity
 _atom_site_fract_x
 _atom_site_fract_y
 _atom_site_fract_z
 _atom_site_occupancy
  K  K0  1  0.00294696  0.99705304  0.50000000  1
  Ce  Ce1  1  0.49347950  0.50652050  -0.00000000  1
  Nb  Nb2  1  0.49650528  0.00762035  0.25116699  1
  Nb  Nb3  1  0.49650528  0.00762035  0.74883301  1
  Nb  Nb4  1  0.99237965  0.50349472  0.74883301  1
  Nb  Nb5  1  0.99237965  0.50349472  0.25116699  1
  O  O6  1  0.28368863  0.28323468  0.23178216  1
  O  O7  1  0.71676532  0.71631137  0.23178216  1
  O  O8  1  0.71676532  0.71631137  0.76821784  1
  O  O9  1  0.28368863  0.28323468  0.76821784  1
  O  O10  1  0.23998221  0.76001779  0.20456922  1
  O  O11  1  0.77638478  0.22361522  0.26922845  1
  O  O12  1  0.77638478  0.22361522  0.73077155  1
  O  O13  1  0.23998221  0.76001779  0.79543078  1
  O  O14  1  0.53560738  0.04735048  -0.00000000  1
  O  O15  1  0.47652144  0.98111655  0.50000000  1
  O  O16  1  0.95264952  0.46439262  -0.00000000  1
  O  O17  1  0.01888345  0.52347856  0.50000000  1
