# generated using pymatgen
data_BaSrTbTiO6
_symmetry_space_group_name_H-M   'P 1'
_cell_length_a   5.96231569
_cell_length_b   5.95013176
_cell_length_c   8.42964784
_cell_angle_alpha   90.04746845
_cell_angle_beta   90.07492190
_cell_angle_gamma   90.11985440
_symmetry_Int_Tables_number   1
_chemical_formula_structural   BaSrTbTiO6
_chemical_formula_sum   'Ba2 Sr2 Tb2 Ti2 O12'
_cell_volume   299.05392762
_cell_formula_units_Z   2
loop_
 _symmetry_equiv_pos_site_id
 _symmetry_equiv_pos_as_xyz
  1  'x, y, z'
loop_
 _atom_site_type_symbol
 _atom_site_label
 _atom_site_symmetry_multiplicity
 _atom_site_fract_x
 _atom_site_fract_y
 _atom_site_fract_z
 _atom_site_occupancy
  Ba  Ba0  1  0.50072954  0.50370424  0.25000541  1
  Ba  Ba1  1  0.49927046  0.49629576  0.74999459  1
  Sr  Sr2  1  0.00007761  0.00414372  0.25014849  1
  Sr  Sr3  1  -0.00007761  0.99585628  0.74985151  1
  Tb  Tb4  1  0.00000000  0.50000000  -0.00000000  1
  Tb  Tb5  1  0.50000000  -0.00000000  0.50000000  1
  Ti  Ti6  1  0.50000000  -0.00000000  -0.00000000  1
  Ti  Ti7  1  0.00000000  0.50000000  0.50000000  1
  O  O8  1  0.24819387  0.21623776  0.98472809  1
  O  O9  1  0.24402668  0.72322401  0.51435169  1
  O  O10  1  0.75180613  0.78376224  0.01527191  1
  O  O11  1  0.75597332  0.27677599  0.48564831  1
  O  O12  1  0.27726765  0.75560293  0.98528024  1
  O  O13  1  0.21586098  0.24774945  0.51477652  1
  O  O14  1  0.72273235  0.24439707  0.01471976  1
  O  O15  1  0.78413902  0.75225055  0.48522348  1
  O  O16  1  0.46756669  0.99881536  0.23371835  1
  O  O17  1  0.02558250  0.49731047  0.26620012  1
  O  O18  1  0.53243331  0.00118464  0.76628165  1
  O  O19  1  0.97441750  0.50268953  0.73379988  1
