# generated using pymatgen
data_SrHf4SnO12
_symmetry_space_group_name_H-M   'P 1'
_cell_length_a   5.64325948
_cell_length_b   5.64325948
_cell_length_c   8.34829003
_cell_angle_alpha   90.00000000
_cell_angle_beta   90.00000000
_cell_angle_gamma   88.05820389
_symmetry_Int_Tables_number   1
_chemical_formula_structural   SrHf4SnO12
_chemical_formula_sum   'Sr1 Hf4 Sn1 O12'
_cell_volume   265.71012838
_cell_formula_units_Z   1
loop_
 _symmetry_equiv_pos_site_id
 _symmetry_equiv_pos_as_xyz
  1  'x, y, z'
loop_
 _atom_site_type_symbol
 _atom_site_label
 _atom_site_symmetry_multiplicity
 _atom_site_fract_x
 _atom_site_fract_y
 _atom_site_fract_z
 _atom_site_occupancy
  Sr  Sr0  1  0.00000000  0.00000000  0.50000000  1
  Hf  Hf1  1  0.00000000  0.50000000  0.24500425  1
  Hf  Hf2  1  0.00000000  0.50000000  0.75499575  1
  Hf  Hf3  1  0.50000000  0.00000000  0.75499575  1
  Hf  Hf4  1  0.50000000  0.00000000  0.24500425  1
  Sn  Sn5  1  0.50000000  0.50000000  -0.00000000  1
  O  O6  1  0.18968101  0.18968101  0.73005292  1
  O  O7  1  0.18968101  0.18968101  0.26994708  1
  O  O8  1  0.81031899  0.81031899  0.26994708  1
  O  O9  1  0.81031899  0.81031899  0.73005292  1
  O  O10  1  0.67472874  0.32527126  0.19357101  1
  O  O11  1  0.67472874  0.32527126  0.80642899  1
  O  O12  1  0.32527126  0.67472874  0.19357101  1
  O  O13  1  0.32527126  0.67472874  0.80642899  1
  O  O14  1  0.00000000  0.50000000  -0.00000000  1
  O  O15  1  0.00000000  0.50000000  0.50000000  1
  O  O16  1  0.50000000  0.00000000  -0.00000000  1
  O  O17  1  0.50000000  0.00000000  0.50000000  1
