# generated using pymatgen
data_BaCaNdBiO6
_symmetry_space_group_name_H-M   'P 1'
_cell_length_a   6.22481261
_cell_length_b   6.22481261
_cell_length_c   6.22481261
_cell_angle_alpha   60.00000000
_cell_angle_beta   60.00000000
_cell_angle_gamma   60.00000000
_symmetry_Int_Tables_number   1
_chemical_formula_structural   BaCaNdBiO6
_chemical_formula_sum   'Ba1 Ca1 Nd1 Bi1 O6'
_cell_volume   170.55476172
_cell_formula_units_Z   1
loop_
 _symmetry_equiv_pos_site_id
 _symmetry_equiv_pos_as_xyz
  1  'x, y, z'
loop_
 _atom_site_type_symbol
 _atom_site_label
 _atom_site_symmetry_multiplicity
 _atom_site_fract_x
 _atom_site_fract_y
 _atom_site_fract_z
 _atom_site_occupancy
  Ba  Ba0  1  0.75000000  0.75000000  0.75000000  1
  Ca  Ca1  1  0.25000000  0.25000000  0.25000000  1
  Nd  Nd2  1  0.50000000  0.50000000  0.50000000  1
  Bi  Bi3  1  0.00000000  -0.00000000  -0.00000000  1
  O  O4  1  0.76025514  0.23974486  0.23974486  1
  O  O5  1  0.23974486  0.76025514  0.76025514  1
  O  O6  1  0.76025514  0.23974486  0.76025514  1
  O  O7  1  0.23974486  0.76025514  0.23974486  1
  O  O8  1  0.76025514  0.76025514  0.23974486  1
  O  O9  1  0.23974486  0.23974486  0.76025514  1
