# generated using pymatgen
data_PrMgCr2O6
_symmetry_space_group_name_H-M   'P 1'
_cell_length_a   5.28559100
_cell_length_b   5.43502300
_cell_length_c   7.71840100
_cell_angle_alpha   90.00000000
_cell_angle_beta   90.00000000
_cell_angle_gamma   90.00000000
_symmetry_Int_Tables_number   1
_chemical_formula_structural   PrMgCr2O6
_chemical_formula_sum   'Pr2 Mg2 Cr4 O12'
_cell_volume   221.72888784
_cell_formula_units_Z   2
loop_
 _symmetry_equiv_pos_site_id
 _symmetry_equiv_pos_as_xyz
  1  'x, y, z'
loop_
 _atom_site_type_symbol
 _atom_site_label
 _atom_site_symmetry_multiplicity
 _atom_site_fract_x
 _atom_site_fract_y
 _atom_site_fract_z
 _atom_site_occupancy
  Pr  Pr0  1  0.00844500  0.70111000  0.00000000  1
  Pr  Pr1  1  0.50844500  0.29889000  0.50000000  1
  Mg  Mg2  1  0.48012700  0.19445800  0.00000000  1
  Mg  Mg3  1  0.98012700  0.80554200  0.50000000  1
  Cr  Cr4  1  0.99647400  0.24298100  0.74964600  1
  Cr  Cr5  1  0.99647400  0.24298100  0.25035400  1
  Cr  Cr6  1  0.49647400  0.75701900  0.24964600  1
  Cr  Cr7  1  0.49647400  0.75701900  0.75035400  1
  O  O8  1  0.08351300  0.19445100  0.50000000  1
  O  O9  1  0.21193500  0.97490200  0.80690200  1
  O  O10  1  0.21193500  0.97490200  0.19309800  1
  O  O11  1  0.31822800  0.44974300  0.19337200  1
  O  O12  1  0.31822800  0.44974300  0.80662800  1
  O  O13  1  0.37225700  0.72604700  0.50000000  1
  O  O14  1  0.58351300  0.80554900  0.00000000  1
  O  O15  1  0.71193500  0.02509800  0.69309800  1
  O  O16  1  0.71193500  0.02509800  0.30690200  1
  O  O17  1  0.81822800  0.55025700  0.69337200  1
  O  O18  1  0.81822800  0.55025700  0.30662800  1
  O  O19  1  0.87225700  0.27395300  0.00000000  1
