# generated using pymatgen
data_BaSrSmSbO6
_symmetry_space_group_name_H-M   'P 1'
_cell_length_a   8.53283330
_cell_length_b   8.53963637
_cell_length_c   8.52650270
_cell_angle_alpha   90.00000000
_cell_angle_beta   90.00000000
_cell_angle_gamma   90.00000000
_symmetry_Int_Tables_number   1
_chemical_formula_structural   BaSrSmSbO6
_chemical_formula_sum   'Ba4 Sr4 Sm4 Sb4 O24'
_cell_volume   621.30317552
_cell_formula_units_Z   4
loop_
 _symmetry_equiv_pos_site_id
 _symmetry_equiv_pos_as_xyz
  1  'x, y, z'
loop_
 _atom_site_type_symbol
 _atom_site_label
 _atom_site_symmetry_multiplicity
 _atom_site_fract_x
 _atom_site_fract_y
 _atom_site_fract_z
 _atom_site_occupancy
  Ba  Ba0  1  -0.00000000  0.00000000  0.00000000  1
  Ba  Ba1  1  0.50000000  0.50000000  0.50000000  1
  Ba  Ba2  1  -0.00000000  0.50000000  -0.00000000  1
  Ba  Ba3  1  -0.00000000  0.00000000  0.50000000  1
  Sr  Sr4  1  -0.00000000  0.50000000  0.50000000  1
  Sr  Sr5  1  0.50000000  0.00000000  0.50000000  1
  Sr  Sr6  1  0.50000000  0.50000000  0.00000000  1
  Sr  Sr7  1  0.50000000  0.00000000  0.00000000  1
  Sm  Sm8  1  0.25210671  0.25047809  0.25066857  1
  Sm  Sm9  1  0.74789329  0.74952191  0.25066857  1
  Sm  Sm10  1  0.74789329  0.25047809  0.74933143  1
  Sm  Sm11  1  0.25210671  0.74952191  0.74933143  1
  Sb  Sb12  1  0.74633202  0.74929210  0.75051415  1
  Sb  Sb13  1  0.25366798  0.25070790  0.75051415  1
  Sb  Sb14  1  0.25366798  0.74929210  0.24948585  1
  Sb  Sb15  1  0.74633202  0.25070790  0.24948585  1
  O  O16  1  0.98195218  0.22520474  0.27173610  1
  O  O17  1  0.01804782  0.77479526  0.27173610  1
  O  O18  1  0.01804782  0.22520474  0.72826390  1
  O  O19  1  0.98195218  0.77479526  0.72826390  1
  O  O20  1  0.28240687  0.98311260  0.22010061  1
  O  O21  1  0.28240687  0.01688740  0.77989939  1
  O  O22  1  0.71759313  0.01688740  0.22010061  1
  O  O23  1  0.71759313  0.98311260  0.77989939  1
  O  O24  1  0.22871505  0.27540948  0.98402731  1
  O  O25  1  0.77128495  0.27540948  0.01597269  1
  O  O26  1  0.22871505  0.72459052  0.01597269  1
  O  O27  1  0.77128495  0.72459052  0.98402731  1
  O  O28  1  0.51554942  0.28656439  0.22000216  1
  O  O29  1  0.48445058  0.71343561  0.22000216  1
  O  O30  1  0.48445058  0.28656439  0.77999784  1
  O  O31  1  0.51554942  0.71343561  0.77999784  1
  O  O32  1  0.22189171  0.51685963  0.28593163  1
  O  O33  1  0.22189171  0.48314037  0.71406837  1
  O  O34  1  0.77810829  0.48314037  0.28593163  1
  O  O35  1  0.77810829  0.51685963  0.71406837  1
  O  O36  1  0.28480004  0.21773914  0.51759625  1
  O  O37  1  0.71519996  0.21773914  0.48240375  1
  O  O38  1  0.28480004  0.78226086  0.48240375  1
  O  O39  1  0.71519996  0.78226086  0.51759625  1
