# generated using pymatgen
data_BaSrNdMnO6
_symmetry_space_group_name_H-M   'P 1'
_cell_length_a   8.46677748
_cell_length_b   8.44986790
_cell_length_c   8.46337861
_cell_angle_alpha   90.00000000
_cell_angle_beta   90.00000000
_cell_angle_gamma   90.00000000
_symmetry_Int_Tables_number   1
_chemical_formula_structural   BaSrNdMnO6
_chemical_formula_sum   'Ba4 Sr4 Nd4 Mn4 O24'
_cell_volume   605.49677594
_cell_formula_units_Z   4
loop_
 _symmetry_equiv_pos_site_id
 _symmetry_equiv_pos_as_xyz
  1  'x, y, z'
loop_
 _atom_site_type_symbol
 _atom_site_label
 _atom_site_symmetry_multiplicity
 _atom_site_fract_x
 _atom_site_fract_y
 _atom_site_fract_z
 _atom_site_occupancy
  Ba  Ba0  1  0.00000000  -0.00000000  0.00000000  1
  Ba  Ba1  1  0.50000000  0.50000000  0.50000000  1
  Ba  Ba2  1  0.00000000  0.50000000  0.00000000  1
  Ba  Ba3  1  0.00000000  -0.00000000  0.50000000  1
  Sr  Sr4  1  0.00000000  0.50000000  0.50000000  1
  Sr  Sr5  1  0.50000000  -0.00000000  0.50000000  1
  Sr  Sr6  1  0.50000000  0.50000000  0.00000000  1
  Sr  Sr7  1  0.50000000  -0.00000000  0.00000000  1
  Nd  Nd8  1  0.25241966  0.25011233  0.25136352  1
  Nd  Nd9  1  0.74758034  0.74988767  0.25136352  1
  Nd  Nd10  1  0.74758034  0.25011233  0.74863648  1
  Nd  Nd11  1  0.25241966  0.74988767  0.74863648  1
  Mn  Mn12  1  0.74811367  0.74996363  0.74962792  1
  Mn  Mn13  1  0.25188633  0.25003637  0.74962792  1
  Mn  Mn14  1  0.25188633  0.74996363  0.25037208  1
  Mn  Mn15  1  0.74811367  0.25003637  0.25037208  1
  O  O16  1  0.97722733  0.23209322  0.26948382  1
  O  O17  1  0.02277267  0.76790678  0.26948382  1
  O  O18  1  0.02277267  0.23209322  0.73051618  1
  O  O19  1  0.97722733  0.76790678  0.73051618  1
  O  O20  1  0.27665950  0.97781589  0.22508906  1
  O  O21  1  0.27665950  0.02218411  0.77491094  1
  O  O22  1  0.72334050  0.02218411  0.22508906  1
  O  O23  1  0.72334050  0.97781589  0.77491094  1
  O  O24  1  0.23289087  0.27002685  0.97698471  1
  O  O25  1  0.76710913  0.27002685  0.02301529  1
  O  O26  1  0.23289087  0.72997315  0.02301529  1
  O  O27  1  0.76710913  0.72997315  0.97698471  1
  O  O28  1  0.52233486  0.27710034  0.22155820  1
  O  O29  1  0.47766514  0.72289966  0.22155820  1
  O  O30  1  0.47766514  0.27710034  0.77844180  1
  O  O31  1  0.52233486  0.72289966  0.77844180  1
  O  O32  1  0.22551314  0.52201065  0.27794288  1
  O  O33  1  0.22551314  0.47798935  0.72205712  1
  O  O34  1  0.77448686  0.47798935  0.27794288  1
  O  O35  1  0.77448686  0.52201065  0.72205712  1
  O  O36  1  0.27943766  0.22315386  0.52240560  1
  O  O37  1  0.72056234  0.22315386  0.47759440  1
  O  O38  1  0.27943766  0.77684614  0.47759440  1
  O  O39  1  0.72056234  0.77684614  0.52240560  1
