# generated using pymatgen
data_SrDy(CoO3)4
_symmetry_space_group_name_H-M   'P 1'
_cell_length_a   5.30562278
_cell_length_b   5.30562278
_cell_length_c   7.46821291
_cell_angle_alpha   90.00000000
_cell_angle_beta   90.00000000
_cell_angle_gamma   90.00000000
_symmetry_Int_Tables_number   1
_chemical_formula_structural   SrDy(CoO3)4
_chemical_formula_sum   'Sr1 Dy1 Co4 O12'
_cell_volume   210.22745321
_cell_formula_units_Z   1
loop_
 _symmetry_equiv_pos_site_id
 _symmetry_equiv_pos_as_xyz
  1  'x, y, z'
loop_
 _atom_site_type_symbol
 _atom_site_label
 _atom_site_symmetry_multiplicity
 _atom_site_fract_x
 _atom_site_fract_y
 _atom_site_fract_z
 _atom_site_occupancy
  Sr  Sr0  1  0.00000000  -0.00000000  0.50000000  1
  Dy  Dy1  1  0.50000000  0.50000000  0.00000000  1
  Co  Co2  1  0.00000000  0.50000000  0.74726103  1
  Co  Co3  1  0.00000000  0.50000000  0.25273897  1
  Co  Co4  1  0.50000000  -0.00000000  0.25273897  1
  Co  Co5  1  0.50000000  0.00000000  0.74726103  1
  O  O6  1  0.26043240  0.26043240  0.23630912  1
  O  O7  1  0.26043240  0.26043240  0.76369088  1
  O  O8  1  0.73956760  0.73956760  0.23630912  1
  O  O9  1  0.73956760  0.73956760  0.76369088  1
  O  O10  1  0.73956760  0.26043240  0.76369088  1
  O  O11  1  0.73956760  0.26043240  0.23630912  1
  O  O12  1  0.26043240  0.73956760  0.76369088  1
  O  O13  1  0.26043240  0.73956760  0.23630912  1
  O  O14  1  0.00000000  0.50000000  0.50000000  1
  O  O15  1  0.00000000  0.50000000  0.00000000  1
  O  O16  1  0.50000000  0.00000000  0.50000000  1
  O  O17  1  0.50000000  -0.00000000  0.00000000  1
