# generated using pymatgen
data_KSrEuWO6
_symmetry_space_group_name_H-M   'P 1'
_cell_length_a   8.43831470
_cell_length_b   8.51083271
_cell_length_c   8.47420336
_cell_angle_alpha   90.00000000
_cell_angle_beta   90.00000000
_cell_angle_gamma   90.00000000
_symmetry_Int_Tables_number   1
_chemical_formula_structural   KSrEuWO6
_chemical_formula_sum   'K4 Sr4 Eu4 W4 O24'
_cell_volume   608.59258103
_cell_formula_units_Z   4
loop_
 _symmetry_equiv_pos_site_id
 _symmetry_equiv_pos_as_xyz
  1  'x, y, z'
loop_
 _atom_site_type_symbol
 _atom_site_label
 _atom_site_symmetry_multiplicity
 _atom_site_fract_x
 _atom_site_fract_y
 _atom_site_fract_z
 _atom_site_occupancy
  K  K0  1  0.50000000  -0.00000000  0.50000000  1
  K  K1  1  0.50000000  0.50000000  -0.00000000  1
  K  K2  1  -0.00000000  0.50000000  -0.00000000  1
  K  K3  1  -0.00000000  -0.00000000  0.50000000  1
  Sr  Sr4  1  -0.00000000  0.50000000  0.50000000  1
  Sr  Sr5  1  0.50000000  -0.00000000  -0.00000000  1
  Sr  Sr6  1  -0.00000000  -0.00000000  -0.00000000  1
  Sr  Sr7  1  0.50000000  0.50000000  0.50000000  1
  Eu  Eu8  1  0.75000000  0.75000000  0.75000000  1
  Eu  Eu9  1  0.25000000  0.25000000  0.75000000  1
  Eu  Eu10  1  0.25000000  0.75000000  0.25000000  1
  Eu  Eu11  1  0.75000000  0.25000000  0.25000000  1
  W  W12  1  0.25000000  0.25000000  0.25000000  1
  W  W13  1  0.75000000  0.75000000  0.25000000  1
  W  W14  1  0.75000000  0.25000000  0.75000000  1
  W  W15  1  0.25000000  0.75000000  0.75000000  1
  O  O16  1  0.02193252  0.22616551  0.27130488  1
  O  O17  1  0.97806748  0.77383449  0.27130488  1
  O  O18  1  0.97806748  0.22616551  0.72869512  1
  O  O19  1  0.02193252  0.77383449  0.72869512  1
  O  O20  1  0.27174098  0.02015510  0.21229001  1
  O  O21  1  0.27174098  0.97984490  0.78770999  1
  O  O22  1  0.72825902  0.97984490  0.21229001  1
  O  O23  1  0.72825902  0.02015510  0.78770999  1
  O  O24  1  0.22342048  0.26772815  0.02051364  1
  O  O25  1  0.77657952  0.26772815  0.97948636  1
  O  O26  1  0.22342048  0.73227185  0.97948636  1
  O  O27  1  0.77657952  0.73227185  0.02051364  1
  O  O28  1  0.47806748  0.27383449  0.22869512  1
  O  O29  1  0.52193252  0.72616551  0.22869512  1
  O  O30  1  0.52193252  0.27383449  0.77130488  1
  O  O31  1  0.47806748  0.72616551  0.77130488  1
  O  O32  1  0.22825902  0.47984490  0.28770999  1
  O  O33  1  0.22825902  0.52015510  0.71229001  1
  O  O34  1  0.77174098  0.52015510  0.28770999  1
  O  O35  1  0.77174098  0.47984490  0.71229001  1
  O  O36  1  0.27657952  0.23227185  0.47948636  1
  O  O37  1  0.72342048  0.23227185  0.52051364  1
  O  O38  1  0.27657952  0.76772815  0.52051364  1
  O  O39  1  0.72342048  0.76772815  0.47948636  1
