# generated using pymatgen
data_BaCaTi4O12
_symmetry_space_group_name_H-M   'P 1'
_cell_length_a   5.54720716
_cell_length_b   5.54720716
_cell_length_c   7.82986399
_cell_angle_alpha   90.00000000
_cell_angle_beta   90.00000000
_cell_angle_gamma   90.00000000
_symmetry_Int_Tables_number   1
_chemical_formula_structural   BaCaTi4O12
_chemical_formula_sum   'Ba1 Ca1 Ti4 O12'
_cell_volume   240.93671674
_cell_formula_units_Z   1
loop_
 _symmetry_equiv_pos_site_id
 _symmetry_equiv_pos_as_xyz
  1  'x, y, z'
loop_
 _atom_site_type_symbol
 _atom_site_label
 _atom_site_symmetry_multiplicity
 _atom_site_fract_x
 _atom_site_fract_y
 _atom_site_fract_z
 _atom_site_occupancy
  Ba  Ba0  1  0.50000000  0.50000000  -0.00000000  1
  Ca  Ca1  1  0.00000000  0.00000000  0.50000000  1
  Ti  Ti2  1  0.00000000  0.50000000  0.74695854  1
  Ti  Ti3  1  0.00000000  0.50000000  0.25304146  1
  Ti  Ti4  1  0.50000000  -0.00000000  0.74695854  1
  Ti  Ti5  1  0.50000000  -0.00000000  0.25304146  1
  O  O6  1  0.24537318  0.24537318  0.74214853  1
  O  O7  1  0.24537318  0.24537318  0.25785147  1
  O  O8  1  0.75462682  0.75462682  0.74214853  1
  O  O9  1  0.75462682  0.75462682  0.25785147  1
  O  O10  1  0.75462682  0.24537318  0.74214853  1
  O  O11  1  0.75462682  0.24537318  0.25785147  1
  O  O12  1  0.24537318  0.75462682  0.74214853  1
  O  O13  1  0.24537318  0.75462682  0.25785147  1
  O  O14  1  0.00000000  0.50000000  0.50000000  1
  O  O15  1  0.00000000  0.50000000  -0.00000000  1
  O  O16  1  0.50000000  0.00000000  0.50000000  1
  O  O17  1  0.50000000  -0.00000000  -0.00000000  1
