# generated using pymatgen
data_BaYSnSbO6
_symmetry_space_group_name_H-M   'P 1'
_cell_length_a   8.46815333
_cell_length_b   8.40755874
_cell_length_c   8.46146380
_cell_angle_alpha   90.00000000
_cell_angle_beta   90.00000000
_cell_angle_gamma   90.00000000
_symmetry_Int_Tables_number   1
_chemical_formula_structural   BaYSnSbO6
_chemical_formula_sum   'Ba4 Y4 Sn4 Sb4 O24'
_cell_volume   602.42657817
_cell_formula_units_Z   4
loop_
 _symmetry_equiv_pos_site_id
 _symmetry_equiv_pos_as_xyz
  1  'x, y, z'
loop_
 _atom_site_type_symbol
 _atom_site_label
 _atom_site_symmetry_multiplicity
 _atom_site_fract_x
 _atom_site_fract_y
 _atom_site_fract_z
 _atom_site_occupancy
  Ba  Ba0  1  0.00000000  -0.00000000  -0.00000000  1
  Ba  Ba1  1  0.50000000  0.50000000  0.50000000  1
  Ba  Ba2  1  0.00000000  0.50000000  0.50000000  1
  Ba  Ba3  1  0.50000000  -0.00000000  -0.00000000  1
  Y  Y4  1  0.25000000  0.25000000  0.25000000  1
  Y  Y5  1  0.75000000  0.75000000  0.25000000  1
  Y  Y6  1  0.75000000  0.25000000  0.75000000  1
  Y  Y7  1  0.25000000  0.75000000  0.75000000  1
  Sn  Sn8  1  0.50000000  -0.00000000  0.50000000  1
  Sn  Sn9  1  0.50000000  0.50000000  -0.00000000  1
  Sn  Sn10  1  -0.00000000  0.50000000  -0.00000000  1
  Sn  Sn11  1  -0.00000000  -0.00000000  0.50000000  1
  Sb  Sb12  1  0.75000000  0.75000000  0.75000000  1
  Sb  Sb13  1  0.25000000  0.25000000  0.75000000  1
  Sb  Sb14  1  0.25000000  0.75000000  0.25000000  1
  Sb  Sb15  1  0.75000000  0.25000000  0.25000000  1
  O  O16  1  0.98517116  0.22263372  0.28957603  1
  O  O17  1  0.01482884  0.77736628  0.28957603  1
  O  O18  1  0.01482884  0.22263372  0.71042397  1
  O  O19  1  0.98517116  0.77736628  0.71042397  1
  O  O20  1  0.26843717  0.98611294  0.22118139  1
  O  O21  1  0.26843717  0.01388706  0.77881861  1
  O  O22  1  0.73156283  0.01388706  0.22118139  1
  O  O23  1  0.73156283  0.98611294  0.77881861  1
  O  O24  1  0.20835445  0.27636396  0.98506437  1
  O  O25  1  0.79164555  0.27636396  0.01493563  1
  O  O26  1  0.20835445  0.72363604  0.01493563  1
  O  O27  1  0.79164555  0.72363604  0.98506437  1
  O  O28  1  0.51482884  0.27736628  0.21042397  1
  O  O29  1  0.48517116  0.72263372  0.21042397  1
  O  O30  1  0.48517116  0.27736628  0.78957603  1
  O  O31  1  0.51482884  0.72263372  0.78957603  1
  O  O32  1  0.23156283  0.51388706  0.27881861  1
  O  O33  1  0.23156283  0.48611294  0.72118139  1
  O  O34  1  0.76843717  0.48611294  0.27881861  1
  O  O35  1  0.76843717  0.51388706  0.72118139  1
  O  O36  1  0.29164555  0.22363604  0.51493563  1
  O  O37  1  0.70835445  0.22363604  0.48506437  1
  O  O38  1  0.29164555  0.77636396  0.48506437  1
  O  O39  1  0.70835445  0.77636396  0.51493563  1
