# generated using pymatgen
data_KSrCeBiO6
_symmetry_space_group_name_H-M   'P 1'
_cell_length_a   8.62087857
_cell_length_b   8.64182709
_cell_length_c   8.64110265
_cell_angle_alpha   90.00000000
_cell_angle_beta   90.00000000
_cell_angle_gamma   90.00000000
_symmetry_Int_Tables_number   1
_chemical_formula_structural   KSrCeBiO6
_chemical_formula_sum   'K4 Sr4 Ce4 Bi4 O24'
_cell_volume   643.76337417
_cell_formula_units_Z   4
loop_
 _symmetry_equiv_pos_site_id
 _symmetry_equiv_pos_as_xyz
  1  'x, y, z'
loop_
 _atom_site_type_symbol
 _atom_site_label
 _atom_site_symmetry_multiplicity
 _atom_site_fract_x
 _atom_site_fract_y
 _atom_site_fract_z
 _atom_site_occupancy
  K  K0  1  0.50000000  -0.00000000  0.50000000  1
  K  K1  1  0.50000000  0.50000000  0.00000000  1
  K  K2  1  -0.00000000  0.50000000  -0.00000000  1
  K  K3  1  -0.00000000  -0.00000000  0.50000000  1
  Sr  Sr4  1  -0.00000000  0.50000000  0.50000000  1
  Sr  Sr5  1  0.50000000  -0.00000000  -0.00000000  1
  Sr  Sr6  1  -0.00000000  -0.00000000  -0.00000000  1
  Sr  Sr7  1  0.50000000  0.50000000  0.50000000  1
  Ce  Ce8  1  0.25000000  0.25000000  0.25000000  1
  Ce  Ce9  1  0.75000000  0.75000000  0.25000000  1
  Ce  Ce10  1  0.75000000  0.25000000  0.75000000  1
  Ce  Ce11  1  0.25000000  0.75000000  0.75000000  1
  Bi  Bi12  1  0.75000000  0.75000000  0.75000000  1
  Bi  Bi13  1  0.25000000  0.25000000  0.75000000  1
  Bi  Bi14  1  0.25000000  0.75000000  0.25000000  1
  Bi  Bi15  1  0.75000000  0.25000000  0.25000000  1
  O  O16  1  0.99523968  0.22217729  0.27299435  1
  O  O17  1  0.00476032  0.77782271  0.27299435  1
  O  O18  1  0.00476032  0.22217729  0.72700565  1
  O  O19  1  0.99523968  0.77782271  0.72700565  1
  O  O20  1  0.27514470  0.99344055  0.20736555  1
  O  O21  1  0.27514470  0.00655945  0.79263445  1
  O  O22  1  0.72485530  0.00655945  0.20736555  1
  O  O23  1  0.72485530  0.99344055  0.79263445  1
  O  O24  1  0.21987072  0.26503005  0.99546321  1
  O  O25  1  0.78012928  0.26503005  0.00453679  1
  O  O26  1  0.21987072  0.73496995  0.00453679  1
  O  O27  1  0.78012928  0.73496995  0.99546321  1
  O  O28  1  0.50476032  0.27782271  0.22700565  1
  O  O29  1  0.49523968  0.72217729  0.22700565  1
  O  O30  1  0.49523968  0.27782271  0.77299435  1
  O  O31  1  0.50476032  0.72217729  0.77299435  1
  O  O32  1  0.22485530  0.50655945  0.29263445  1
  O  O33  1  0.22485530  0.49344055  0.70736555  1
  O  O34  1  0.77514470  0.49344055  0.29263445  1
  O  O35  1  0.77514470  0.50655945  0.70736555  1
  O  O36  1  0.28012928  0.23496995  0.50453679  1
  O  O37  1  0.71987072  0.23496995  0.49546321  1
  O  O38  1  0.28012928  0.76503005  0.49546321  1
  O  O39  1  0.71987072  0.76503005  0.50453679  1
