# generated using pymatgen
data_NaLa(FeO3)4
_symmetry_space_group_name_H-M   'P 1'
_cell_length_a   5.36358111
_cell_length_b   5.36358111
_cell_length_c   7.69444581
_cell_angle_alpha   90.00000000
_cell_angle_beta   90.00000000
_cell_angle_gamma   90.20020757
_symmetry_Int_Tables_number   1
_chemical_formula_structural   NaLa(FeO3)4
_chemical_formula_sum   'Na1 La1 Fe4 O12'
_cell_volume   221.35248348
_cell_formula_units_Z   1
loop_
 _symmetry_equiv_pos_site_id
 _symmetry_equiv_pos_as_xyz
  1  'x, y, z'
loop_
 _atom_site_type_symbol
 _atom_site_label
 _atom_site_symmetry_multiplicity
 _atom_site_fract_x
 _atom_site_fract_y
 _atom_site_fract_z
 _atom_site_occupancy
  Na  Na0  1  0.99424136  0.00575864  0.00000000  1
  La  La1  1  0.50822112  0.49177888  0.50000000  1
  Fe  Fe2  1  0.50242713  0.99871293  0.23763009  1
  Fe  Fe3  1  0.50242713  0.99871293  0.76236991  1
  Fe  Fe4  1  0.00128707  0.49757287  0.76236991  1
  Fe  Fe5  1  0.00128707  0.49757287  0.23763009  1
  O  O6  1  0.28680997  0.28519535  0.25301602  1
  O  O7  1  0.71480465  0.71319003  0.25301602  1
  O  O8  1  0.71480465  0.71319003  0.74698398  1
  O  O9  1  0.28680997  0.28519535  0.74698398  1
  O  O10  1  0.22002809  0.77997191  0.22410884  1
  O  O11  1  0.77317971  0.22682029  0.29397428  1
  O  O12  1  0.77317971  0.22682029  0.70602572  1
  O  O13  1  0.22002809  0.77997191  0.77589116  1
  O  O14  1  0.55047475  0.03757702  0.00000000  1
  O  O15  1  0.47356349  0.98049695  0.50000000  1
  O  O16  1  0.96242298  0.44952525  0.00000000  1
  O  O17  1  0.01950305  0.52643651  0.50000000  1
