# generated using pymatgen
data_SrCaSmBiO6
_symmetry_space_group_name_H-M   'P 1'
_cell_length_a   8.50426780
_cell_length_b   8.52524266
_cell_length_c   8.54909174
_cell_angle_alpha   90.00000000
_cell_angle_beta   90.00000000
_cell_angle_gamma   90.00000000
_symmetry_Int_Tables_number   1
_chemical_formula_structural   SrCaSmBiO6
_chemical_formula_sum   'Sr4 Ca4 Sm4 Bi4 O24'
_cell_volume   619.81724407
_cell_formula_units_Z   4
loop_
 _symmetry_equiv_pos_site_id
 _symmetry_equiv_pos_as_xyz
  1  'x, y, z'
loop_
 _atom_site_type_symbol
 _atom_site_label
 _atom_site_symmetry_multiplicity
 _atom_site_fract_x
 _atom_site_fract_y
 _atom_site_fract_z
 _atom_site_occupancy
  Sr  Sr0  1  0.00000000  0.50000000  0.50000000  1
  Sr  Sr1  1  0.50000000  -0.00000000  0.50000000  1
  Sr  Sr2  1  0.50000000  -0.00000000  -0.00000000  1
  Sr  Sr3  1  -0.00000000  0.50000000  -0.00000000  1
  Ca  Ca4  1  0.50000000  0.50000000  -0.00000000  1
  Ca  Ca5  1  0.00000000  -0.00000000  0.50000000  1
  Ca  Ca6  1  -0.00000000  0.00000000  -0.00000000  1
  Ca  Ca7  1  0.50000000  0.50000000  0.50000000  1
  Sm  Sm8  1  0.25000000  0.25000000  0.25000000  1
  Sm  Sm9  1  0.75000000  0.75000000  0.25000000  1
  Sm  Sm10  1  0.75000000  0.25000000  0.75000000  1
  Sm  Sm11  1  0.25000000  0.75000000  0.75000000  1
  Bi  Bi12  1  0.75000000  0.75000000  0.75000000  1
  Bi  Bi13  1  0.25000000  0.25000000  0.75000000  1
  Bi  Bi14  1  0.25000000  0.75000000  0.25000000  1
  Bi  Bi15  1  0.75000000  0.25000000  0.25000000  1
  O  O16  1  0.98885600  0.19845836  0.31401336  1
  O  O17  1  0.01114400  0.80154164  0.31401336  1
  O  O18  1  0.01114400  0.19845836  0.68598664  1
  O  O19  1  0.98885600  0.80154164  0.68598664  1
  O  O20  1  0.31103161  0.99055030  0.26789134  1
  O  O21  1  0.31103161  0.00944970  0.73210866  1
  O  O22  1  0.68896839  0.00944970  0.26789134  1
  O  O23  1  0.68896839  0.99055030  0.73210866  1
  O  O24  1  0.18736573  0.21209202  0.98980155  1
  O  O25  1  0.81263427  0.21209202  0.01019845  1
  O  O26  1  0.18736573  0.78790798  0.01019845  1
  O  O27  1  0.81263427  0.78790798  0.98980155  1
  O  O28  1  0.51114400  0.30154164  0.18598664  1
  O  O29  1  0.48885600  0.69845836  0.18598664  1
  O  O30  1  0.48885600  0.30154164  0.81401336  1
  O  O31  1  0.51114400  0.69845836  0.81401336  1
  O  O32  1  0.18896839  0.50944970  0.23210866  1
  O  O33  1  0.18896839  0.49055030  0.76789134  1
  O  O34  1  0.81103161  0.49055030  0.23210866  1
  O  O35  1  0.81103161  0.50944970  0.76789134  1
  O  O36  1  0.31263427  0.28790798  0.51019845  1
  O  O37  1  0.68736573  0.28790798  0.48980155  1
  O  O38  1  0.31263427  0.71209202  0.48980155  1
  O  O39  1  0.68736573  0.71209202  0.51019845  1
