# generated using pymatgen
data_BaCaGdBiO6
_symmetry_space_group_name_H-M   'P 1'
_cell_length_a   6.01625011
_cell_length_b   6.10381227
_cell_length_c   8.59746574
_cell_angle_alpha   90.08916640
_cell_angle_beta   89.69588742
_cell_angle_gamma   90.10447812
_symmetry_Int_Tables_number   1
_chemical_formula_structural   BaCaGdBiO6
_chemical_formula_sum   'Ba2 Ca2 Gd2 Bi2 O12'
_cell_volume   315.71131335
_cell_formula_units_Z   2
loop_
 _symmetry_equiv_pos_site_id
 _symmetry_equiv_pos_as_xyz
  1  'x, y, z'
loop_
 _atom_site_type_symbol
 _atom_site_label
 _atom_site_symmetry_multiplicity
 _atom_site_fract_x
 _atom_site_fract_y
 _atom_site_fract_z
 _atom_site_occupancy
  Ba  Ba0  1  0.99379094  0.03564423  0.25039999  1
  Ba  Ba1  1  0.00620906  0.96435577  0.74960001  1
  Ca  Ca2  1  0.51019319  0.54036040  0.25221794  1
  Ca  Ca3  1  0.48980681  0.45963960  0.74778206  1
  Gd  Gd4  1  0.50000000  0.00000000  0.00000000  1
  Gd  Gd5  1  0.00000000  0.50000000  0.50000000  1
  Bi  Bi6  1  0.00000000  0.50000000  0.00000000  1
  Bi  Bi7  1  0.50000000  0.00000000  0.50000000  1
  O  O8  1  0.20179236  0.21812181  0.96015779  1
  O  O9  1  0.31223221  0.70699147  0.55992429  1
  O  O10  1  0.79820764  0.78187819  0.03984221  1
  O  O11  1  0.68776779  0.29300853  0.44007571  1
  O  O12  1  0.28848263  0.69318267  0.93576629  1
  O  O13  1  0.21506962  0.20311865  0.53258396  1
  O  O14  1  0.71151737  0.30681733  0.06423371  1
  O  O15  1  0.78493038  0.79688135  0.46741604  1
  O  O16  1  0.43141442  0.93380606  0.25866600  1
  O  O17  1  0.11423334  0.49444942  0.24031067  1
  O  O18  1  0.56858558  0.06619394  0.74133400  1
  O  O19  1  0.88576666  0.50555058  0.75968933  1
