# generated using pymatgen
data_BaCaZr4O12
_symmetry_space_group_name_H-M   'P 1'
_cell_length_a   5.90466049
_cell_length_b   5.90466049
_cell_length_c   8.28705485
_cell_angle_alpha   90.00000000
_cell_angle_beta   90.00000000
_cell_angle_gamma   89.82407722
_symmetry_Int_Tables_number   1
_chemical_formula_structural   BaCaZr4O12
_chemical_formula_sum   'Ba1 Ca1 Zr4 O12'
_cell_volume   288.92693348
_cell_formula_units_Z   1
loop_
 _symmetry_equiv_pos_site_id
 _symmetry_equiv_pos_as_xyz
  1  'x, y, z'
loop_
 _atom_site_type_symbol
 _atom_site_label
 _atom_site_symmetry_multiplicity
 _atom_site_fract_x
 _atom_site_fract_y
 _atom_site_fract_z
 _atom_site_occupancy
  Ba  Ba0  1  0.52000365  0.47999635  0.50000000  1
  Ca  Ca1  1  0.97630369  0.02369631  0.00000000  1
  Zr  Zr2  1  0.48700060  0.98959809  0.24320377  1
  Zr  Zr3  1  0.48700060  0.98959809  0.75679623  1
  Zr  Zr4  1  0.01040191  0.51299940  0.75679623  1
  Zr  Zr5  1  0.01040191  0.51299940  0.24320377  1
  O  O6  1  0.27861649  0.27840628  0.25161286  1
  O  O7  1  0.72159372  0.72138351  0.25161286  1
  O  O8  1  0.72159372  0.72138351  0.74838714  1
  O  O9  1  0.27861649  0.27840628  0.74838714  1
  O  O10  1  0.20293151  0.79706849  0.19318049  1
  O  O11  1  0.76972333  0.23027667  0.26222751  1
  O  O12  1  0.76972333  0.23027667  0.73777249  1
  O  O13  1  0.20293151  0.79706849  0.80681951  1
  O  O14  1  0.57840255  0.01925225  0.00000000  1
  O  O15  1  0.48424799  0.97694074  0.50000000  1
  O  O16  1  0.98074775  0.42159745  0.00000000  1
  O  O17  1  0.02305926  0.51575201  0.50000000  1
