# generated using pymatgen
data_BaSrGdSbO6
_symmetry_space_group_name_H-M   'P 1'
_cell_length_a   8.48713645
_cell_length_b   8.49307163
_cell_length_c   8.49950187
_cell_angle_alpha   90.00000000
_cell_angle_beta   90.00000000
_cell_angle_gamma   90.00000000
_symmetry_Int_Tables_number   1
_chemical_formula_structural   BaSrGdSbO6
_chemical_formula_sum   'Ba4 Sr4 Gd4 Sb4 O24'
_cell_volume   612.65988519
_cell_formula_units_Z   4
loop_
 _symmetry_equiv_pos_site_id
 _symmetry_equiv_pos_as_xyz
  1  'x, y, z'
loop_
 _atom_site_type_symbol
 _atom_site_label
 _atom_site_symmetry_multiplicity
 _atom_site_fract_x
 _atom_site_fract_y
 _atom_site_fract_z
 _atom_site_occupancy
  Ba  Ba0  1  -0.00000000  -0.00000000  -0.00000000  1
  Ba  Ba1  1  0.50000000  0.50000000  0.50000000  1
  Ba  Ba2  1  0.50000000  0.50000000  -0.00000000  1
  Ba  Ba3  1  0.50000000  -0.00000000  -0.00000000  1
  Sr  Sr4  1  -0.00000000  0.50000000  0.50000000  1
  Sr  Sr5  1  0.50000000  0.00000000  0.50000000  1
  Sr  Sr6  1  -0.00000000  0.50000000  -0.00000000  1
  Sr  Sr7  1  -0.00000000  0.00000000  0.50000000  1
  Gd  Gd8  1  0.75164908  0.75005114  0.74815871  1
  Gd  Gd9  1  0.24835092  0.24994886  0.74815871  1
  Gd  Gd10  1  0.24835092  0.75005114  0.25184129  1
  Gd  Gd11  1  0.75164908  0.24994886  0.25184129  1
  Sb  Sb12  1  0.24711764  0.24883481  0.25409644  1
  Sb  Sb13  1  0.75288236  0.75116519  0.25409644  1
  Sb  Sb14  1  0.75288236  0.24883481  0.74590356  1
  Sb  Sb15  1  0.24711764  0.75116519  0.74590356  1
  O  O16  1  0.01392058  0.22188496  0.28464102  1
  O  O17  1  0.98607942  0.77811504  0.28464102  1
  O  O18  1  0.98607942  0.22188496  0.71535898  1
  O  O19  1  0.01392058  0.77811504  0.71535898  1
  O  O20  1  0.26819038  0.01447703  0.22649034  1
  O  O21  1  0.26819038  0.98552297  0.77350966  1
  O  O22  1  0.73180962  0.98552297  0.22649034  1
  O  O23  1  0.73180962  0.01447703  0.77350966  1
  O  O24  1  0.21790768  0.27737201  0.01789824  1
  O  O25  1  0.78209232  0.27737201  0.98210176  1
  O  O26  1  0.21790768  0.72262799  0.98210176  1
  O  O27  1  0.78209232  0.72262799  0.01789824  1
  O  O28  1  0.48316934  0.27215758  0.22956621  1
  O  O29  1  0.51683066  0.72784242  0.22956621  1
  O  O30  1  0.51683066  0.27215758  0.77043379  1
  O  O31  1  0.48316934  0.72784242  0.77043379  1
  O  O32  1  0.22006408  0.48392047  0.28193998  1
  O  O33  1  0.22006408  0.51607953  0.71806002  1
  O  O34  1  0.77993592  0.51607953  0.28193998  1
  O  O35  1  0.77993592  0.48392047  0.71806002  1
  O  O36  1  0.27969362  0.22054262  0.48665811  1
  O  O37  1  0.72030638  0.22054262  0.51334189  1
  O  O38  1  0.27969362  0.77945738  0.51334189  1
  O  O39  1  0.72030638  0.77945738  0.48665811  1
