# generated using pymatgen
data_NdSmTi4O12
_symmetry_space_group_name_H-M   'P 1'
_cell_length_a   5.46455201
_cell_length_b   5.46455201
_cell_length_c   7.72574618
_cell_angle_alpha   90.00000000
_cell_angle_beta   90.00000000
_cell_angle_gamma   89.57894373
_symmetry_Int_Tables_number   1
_chemical_formula_structural   NdSmTi4O12
_chemical_formula_sum   'Nd1 Sm1 Ti4 O12'
_cell_volume   230.69481607
_cell_formula_units_Z   1
loop_
 _symmetry_equiv_pos_site_id
 _symmetry_equiv_pos_as_xyz
  1  'x, y, z'
loop_
 _atom_site_type_symbol
 _atom_site_label
 _atom_site_symmetry_multiplicity
 _atom_site_fract_x
 _atom_site_fract_y
 _atom_site_fract_z
 _atom_site_occupancy
  Nd  Nd0  1  0.52271716  0.52271716  -0.00000000  1
  Sm  Sm1  1  0.97843490  0.97843490  0.50000000  1
  Ti  Ti2  1  0.49063026  0.00963179  0.74923710  1
  Ti  Ti3  1  0.49063026  0.00963179  0.25076290  1
  Ti  Ti4  1  0.00963179  0.49063026  0.25076290  1
  Ti  Ti5  1  0.00963179  0.49063026  0.74923710  1
  O  O6  1  0.78068317  0.21691739  0.73714982  1
  O  O7  1  0.21691739  0.78068317  0.73714982  1
  O  O8  1  0.21691739  0.78068317  0.26285018  1
  O  O9  1  0.78068317  0.21691739  0.26285018  1
  O  O10  1  0.73464477  0.73464477  0.71948738  1
  O  O11  1  0.29408528  0.29408528  0.79330589  1
  O  O12  1  0.29408528  0.29408528  0.20669411  1
  O  O13  1  0.73464477  0.73464477  0.28051262  1
  O  O14  1  0.51345258  0.95116224  -0.00000000  1
  O  O15  1  0.44796763  0.03068014  0.50000000  1
  O  O16  1  0.95116224  0.51345258  0.00000000  1
  O  O17  1  0.03068014  0.44796763  0.50000000  1
