# generated using pymatgen
data_GdAl3(BO3)4
_symmetry_space_group_name_H-M   'P 1'
_cell_length_a   5.94365762
_cell_length_b   5.94365762
_cell_length_c   5.94365718
_cell_angle_alpha   104.23563862
_cell_angle_beta   104.23563862
_cell_angle_gamma   104.23564114
_symmetry_Int_Tables_number   1
_chemical_formula_structural   GdAl3(BO3)4
_chemical_formula_sum   'Gd1 Al3 B4 O12'
_cell_volume   186.49044926
_cell_formula_units_Z   1
loop_
 _symmetry_equiv_pos_site_id
 _symmetry_equiv_pos_as_xyz
  1  'x, y, z'
loop_
 _atom_site_type_symbol
 _atom_site_label
 _atom_site_symmetry_multiplicity
 _atom_site_fract_x
 _atom_site_fract_y
 _atom_site_fract_z
 _atom_site_occupancy
  Gd  Gd0  1  0.00000000  0.00000000  0.00000000  1
  Al  Al1  1  0.00000000  0.44457400  0.55542600  1
  Al  Al2  1  0.55542600  0.00000000  0.44457400  1
  Al  Al3  1  0.44457400  0.55542600  0.00000000  1
  B  B4  1  0.50000000  0.05710100  0.94289900  1
  B  B5  1  0.94289900  0.50000000  0.05710100  1
  B  B6  1  0.05710100  0.94289900  0.50000000  1
  B  B7  1  0.50000000  0.50000000  0.50000000  1
  O  O8  1  0.22258400  0.97215200  0.37487900  1
  O  O9  1  0.62512100  0.02784800  0.77741600  1
  O  O10  1  0.02784800  0.77741600  0.62512100  1
  O  O11  1  0.77741600  0.62512100  0.02784800  1
  O  O12  1  0.64860700  0.35139300  0.50000000  1
  O  O13  1  0.35139300  0.50000000  0.64860700  1
  O  O14  1  0.50000000  0.64860700  0.35139300  1
  O  O15  1  0.90869500  0.09130500  0.50000000  1
  O  O16  1  0.09130500  0.50000000  0.90869500  1
  O  O17  1  0.50000000  0.90869500  0.09130500  1
  O  O18  1  0.97215200  0.37487900  0.22258400  1
  O  O19  1  0.37487900  0.22258400  0.97215200  1
