# generated using pymatgen
data_Ti7Al2O15
_symmetry_space_group_name_H-M   'P 1'
_cell_length_a   9.22200945
_cell_length_b   9.22200945
_cell_length_c   9.54596694
_cell_angle_alpha   81.65375759
_cell_angle_beta   81.65375759
_cell_angle_gamma   18.65740690
_symmetry_Int_Tables_number   1
_chemical_formula_structural   Ti7Al2O15
_chemical_formula_sum   'Ti7 Al2 O15'
_cell_volume   256.88979961
_cell_formula_units_Z   1
loop_
 _symmetry_equiv_pos_site_id
 _symmetry_equiv_pos_as_xyz
  1  'x, y, z'
loop_
 _atom_site_type_symbol
 _atom_site_label
 _atom_site_symmetry_multiplicity
 _atom_site_fract_x
 _atom_site_fract_y
 _atom_site_fract_z
 _atom_site_occupancy
  Ti  Ti0  1  0.50948500  0.50948500  0.64877500  1
  Ti  Ti1  1  0.49051500  0.49051500  0.35122500  1
  Ti  Ti2  1  0.18917300  0.18917300  0.61634200  1
  Ti  Ti3  1  0.81082700  0.81082700  0.38365800  1
  Ti  Ti4  1  0.67802700  0.67802700  0.95356100  1
  Ti  Ti5  1  0.32197300  0.32197300  0.04643900  1
  Ti  Ti6  1  0.00000000  0.00000000  0.00000000  1
  Al  Al7  1  0.15779500  0.15779500  0.27694500  1
  Al  Al8  1  0.84220500  0.84220500  0.72305500  1
  O  O9  1  0.77333800  0.77333800  0.60356100  1
  O  O10  1  0.22666200  0.22666200  0.39643900  1
  O  O11  1  0.39270300  0.39270300  0.69448500  1
  O  O12  1  0.60729700  0.60729700  0.30551500  1
  O  O13  1  0.80054800  0.80054800  0.90740500  1
  O  O14  1  0.19945200  0.19945200  0.09259500  1
  O  O15  1  0.57430700  0.57430700  0.99149100  1
  O  O16  1  0.99171700  0.99171700  0.21403800  1
  O  O17  1  0.00828300  0.00828300  0.78596200  1
  O  O18  1  0.81315600  0.81315600  0.18471900  1
  O  O19  1  0.18684400  0.18684400  0.81528100  1
  O  O20  1  0.37993700  0.37993700  0.39403100  1
  O  O21  1  0.62006300  0.62006300  0.60596900  1
  O  O22  1  0.00000000  0.00000000  0.50000000  1
  O  O23  1  0.42569300  0.42569300  0.00850900  1
