# generated using pymatgen
data_TeF6
_symmetry_space_group_name_H-M   'P 1'
_cell_length_a   5.70273335
_cell_length_b   5.70273335
_cell_length_c   5.70273399
_cell_angle_alpha   57.63703219
_cell_angle_beta   57.63703219
_cell_angle_gamma   57.63704186
_symmetry_Int_Tables_number   1
_chemical_formula_structural   TeF6
_chemical_formula_sum   'Te1 F6'
_cell_volume   124.01775149
_cell_formula_units_Z   1
loop_
 _symmetry_equiv_pos_site_id
 _symmetry_equiv_pos_as_xyz
  1  'x, y, z'
loop_
 _atom_site_type_symbol
 _atom_site_label
 _atom_site_symmetry_multiplicity
 _atom_site_fract_x
 _atom_site_fract_y
 _atom_site_fract_z
 _atom_site_occupancy
  Te  Te0  1  0.00000000  0.00000000  0.00000000  1
  F  F1  1  0.12710900  0.32336200  0.77678400  1
  F  F2  1  0.77678400  0.12710900  0.32336200  1
  F  F3  1  0.67663800  0.22321600  0.87289100  1
  F  F4  1  0.22321600  0.87289100  0.67663800  1
  F  F5  1  0.87289100  0.67663800  0.22321600  1
  F  F6  1  0.32336200  0.77678400  0.12710900  1
