# generated using pymatgen
data_BaVZnP2O9
_symmetry_space_group_name_H-M   'P 1'
_cell_length_a   9.00728200
_cell_length_b   9.19036200
_cell_length_c   18.73567300
_cell_angle_alpha   90.00000000
_cell_angle_beta   90.00000000
_cell_angle_gamma   90.00000000
_symmetry_Int_Tables_number   1
_chemical_formula_structural   BaVZnP2O9
_chemical_formula_sum   'Ba8 V8 Zn8 P16 O72'
_cell_volume   1550.94242488
_cell_formula_units_Z   8
loop_
 _symmetry_equiv_pos_site_id
 _symmetry_equiv_pos_as_xyz
  1  'x, y, z'
loop_
 _atom_site_type_symbol
 _atom_site_label
 _atom_site_symmetry_multiplicity
 _atom_site_fract_x
 _atom_site_fract_y
 _atom_site_fract_z
 _atom_site_occupancy
  Ba  Ba0  1  0.65481800  0.50499600  0.09131000  1
  Ba  Ba1  1  0.15481800  0.99500400  0.90869000  1
  Ba  Ba2  1  0.34518200  0.00499600  0.40869000  1
  Ba  Ba3  1  0.84518200  0.49500400  0.59131000  1
  Ba  Ba4  1  0.34518200  0.49500400  0.90869000  1
  Ba  Ba5  1  0.84518200  0.00499600  0.09131000  1
  Ba  Ba6  1  0.65481800  0.99500400  0.59131000  1
  Ba  Ba7  1  0.15481800  0.50499600  0.40869000  1
  V  V8  1  0.49885500  0.65627800  0.28771500  1
  V  V9  1  0.99885500  0.84372200  0.71228500  1
  V  V10  1  0.50114500  0.15627800  0.21228500  1
  V  V11  1  0.00114500  0.34372200  0.78771500  1
  V  V12  1  0.50114500  0.34372200  0.71228500  1
  V  V13  1  0.00114500  0.15627800  0.28771500  1
  V  V14  1  0.49885500  0.84372200  0.78771500  1
  V  V15  1  0.99885500  0.65627800  0.21228500  1
  Zn  Zn16  1  0.68318600  0.40880200  0.41666500  1
  Zn  Zn17  1  0.18318600  0.09119800  0.58333500  1
  Zn  Zn18  1  0.31681400  0.90880200  0.08333500  1
  Zn  Zn19  1  0.81681400  0.59119800  0.91666500  1
  Zn  Zn20  1  0.31681400  0.59119800  0.58333500  1
  Zn  Zn21  1  0.81681400  0.90880200  0.41666500  1
  Zn  Zn22  1  0.68318600  0.09119800  0.91666500  1
  Zn  Zn23  1  0.18318600  0.40880200  0.08333500  1
  P  P24  1  0.95043200  0.29431200  0.97152900  1
  P  P25  1  0.45043200  0.20568800  0.02847100  1
  P  P26  1  0.04956800  0.79431200  0.52847100  1
  P  P27  1  0.54956800  0.70568800  0.47152900  1
  P  P28  1  0.04956800  0.70568800  0.02847100  1
  P  P29  1  0.54956800  0.79431200  0.97152900  1
  P  P30  1  0.95043200  0.20568800  0.47152900  1
  P  P31  1  0.45043200  0.29431200  0.52847100  1
  P  P32  1  0.75102400  0.90351700  0.26197300  1
  P  P33  1  0.25102400  0.59648300  0.73802700  1
  P  P34  1  0.24897600  0.40351700  0.23802700  1
  P  P35  1  0.74897600  0.09648300  0.76197300  1
  P  P36  1  0.24897600  0.09648300  0.73802700  1
  P  P37  1  0.74897600  0.40351700  0.26197300  1
  P  P38  1  0.75102400  0.59648300  0.76197300  1
  P  P39  1  0.25102400  0.90351700  0.23802700  1
  O  O40  1  0.65552000  0.80697100  0.31077600  1
  O  O41  1  0.15552000  0.69302900  0.68922400  1
  O  O42  1  0.34448000  0.30697100  0.18922400  1
  O  O43  1  0.84448000  0.19302900  0.81077600  1
  O  O44  1  0.34448000  0.19302900  0.68922400  1
  O  O45  1  0.84448000  0.30697100  0.31077600  1
  O  O46  1  0.65552000  0.69302900  0.81077600  1
  O  O47  1  0.15552000  0.80697100  0.18922400  1
  O  O48  1  0.66441500  0.00557800  0.21140000  1
  O  O49  1  0.16441500  0.49442200  0.78860000  1
  O  O50  1  0.33558500  0.50557800  0.28860000  1
  O  O51  1  0.83558500  0.99442200  0.71140000  1
  O  O52  1  0.33558500  0.99442200  0.78860000  1
  O  O53  1  0.83558500  0.50557800  0.21140000  1
  O  O54  1  0.66441500  0.49442200  0.71140000  1
  O  O55  1  0.16441500  0.00557800  0.28860000  1
  O  O56  1  0.02984800  0.27904700  0.04498400  1
  O  O57  1  0.52984800  0.22095300  0.95501600  1
  O  O58  1  0.97015200  0.77904700  0.45501600  1
  O  O59  1  0.47015200  0.72095300  0.54498400  1
  O  O60  1  0.97015200  0.72095300  0.95501600  1
  O  O61  1  0.47015200  0.77904700  0.04498400  1
  O  O62  1  0.02984800  0.22095300  0.54498400  1
  O  O63  1  0.52984800  0.27904700  0.45501600  1
  O  O64  1  0.84903900  0.99189500  0.31722100  1
  O  O65  1  0.34903900  0.50810500  0.68277900  1
  O  O66  1  0.15096100  0.49189500  0.18277900  1
  O  O67  1  0.53103700  0.64770900  0.20123500  1
  O  O68  1  0.65096100  0.00810500  0.81722100  1
  O  O69  1  0.65096100  0.49189500  0.31722100  1
  O  O70  1  0.84903900  0.50810500  0.81722100  1
  O  O71  1  0.34903900  0.99189500  0.18277900  1
  O  O72  1  0.88132200  0.13849400  0.95994800  1
  O  O73  1  0.38132200  0.36150600  0.04005200  1
  O  O74  1  0.11867800  0.63849400  0.54005200  1
  O  O75  1  0.61867800  0.86150600  0.45994800  1
  O  O76  1  0.11867800  0.86150600  0.04005200  1
  O  O77  1  0.61867800  0.63849400  0.95994800  1
  O  O78  1  0.88132200  0.36150600  0.45994800  1
  O  O79  1  0.38132200  0.13849400  0.54005200  1
  O  O80  1  0.05906400  0.17195500  0.40918400  1
  O  O81  1  0.55906400  0.32804500  0.59081600  1
  O  O82  1  0.94093600  0.67195500  0.09081600  1
  O  O83  1  0.44093600  0.82804500  0.90918400  1
  O  O84  1  0.94093600  0.82804500  0.59081600  1
  O  O85  1  0.44093600  0.67195500  0.40918400  1
  O  O86  1  0.05906400  0.32804500  0.90918400  1
  O  O87  1  0.55906400  0.17195500  0.09081600  1
  O  O88  1  0.14993500  0.31700700  0.29022100  1
  O  O89  1  0.64993500  0.18299300  0.70977900  1
  O  O90  1  0.85006500  0.81700700  0.20977900  1
  O  O91  1  0.35006500  0.68299300  0.79022100  1
  O  O92  1  0.85006500  0.68299300  0.70977900  1
  O  O93  1  0.35006500  0.81700700  0.29022100  1
  O  O94  1  0.14993500  0.18299300  0.79022100  1
  O  O95  1  0.64993500  0.31700700  0.20977900  1
  O  O96  1  0.32582100  0.40975500  0.52357900  1
  O  O97  1  0.82582100  0.09024500  0.47642100  1
  O  O98  1  0.67417900  0.90975500  0.97642100  1
  O  O99  1  0.17417900  0.59024500  0.02357900  1
  O  O100  1  0.67417900  0.59024500  0.47642100  1
  O  O101  1  0.17417900  0.90975500  0.52357900  1
  O  O102  1  0.32582100  0.09024500  0.02357900  1
  O  O103  1  0.82582100  0.40975500  0.97642100  1
  O  O104  1  0.03103700  0.64770900  0.29876500  1
  O  O105  1  0.53103700  0.85229100  0.70123500  1
  O  O106  1  0.96896300  0.14770900  0.20123500  1
  O  O107  1  0.46896300  0.35229100  0.79876500  1
  O  O108  1  0.96896300  0.35229100  0.70123500  1
  O  O109  1  0.46896300  0.14770900  0.29876500  1
  O  O110  1  0.03103700  0.85229100  0.79876500  1
  O  O111  1  0.15096100  0.00810500  0.68277900  1
