# generated using pymatgen
data_SrLa3Mn4O12
_symmetry_space_group_name_H-M   'P 1'
_cell_length_a   6.80908013
_cell_length_b   6.80910095
_cell_length_c   6.79137965
_cell_angle_alpha   69.94186022
_cell_angle_beta   110.06299316
_cell_angle_gamma   71.59422607
_symmetry_Int_Tables_number   1
_chemical_formula_structural   SrLa3Mn4O12
_chemical_formula_sum   'Sr1 La3 Mn4 O12'
_cell_volume   242.00021765
_cell_formula_units_Z   1
loop_
 _symmetry_equiv_pos_site_id
 _symmetry_equiv_pos_as_xyz
  1  'x, y, z'
loop_
 _atom_site_type_symbol
 _atom_site_label
 _atom_site_symmetry_multiplicity
 _atom_site_fract_x
 _atom_site_fract_y
 _atom_site_fract_z
 _atom_site_occupancy
  Sr  Sr0  1  0.00004200  0.00001800  0.00001600  1
  La  La1  1  0.49994500  0.00003200  0.49991400  1
  La  La2  1  0.49997400  0.49997900  0.00000300  1
  La  La3  1  0.00002400  0.49997000  0.50004700  1
  Mn  Mn4  1  0.00006800  0.49991100  0.00004000  1
  Mn  Mn5  1  0.49995500  0.00004400  0.00003000  1
  Mn  Mn6  1  0.00001600  0.99998200  0.49999100  1
  Mn  Mn7  1  0.49999100  0.50003200  0.49997000  1
  O  O8  1  0.00069400  0.26424300  0.24542700  1
  O  O9  1  0.50846800  0.74326200  0.25510600  1
  O  O10  1  0.99926900  0.73581100  0.75456600  1
  O  O11  1  0.49157500  0.25667400  0.74492000  1
  O  O12  1  0.73580700  0.99927200  0.24542800  1
  O  O13  1  0.25672000  0.49156700  0.25512100  1
  O  O14  1  0.74327300  0.50846200  0.74489600  1
  O  O15  1  0.26421000  0.00069400  0.75453400  1
  O  O16  1  0.75515900  0.24483600  0.49068200  1
  O  O17  1  0.24479800  0.75518600  0.50933000  1
  O  O18  1  0.74659900  0.74661300  0.99999000  1
  O  O19  1  0.25341300  0.25341100  0.99999000  1
