# generated using pymatgen
data_MnZnP2O7
_symmetry_space_group_name_H-M   'P 1'
_cell_length_a   5.62123908
_cell_length_b   12.47184638
_cell_length_c   7.46616284
_cell_angle_alpha   83.15993929
_cell_angle_beta   85.78159854
_cell_angle_gamma   97.37301672
_symmetry_Int_Tables_number   1
_chemical_formula_structural   MnZnP2O7
_chemical_formula_sum   'Mn4 Zn4 P8 O28'
_cell_volume   513.30722573
_cell_formula_units_Z   4
loop_
 _symmetry_equiv_pos_site_id
 _symmetry_equiv_pos_as_xyz
  1  'x, y, z'
loop_
 _atom_site_type_symbol
 _atom_site_label
 _atom_site_symmetry_multiplicity
 _atom_site_fract_x
 _atom_site_fract_y
 _atom_site_fract_z
 _atom_site_occupancy
  Mn  Mn0  1  0.84209400  0.57784300  0.19441200  1
  Mn  Mn1  1  0.15801100  0.42214100  0.80540500  1
  Mn  Mn2  1  0.34177900  0.07786900  0.19480500  1
  Mn  Mn3  1  0.65787100  0.92221300  0.80566100  1
  Zn  Zn4  1  0.65730800  0.32620700  0.65335100  1
  Zn  Zn5  1  0.15738300  0.82619100  0.65333100  1
  Zn  Zn6  1  0.84254400  0.17379500  0.34663000  1
  Zn  Zn7  1  0.34269400  0.67375100  0.34664800  1
  P  P8  1  0.53921300  0.34170000  0.08905400  1
  P  P9  1  0.03926500  0.84172000  0.08906400  1
  P  P10  1  0.96083600  0.15831900  0.91095400  1
  P  P11  1  0.46082300  0.65831600  0.91089400  1
  P  P12  1  0.31904300  0.09904000  0.61517400  1
  P  P13  1  0.81905800  0.59902200  0.61507000  1
  P  P14  1  0.18091900  0.40095800  0.38487300  1
  P  P15  1  0.68095000  0.90093400  0.38488100  1
  O  O16  1  0.45215600  0.34269300  0.89755500  1
  O  O17  1  0.95228500  0.84270300  0.89755200  1
  O  O18  1  0.04776900  0.15731600  0.10249100  1
  O  O19  1  0.54781600  0.65730300  0.10240100  1
  O  O20  1  0.74552400  0.43024700  0.10196900  1
  O  O21  1  0.24546100  0.93031700  0.10203200  1
  O  O22  1  0.75463000  0.06976200  0.89796000  1
  O  O23  1  0.25453300  0.56977000  0.89796100  1
  O  O24  1  0.58405500  0.22723200  0.16867300  1
  O  O25  1  0.08424300  0.72726900  0.16866800  1
  O  O26  1  0.91587600  0.27276300  0.83131400  1
  O  O27  1  0.41596100  0.77277200  0.83128200  1
  O  O28  1  0.94010300  0.32384100  0.42633700  1
  O  O29  1  0.44009400  0.82382900  0.42634600  1
  O  O30  1  0.55989900  0.17615000  0.57364000  1
  O  O31  1  0.05991200  0.67612400  0.57362300  1
  O  O32  1  0.15603200  0.10878500  0.45920400  1
  O  O33  1  0.65615000  0.60877300  0.45904500  1
  O  O34  1  0.34382500  0.39120700  0.54090500  1
  O  O35  1  0.84389400  0.89118000  0.54087900  1
  O  O36  1  0.20006100  0.13570200  0.79494700  1
  O  O37  1  0.70000500  0.63566900  0.79484200  1
  O  O38  1  0.30002800  0.36431700  0.20512700  1
  O  O39  1  0.79994500  0.86428500  0.20508100  1
  O  O40  1  0.64124300  0.02008200  0.33077700  1
  O  O41  1  0.14119600  0.52010200  0.33073900  1
  O  O42  1  0.85874100  0.47987600  0.66919800  1
  O  O43  1  0.35877700  0.97990500  0.66924200  1
