# generated using pymatgen
data_CaV4O6
_symmetry_space_group_name_H-M   'P 1'
_cell_length_a   3.11118300
_cell_length_b   5.26347122
_cell_length_c   15.43700300
_cell_angle_alpha   90.00050749
_cell_angle_beta   90.00227026
_cell_angle_gamma   72.81275371
_symmetry_Int_Tables_number   1
_chemical_formula_structural   CaV4O6
_chemical_formula_sum   'Ca2 V8 O12'
_cell_volume   241.50195548
_cell_formula_units_Z   2
loop_
 _symmetry_equiv_pos_site_id
 _symmetry_equiv_pos_as_xyz
  1  'x, y, z'
loop_
 _atom_site_type_symbol
 _atom_site_label
 _atom_site_symmetry_multiplicity
 _atom_site_fract_x
 _atom_site_fract_y
 _atom_site_fract_z
 _atom_site_occupancy
  Ca  Ca0  1  0.34899500  0.30177400  0.74999100  1
  Ca  Ca1  1  0.65103400  0.69821100  0.25000800  1
  V  V2  1  0.86140000  0.27725600  0.95739200  1
  V  V3  1  0.86128900  0.27726700  0.54260300  1
  V  V4  1  0.40246600  0.19524500  0.36606400  1
  V  V5  1  0.40244900  0.19523200  0.13394500  1
  V  V6  1  0.13862600  0.72271800  0.04259000  1
  V  V7  1  0.13864500  0.72270700  0.45741100  1
  V  V8  1  0.59755900  0.80475500  0.63397600  1
  V  V9  1  0.59757300  0.80476600  0.86602300  1
  O  O10  1  0.49994800  0.00004400  0.49999500  1
  O  O11  1  0.49997600  0.00003200  0.99999900  1
  O  O12  1  0.67807400  0.64362700  0.75000100  1
  O  O13  1  0.32194600  0.35632800  0.25000600  1
  O  O14  1  0.96996500  0.05992500  0.84133700  1
  O  O15  1  0.03009300  0.94006900  0.15866500  1
  O  O16  1  0.03018200  0.94008300  0.34134300  1
  O  O17  1  0.96990600  0.05991400  0.65865300  1
  O  O18  1  0.22364000  0.55258400  0.91159400  1
  O  O19  1  0.77631400  0.44743500  0.08839600  1
  O  O20  1  0.77626500  0.44745700  0.41160600  1
  O  O21  1  0.22364800  0.55257100  0.58840400  1
