# generated using pymatgen
data_CaMn2(P2O7)2
_symmetry_space_group_name_H-M   'P 1'
_cell_length_a   6.28772756
_cell_length_b   7.53558055
_cell_length_c   11.63321947
_cell_angle_alpha   101.45605434
_cell_angle_beta   85.44967652
_cell_angle_gamma   85.45574257
_symmetry_Int_Tables_number   1
_chemical_formula_structural   CaMn2(P2O7)2
_chemical_formula_sum   'Ca2 Mn4 P8 O28'
_cell_volume   535.96610586
_cell_formula_units_Z   2
loop_
 _symmetry_equiv_pos_site_id
 _symmetry_equiv_pos_as_xyz
  1  'x, y, z'
loop_
 _atom_site_type_symbol
 _atom_site_label
 _atom_site_symmetry_multiplicity
 _atom_site_fract_x
 _atom_site_fract_y
 _atom_site_fract_z
 _atom_site_occupancy
  Ca  Ca0  1  0.33517500  0.74903300  0.17744400  1
  Ca  Ca1  1  0.33511100  0.24899300  0.67745400  1
  Mn  Mn2  1  0.84990300  0.70320200  0.95721500  1
  Mn  Mn3  1  0.15360400  0.79608400  0.53743400  1
  Mn  Mn4  1  0.84983900  0.20331200  0.45719800  1
  Mn  Mn5  1  0.15355000  0.29617600  0.03749600  1
  P  P6  1  0.88055600  0.03388500  0.17619300  1
  P  P7  1  0.88053600  0.53382900  0.67620200  1
  P  P8  1  0.11603600  0.47294000  0.32060900  1
  P  P9  1  0.11613400  0.97292400  0.82058600  1
  P  P10  1  0.64444400  0.35009000  0.09962000  1
  P  P11  1  0.64444500  0.85001900  0.59961900  1
  P  P12  1  0.35683800  0.15804100  0.39370300  1
  P  P13  1  0.35689900  0.65797500  0.89365300  1
  O  O14  1  0.91302300  0.41959200  0.37622300  1
  O  O15  1  0.91304800  0.91946500  0.87620600  1
  O  O16  1  0.09426700  0.07088900  0.11779000  1
  O  O17  1  0.09423700  0.57078700  0.61774600  1
  O  O18  1  0.18013800  0.66425100  0.37271500  1
  O  O19  1  0.18007300  0.16422100  0.87272400  1
  O  O20  1  0.81009800  0.84793400  0.11728300  1
  O  O21  1  0.80997000  0.34793300  0.61730300  1
  O  O22  1  0.12492000  0.47430000  0.18704400  1
  O  O23  1  0.12498000  0.97422600  0.68705500  1
  O  O24  1  0.88956500  0.03073000  0.30794500  1
  O  O25  1  0.88965700  0.53059300  0.80793100  1
  O  O26  1  0.46457000  0.28209500  0.02371000  1
  O  O27  1  0.46464300  0.78191600  0.52371000  1
  O  O28  1  0.53462000  0.21100500  0.47570800  1
  O  O29  1  0.53467700  0.71088200  0.97569900  1
  O  O30  1  0.69808700  0.19045600  0.17120900  1
  O  O31  1  0.69811800  0.69048400  0.67128400  1
  O  O32  1  0.31166000  0.32929600  0.33373600  1
  O  O33  1  0.31174700  0.82934200  0.83377200  1
  O  O34  1  0.85117500  0.35811600  0.01906300  1
  O  O35  1  0.85124500  0.85796700  0.51904700  1
  O  O36  1  0.41157300  0.99104100  0.30060500  1
  O  O37  1  0.41162400  0.49106200  0.80052900  1
  O  O38  1  0.58130800  0.52462900  0.18715900  1
  O  O39  1  0.58131800  0.02457700  0.68708400  1
  O  O40  1  0.15915500  0.15015000  0.48282300  1
  O  O41  1  0.15919300  0.65004400  0.98277300  1
