# generated using pymatgen
data_MgVP2O7
_symmetry_space_group_name_H-M   'P 1'
_cell_length_a   6.59545391
_cell_length_b   11.13582778
_cell_length_c   7.04240947
_cell_angle_alpha   87.63958670
_cell_angle_beta   90.62148462
_cell_angle_gamma   79.53025135
_symmetry_Int_Tables_number   1
_chemical_formula_structural   MgVP2O7
_chemical_formula_sum   'Mg4 V4 P8 O28'
_cell_volume   508.10419892
_cell_formula_units_Z   4
loop_
 _symmetry_equiv_pos_site_id
 _symmetry_equiv_pos_as_xyz
  1  'x, y, z'
loop_
 _atom_site_type_symbol
 _atom_site_label
 _atom_site_symmetry_multiplicity
 _atom_site_fract_x
 _atom_site_fract_y
 _atom_site_fract_z
 _atom_site_occupancy
  Mg  Mg0  1  0.84580200  0.21756100  0.91760600  1
  Mg  Mg1  1  0.84576900  0.71755200  0.41757000  1
  Mg  Mg2  1  0.15423300  0.78244900  0.08242900  1
  Mg  Mg3  1  0.15419800  0.28244000  0.58239200  1
  V  V4  1  0.66872700  0.94078400  0.82995400  1
  V  V5  1  0.33127200  0.55921600  0.67004700  1
  V  V6  1  0.66892100  0.44073300  0.33000300  1
  V  V7  1  0.33107800  0.05926400  0.16999500  1
  P  P8  1  0.16041100  0.49362000  0.26394400  1
  P  P9  1  0.16045900  0.99363000  0.76398800  1
  P  P10  1  0.83954000  0.50637100  0.73601100  1
  P  P11  1  0.83958900  0.00638000  0.23605500  1
  P  P12  1  0.62212300  0.66632500  0.02500000  1
  P  P13  1  0.62215100  0.16630500  0.52501700  1
  P  P14  1  0.37784900  0.33369500  0.97498300  1
  P  P15  1  0.37787700  0.83367500  0.47500300  1
  O  O16  1  0.75794200  0.54208000  0.94263100  1
  O  O17  1  0.75798900  0.04206400  0.44268200  1
  O  O18  1  0.24201300  0.45793600  0.05731700  1
  O  O19  1  0.24205900  0.95792100  0.55737000  1
  O  O20  1  0.01103500  0.41110800  0.33727300  1
  O  O21  1  0.01109600  0.91112800  0.83736300  1
  O  O22  1  0.98890000  0.58887300  0.66263400  1
  O  O23  1  0.98896400  0.08889200  0.16272500  1
  O  O24  1  0.60134300  0.32536500  0.05098000  1
  O  O25  1  0.60138300  0.82534500  0.55100300  1
  O  O26  1  0.39861800  0.67465500  0.94899900  1
  O  O27  1  0.39865800  0.17463500  0.44901900  1
  O  O28  1  0.35569600  0.36520400  0.75947100  1
  O  O29  1  0.35572300  0.86523900  0.25950100  1
  O  O30  1  0.64427700  0.63476000  0.24050100  1
  O  O31  1  0.64430400  0.13479500  0.74052800  1
  O  O32  1  0.93423700  0.37031400  0.76517400  1
  O  O33  1  0.93424500  0.87031700  0.26518800  1
  O  O34  1  0.06575700  0.62968300  0.23481100  1
  O  O35  1  0.06576400  0.12968700  0.73482600  1
  O  O36  1  0.65120400  0.52976100  0.60104500  1
  O  O37  1  0.65128200  0.02982500  0.10107700  1
  O  O38  1  0.34871700  0.47017500  0.39892300  1
  O  O39  1  0.34879300  0.97023700  0.89895600  1
  O  O40  1  0.26921100  0.23135800  0.03712300  1
  O  O41  1  0.26924700  0.73132200  0.53710400  1
  O  O42  1  0.73075200  0.76867900  0.96289900  1
  O  O43  1  0.73079100  0.26864100  0.46287900  1
