# generated using pymatgen
data_MgVP2O7
_symmetry_space_group_name_H-M   'P 1'
_cell_length_a   6.59677504
_cell_length_b   8.73927434
_cell_length_c   9.66732374
_cell_angle_alpha   71.42487729
_cell_angle_beta   72.71322807
_cell_angle_gamma   92.25769918
_symmetry_Int_Tables_number   1
_chemical_formula_structural   MgVP2O7
_chemical_formula_sum   'Mg4 V4 P8 O28'
_cell_volume   498.87106783
_cell_formula_units_Z   4
loop_
 _symmetry_equiv_pos_site_id
 _symmetry_equiv_pos_as_xyz
  1  'x, y, z'
loop_
 _atom_site_type_symbol
 _atom_site_label
 _atom_site_symmetry_multiplicity
 _atom_site_fract_x
 _atom_site_fract_y
 _atom_site_fract_z
 _atom_site_occupancy
  Mg  Mg0  1  0.65231800  0.16756300  0.48452000  1
  Mg  Mg1  1  0.65239700  0.66762000  0.98456600  1
  Mg  Mg2  1  0.34762000  0.83238700  0.51546600  1
  Mg  Mg3  1  0.34762900  0.33243400  0.01542300  1
  V  V4  1  0.16015300  0.42578100  0.73545400  1
  V  V5  1  0.83991500  0.57410600  0.26475100  1
  V  V6  1  0.16044000  0.92600200  0.23550200  1
  V  V7  1  0.83960500  0.07412200  0.76448900  1
  P  P8  1  0.68490200  0.93680500  0.15319200  1
  P  P9  1  0.68474600  0.43681000  0.65324600  1
  P  P10  1  0.31511400  0.06317800  0.84677500  1
  P  P11  1  0.31531600  0.56318600  0.34678200  1
  P  P12  1  0.18874600  0.18968400  0.40955700  1
  P  P13  1  0.18870200  0.68964300  0.90957900  1
  P  P14  1  0.81124300  0.81034500  0.59042300  1
  P  P15  1  0.81122700  0.31034100  0.09042200  1
  O  O16  1  0.68624400  0.40909700  0.50372800  1
  O  O17  1  0.68630300  0.90914800  0.00368200  1
  O  O18  1  0.31373000  0.59086700  0.49630600  1
  O  O19  1  0.31370500  0.09088200  0.99627300  1
  O  O20  1  0.85044700  0.85157300  0.22116500  1
  O  O21  1  0.85026900  0.35151100  0.72120500  1
  O  O22  1  0.14959100  0.14846700  0.77878000  1
  O  O23  1  0.14978000  0.64851400  0.27877800  1
  O  O24  1  0.46133300  0.90029600  0.27506000  1
  O  O25  1  0.46118700  0.40035400  0.77503000  1
  O  O26  1  0.53866200  0.09967000  0.72492100  1
  O  O27  1  0.53887200  0.59962700  0.22500300  1
  O  O28  1  0.65316100  0.90659900  0.52130100  1
  O  O29  1  0.65317000  0.40661200  0.02129500  1
  O  O30  1  0.34678400  0.09337500  0.47868800  1
  O  O31  1  0.34683900  0.59339100  0.97868200  1
  O  O32  1  0.21179700  0.18673400  0.24739900  1
  O  O33  1  0.21170400  0.68668400  0.74745700  1
  O  O34  1  0.78823300  0.81332800  0.75255900  1
  O  O35  1  0.78825100  0.31327600  0.25255900  1
  O  O36  1  0.25004000  0.37163000  0.39934100  1
  O  O37  1  0.24996700  0.87165200  0.89930900  1
  O  O38  1  0.74999400  0.62835800  0.60067800  1
  O  O39  1  0.74992200  0.12836500  0.10066600  1
  O  O40  1  0.04569200  0.85383700  0.48328900  1
  O  O41  1  0.04567000  0.35380200  0.98324900  1
  O  O42  1  0.95428000  0.14620900  0.51665500  1
  O  O43  1  0.95429700  0.64613100  0.01679400  1
