# generated using pymatgen
data_Na6NiO4
_symmetry_space_group_name_H-M   'P 1'
_cell_length_a   7.46002200
_cell_length_b   9.29038636
_cell_length_c   9.28979584
_cell_angle_alpha   107.95003700
_cell_angle_beta   90.00197871
_cell_angle_gamma   90.00099796
_symmetry_Int_Tables_number   1
_chemical_formula_structural   Na6NiO4
_chemical_formula_sum   'Na24 Ni4 O16'
_cell_volume   612.50444869
_cell_formula_units_Z   4
loop_
 _symmetry_equiv_pos_site_id
 _symmetry_equiv_pos_as_xyz
  1  'x, y, z'
loop_
 _atom_site_type_symbol
 _atom_site_label
 _atom_site_symmetry_multiplicity
 _atom_site_fract_x
 _atom_site_fract_y
 _atom_site_fract_z
 _atom_site_occupancy
  Na  Na0  1  0.25005700  0.20240300  0.45240900  1
  Na  Na1  1  0.25005600  0.70388100  0.95386400  1
  Na  Na2  1  0.25005700  0.95332300  0.20328600  1
  Na  Na3  1  0.25002600  0.45281500  0.70287000  1
  Na  Na4  1  0.75000000  0.79614600  0.54768400  1
  Na  Na5  1  0.75000200  0.29766000  0.04623000  1
  Na  Na6  1  0.74997600  0.04795500  0.79592500  1
  Na  Na7  1  0.75002500  0.54597800  0.29793300  1
  Na  Na8  1  0.53804600  0.35509600  0.39392700  1
  Na  Na9  1  0.53613300  0.85687100  0.89290600  1
  Na  Na10  1  0.96233200  0.35523300  0.39379000  1
  Na  Na11  1  0.96413300  0.85699600  0.89284900  1
  Na  Na12  1  0.53768500  0.14384300  0.60530700  1
  Na  Na13  1  0.53585700  0.64273800  0.10699500  1
  Na  Na14  1  0.96196900  0.14403900  0.60512300  1
  Na  Na15  1  0.96397500  0.64294300  0.10688500  1
  Na  Na16  1  0.03712900  0.85743300  0.39439700  1
  Na  Na17  1  0.03795600  0.35691900  0.89284800  1
  Na  Na18  1  0.46272300  0.85721700  0.39446800  1
  Na  Na19  1  0.46182200  0.35680000  0.89296000  1
  Na  Na20  1  0.03823100  0.64296900  0.60692400  1
  Na  Na21  1  0.03741400  0.14457700  0.10719500  1
  Na  Na22  1  0.46217500  0.64272900  0.60698300  1
  Na  Na23  1  0.46289400  0.14444900  0.10730000  1
  Ni  Ni24  1  0.74964800  0.50227700  0.75232100  1
  Ni  Ni25  1  0.25008900  0.50226100  0.25305200  1
  Ni  Ni26  1  0.74978800  0.99731900  0.24728800  1
  Ni  Ni27  1  0.24990400  0.00245500  0.75185400  1
  O  O28  1  0.25009600  0.96559300  0.96249300  1
  O  O29  1  0.25015700  0.46355000  0.46155300  1
  O  O30  1  0.99248200  0.08874600  0.33856000  1
  O  O31  1  0.99742500  0.58888700  0.83884000  1
  O  O32  1  0.50762200  0.08865700  0.33867200  1
  O  O33  1  0.50268500  0.58878900  0.83893700  1
  O  O34  1  0.24987800  0.21139500  0.71350400  1
  O  O35  1  0.24996000  0.71256100  0.21570800  1
  O  O36  1  0.74996300  0.78709900  0.28573900  1
  O  O37  1  0.74989100  0.28962400  0.78172100  1
  O  O38  1  0.00703900  0.91050600  0.66052000  1
  O  O39  1  0.00719000  0.41065500  0.16052600  1
  O  O40  1  0.49277300  0.91036600  0.66058200  1
  O  O41  1  0.49283300  0.41054500  0.16061000  1
  O  O42  1  0.75011100  0.03583000  0.03700800  1
  O  O43  1  0.75015300  0.53169400  0.53963200  1
