# generated using pymatgen
data_MgMnP2O7
_symmetry_space_group_name_H-M   'P 1'
_cell_length_a   7.13665490
_cell_length_b   8.93557177
_cell_length_c   9.60720423
_cell_angle_alpha   73.10323599
_cell_angle_beta   102.74082549
_cell_angle_gamma   68.20598080
_symmetry_Int_Tables_number   1
_chemical_formula_structural   MgMnP2O7
_chemical_formula_sum   'Mg4 Mn4 P8 O28'
_cell_volume   505.74298817
_cell_formula_units_Z   4
loop_
 _symmetry_equiv_pos_site_id
 _symmetry_equiv_pos_as_xyz
  1  'x, y, z'
loop_
 _atom_site_type_symbol
 _atom_site_label
 _atom_site_symmetry_multiplicity
 _atom_site_fract_x
 _atom_site_fract_y
 _atom_site_fract_z
 _atom_site_occupancy
  Mg  Mg0  1  0.65387400  0.83220000  0.81669500  1
  Mg  Mg1  1  0.65391500  0.33224500  0.31668700  1
  Mg  Mg2  1  0.34614600  0.66778000  0.68331000  1
  Mg  Mg3  1  0.34609400  0.16774900  0.18332200  1
  Mn  Mn4  1  0.15855400  0.37930600  0.80794300  1
  Mn  Mn5  1  0.84143200  0.12068500  0.69205900  1
  Mn  Mn6  1  0.15853400  0.87896600  0.30783500  1
  Mn  Mn7  1  0.84142800  0.62106400  0.19218100  1
  P  P8  1  0.68460400  0.60280400  0.48565700  1
  P  P9  1  0.68451200  0.10277600  0.98562100  1
  P  P10  1  0.31539400  0.89719800  0.01433900  1
  P  P11  1  0.31549000  0.39723300  0.51437400  1
  P  P12  1  0.19689600  0.09761000  0.51614900  1
  P  P13  1  0.19688500  0.59760800  0.01624200  1
  P  P14  1  0.80311000  0.40238300  0.98384900  1
  P  P15  1  0.80311900  0.90238300  0.48376300  1
  O  O16  1  0.68242400  0.05110900  0.84580400  1
  O  O17  1  0.68262400  0.55102500  0.34590600  1
  O  O18  1  0.31757000  0.44888300  0.65419900  1
  O  O19  1  0.31737200  0.94898100  0.15408900  1
  O  O20  1  0.86256800  0.45830800  0.63885500  1
  O  O21  1  0.86242100  0.95807800  0.13878800  1
  O  O22  1  0.13743600  0.04169600  0.86113800  1
  O  O23  1  0.13758300  0.54194500  0.36121300  1
  O  O24  1  0.45905000  0.67704700  0.49640300  1
  O  O25  1  0.45897500  0.17706700  0.99639400  1
  O  O26  1  0.54095000  0.82295700  0.00359500  1
  O  O27  1  0.54103300  0.32294900  0.50360800  1
  O  O28  1  0.65147600  0.58297600  0.84556000  1
  O  O29  1  0.65152000  0.08300900  0.34553000  1
  O  O30  1  0.34853700  0.91702100  0.65444100  1
  O  O31  1  0.34849900  0.41698400  0.15447700  1
  O  O32  1  0.22212000  0.09903700  0.36107800  1
  O  O33  1  0.22209800  0.59914200  0.86113300  1
  O  O34  1  0.77786000  0.40095200  0.13891500  1
  O  O35  1  0.77788500  0.90084900  0.63886500  1
  O  O36  1  0.26842400  0.22993700  0.56667300  1
  O  O37  1  0.26854600  0.72980800  0.06689300  1
  O  O38  1  0.73157200  0.27007200  0.93329100  1
  O  O39  1  0.73144100  0.77020200  0.43309200  1
  O  O40  1  0.04209600  0.83347700  0.49930600  1
  O  O41  1  0.04206900  0.33353200  0.99934300  1
  O  O42  1  0.95791400  0.66650300  0.00071500  1
  O  O43  1  0.95793800  0.16645900  0.50066800  1
