# generated using pymatgen
data_CaNiP2O7
_symmetry_space_group_name_H-M   'P 1'
_cell_length_a   6.31302520
_cell_length_b   6.55641077
_cell_length_c   7.01885803
_cell_angle_alpha   83.25508981
_cell_angle_beta   89.76394873
_cell_angle_gamma   68.19544392
_symmetry_Int_Tables_number   1
_chemical_formula_structural   CaNiP2O7
_chemical_formula_sum   'Ca2 Ni2 P4 O14'
_cell_volume   267.61863079
_cell_formula_units_Z   2
loop_
 _symmetry_equiv_pos_site_id
 _symmetry_equiv_pos_as_xyz
  1  'x, y, z'
loop_
 _atom_site_type_symbol
 _atom_site_label
 _atom_site_symmetry_multiplicity
 _atom_site_fract_x
 _atom_site_fract_y
 _atom_site_fract_z
 _atom_site_occupancy
  Ca  Ca0  1  0.29664200  0.72743700  0.62423400  1
  Ca  Ca1  1  0.70331700  0.27259700  0.37573000  1
  Ni  Ni2  1  0.75164100  0.87178900  0.80415400  1
  Ni  Ni3  1  0.24838400  0.12801800  0.19567800  1
  P  P4  1  0.16215100  0.65897000  0.12096700  1
  P  P5  1  0.83786500  0.34107400  0.87907200  1
  P  P6  1  0.24665800  0.21963100  0.62658300  1
  P  P7  1  0.75331900  0.78036000  0.37338800  1
  O  O8  1  0.07974500  0.74748600  0.91003300  1
  O  O9  1  0.92026300  0.25258900  0.08998800  1
  O  O10  1  0.24338700  0.81130800  0.22218200  1
  O  O11  1  0.75655600  0.18872200  0.77787900  1
  O  O12  1  0.32574900  0.41598500  0.14434600  1
  O  O13  1  0.67431500  0.58404400  0.85570600  1
  O  O14  1  0.64257100  0.62077000  0.45100300  1
  O  O15  1  0.35741400  0.37924800  0.54899100  1
  O  O16  1  0.11983400  0.15532100  0.46921600  1
  O  O17  1  0.88016200  0.84465600  0.53081000  1
  O  O18  1  0.06707500  0.34844600  0.77285500  1
  O  O19  1  0.93295900  0.65155400  0.22718900  1
  O  O20  1  0.58802100  0.99767800  0.26138600  1
  O  O21  1  0.41197800  0.00231800  0.73861400  1
