# generated using pymatgen
data_Ca5Sc2(CoO6)2
_symmetry_space_group_name_H-M   'P 1'
_cell_length_a   6.39051784
_cell_length_b   6.44915794
_cell_length_c   6.43491569
_cell_angle_alpha   91.06992019
_cell_angle_beta   93.63842951
_cell_angle_gamma   93.68782574
_symmetry_Int_Tables_number   1
_chemical_formula_structural   Ca5Sc2(CoO6)2
_chemical_formula_sum   'Ca5 Sc2 Co2 O12'
_cell_volume   264.05358508
_cell_formula_units_Z   1
loop_
 _symmetry_equiv_pos_site_id
 _symmetry_equiv_pos_as_xyz
  1  'x, y, z'
loop_
 _atom_site_type_symbol
 _atom_site_label
 _atom_site_symmetry_multiplicity
 _atom_site_fract_x
 _atom_site_fract_y
 _atom_site_fract_z
 _atom_site_occupancy
  Ca  Ca0  1  0.24918800  0.61453500  0.88533100  1
  Ca  Ca1  1  0.11023900  0.74033100  0.37778900  1
  Ca  Ca2  1  0.38998100  0.12220100  0.75905200  1
  Ca  Ca3  1  0.62344900  0.88805700  0.24517200  1
  Ca  Ca4  1  0.87606600  0.25560900  0.61298800  1
  Sc  Sc5  1  0.25146300  0.25149400  0.24744100  1
  Sc  Sc6  1  0.74907800  0.74296900  0.75822900  1
  Co  Co7  1  0.00520600  0.00202900  0.99705300  1
  Co  Co8  1  0.49521500  0.50285000  0.49789000  1
  O  O9  1  0.97014000  0.06916200  0.28554500  1
  O  O10  1  0.53165900  0.21396900  0.42911800  1
  O  O11  1  0.04708600  0.91345800  0.71680100  1
  O  O12  1  0.45239800  0.78355300  0.58708200  1
  O  O13  1  0.92493200  0.72235900  0.04360000  1
  O  O14  1  0.57219300  0.45715700  0.77805100  1
  O  O15  1  0.29587300  0.96252100  0.08710300  1
  O  O16  1  0.20468100  0.41205300  0.53638500  1
  O  O17  1  0.71719800  0.02870900  0.89904100  1
  O  O18  1  0.78266100  0.60015100  0.47305100  1
  O  O19  1  0.39415600  0.55661500  0.22152200  1
  O  O20  1  0.10713800  0.27858800  0.94338600  1
