# generated using pymatgen
data_Li9Mn2Co5O16
_symmetry_space_group_name_H-M   'P 1'
_cell_length_a   5.18509599
_cell_length_b   10.26424149
_cell_length_c   5.90643126
_cell_angle_alpha   104.02375580
_cell_angle_beta   70.64591095
_cell_angle_gamma   84.58149276
_symmetry_Int_Tables_number   1
_chemical_formula_structural   Li9Mn2Co5O16
_chemical_formula_sum   'Li9 Mn2 Co5 O16'
_cell_volume   282.45155267
_cell_formula_units_Z   1
loop_
 _symmetry_equiv_pos_site_id
 _symmetry_equiv_pos_as_xyz
  1  'x, y, z'
loop_
 _atom_site_type_symbol
 _atom_site_label
 _atom_site_symmetry_multiplicity
 _atom_site_fract_x
 _atom_site_fract_y
 _atom_site_fract_z
 _atom_site_occupancy
  Li  Li0  1  0.50206900  0.12466500  0.93545200  1
  Li  Li1  1  0.49793800  0.37607600  0.30866700  1
  Li  Li2  1  0.50039600  0.63101300  0.68544700  1
  Li  Li3  1  0.50601100  0.86720500  0.05670600  1
  Li  Li4  1  0.50006200  0.12510800  0.44245800  1
  Li  Li5  1  0.49944600  0.37407900  0.81486300  1
  Li  Li6  1  0.49360200  0.63118800  0.20088300  1
  Li  Li7  1  0.49714400  0.86903000  0.55393900  1
  Li  Li8  1  0.00295500  0.74933400  0.62365700  1
  Mn  Mn9  1  0.99547900  0.99919200  0.99626400  1
  Mn  Mn10  1  0.00030700  0.50333000  0.74981400  1
  Co  Co11  1  0.99983300  0.25006000  0.37644500  1
  Co  Co12  1  0.99947900  0.75068500  0.12247100  1
  Co  Co13  1  0.00087800  0.99620800  0.49719100  1
  Co  Co14  1  0.99993800  0.24971900  0.87555500  1
  Co  Co15  1  0.00523900  0.50382000  0.25622500  1
  O  O16  1  0.23406000  0.06963300  0.74280200  1
  O  O17  1  0.21995100  0.32043000  0.12041800  1
  O  O18  1  0.24144900  0.55694700  0.48272500  1
  O  O19  1  0.22665300  0.82064200  0.86988800  1
  O  O20  1  0.20722800  0.06425300  0.21740500  1
  O  O21  1  0.23304500  0.31531800  0.61575800  1
  O  O22  1  0.21361700  0.56127000  0.96590300  1
  O  O23  1  0.22914400  0.82500700  0.35368800  1
  O  O24  1  0.76660100  0.18435600  0.13985500  1
  O  O25  1  0.78994800  0.43816400  0.53503600  1
  O  O26  1  0.76047900  0.67381500  0.89548900  1
  O  O27  1  0.76319100  0.93404200  0.26007000  1
  O  O28  1  0.77851600  0.18059700  0.63152500  1
  O  O29  1  0.77156700  0.42774100  0.00933200  1
  O  O30  1  0.77966800  0.67955600  0.37499800  1
  O  O31  1  0.78410900  0.94751600  0.78907000  1
