# generated using pymatgen
data_CaVP2O7
_symmetry_space_group_name_H-M   'P 1'
_cell_length_a   6.66529514
_cell_length_b   9.18261255
_cell_length_c   9.52580242
_cell_angle_alpha   96.76006546
_cell_angle_beta   108.57401793
_cell_angle_gamma   77.96439788
_symmetry_Int_Tables_number   1
_chemical_formula_structural   CaVP2O7
_chemical_formula_sum   'Ca4 V4 P8 O28'
_cell_volume   539.68071119
_cell_formula_units_Z   4
loop_
 _symmetry_equiv_pos_site_id
 _symmetry_equiv_pos_as_xyz
  1  'x, y, z'
loop_
 _atom_site_type_symbol
 _atom_site_label
 _atom_site_symmetry_multiplicity
 _atom_site_fract_x
 _atom_site_fract_y
 _atom_site_fract_z
 _atom_site_occupancy
  Ca  Ca0  1  0.78841000  0.65643400  0.51533700  1
  Ca  Ca1  1  0.28842200  0.15644100  0.01531600  1
  Ca  Ca2  1  0.21159100  0.34356500  0.48466300  1
  Ca  Ca3  1  0.71158200  0.84355400  0.98468500  1
  V  V4  1  0.31438800  0.56194100  0.21314600  1
  V  V5  1  0.68561600  0.43806100  0.78685400  1
  V  V6  1  0.81459800  0.06220500  0.71325700  1
  V  V7  1  0.18536800  0.93781700  0.28674100  1
  P  P8  1  0.67705300  0.30081800  0.44694200  1
  P  P9  1  0.17702200  0.80084000  0.94693100  1
  P  P10  1  0.32294800  0.69918100  0.55305500  1
  P  P11  1  0.82297700  0.19916000  0.05306900  1
  P  P12  1  0.29217900  0.02176400  0.65115400  1
  P  P13  1  0.79216800  0.52176200  0.15114600  1
  P  P14  1  0.70781900  0.97823400  0.34884900  1
  P  P15  1  0.20783700  0.47823600  0.84885400  1
  O  O16  1  0.23304700  0.85483100  0.62501200  1
  O  O17  1  0.73309900  0.35483600  0.12500800  1
  O  O18  1  0.76695600  0.14516600  0.37498800  1
  O  O19  1  0.26690100  0.64516300  0.87499400  1
  O  O20  1  0.95162600  0.86647200  0.84751400  1
  O  O21  1  0.45167300  0.36653100  0.34754600  1
  O  O22  1  0.04837300  0.13353100  0.15248500  1
  O  O23  1  0.54832800  0.63346700  0.65245200  1
  O  O24  1  0.76144300  0.91894600  0.50399400  1
  O  O25  1  0.26143700  0.41897800  0.00401000  1
  O  O26  1  0.23855900  0.08105600  0.49601100  1
  O  O27  1  0.73856600  0.58101900  0.99599000  1
  O  O28  1  0.85958000  0.89341200  0.26236200  1
  O  O29  1  0.35952800  0.39336400  0.76235500  1
  O  O30  1  0.14042000  0.10658600  0.73764100  1
  O  O31  1  0.64047600  0.60663300  0.23764500  1
  O  O32  1  0.15358900  0.60523900  0.53539000  1
  O  O33  1  0.65361400  0.10523800  0.03544700  1
  O  O34  1  0.84641400  0.39475800  0.46460800  1
  O  O35  1  0.34639000  0.89475900  0.96455300  1
  O  O36  1  0.35118300  0.73124400  0.40425500  1
  O  O37  1  0.85114200  0.23119900  0.90424500  1
  O  O38  1  0.64881500  0.26876000  0.59574300  1
  O  O39  1  0.14886000  0.76880500  0.09575800  1
  O  O40  1  0.46995900  0.99654200  0.26150800  1
  O  O41  1  0.96996600  0.49651400  0.76155900  1
  O  O42  1  0.53003900  0.00345600  0.73849300  1
  O  O43  1  0.03003900  0.50348200  0.23844000  1
