# generated using pymatgen
data_Sr3LaTi2Mn2O12
_symmetry_space_group_name_H-M   'P 1'
_cell_length_a   5.58504178
_cell_length_b   9.57597042
_cell_length_c   9.56418488
_cell_angle_alpha   108.81338230
_cell_angle_beta   90.50353939
_cell_angle_gamma   90.65339302
_symmetry_Int_Tables_number   1
_chemical_formula_structural   Sr3LaTi2Mn2O12
_chemical_formula_sum   'Sr6 La2 Ti4 Mn4 O24'
_cell_volume   484.11198125
_cell_formula_units_Z   2
loop_
 _symmetry_equiv_pos_site_id
 _symmetry_equiv_pos_as_xyz
  1  'x, y, z'
loop_
 _atom_site_type_symbol
 _atom_site_label
 _atom_site_symmetry_multiplicity
 _atom_site_fract_x
 _atom_site_fract_y
 _atom_site_fract_z
 _atom_site_occupancy
  Sr  Sr0  1  0.99973100  0.37498200  0.12499000  1
  Sr  Sr1  1  0.50028200  0.87500100  0.12499300  1
  Sr  Sr2  1  0.00134600  0.62411500  0.87174800  1
  Sr  Sr3  1  0.50144700  0.12406900  0.87170400  1
  Sr  Sr4  1  0.49866600  0.62586500  0.37821900  1
  Sr  Sr5  1  0.99855400  0.12590300  0.37825500  1
  La  La6  1  0.49950300  0.37489500  0.62496600  1
  La  La7  1  0.00048300  0.87506200  0.62500700  1
  Ti  Ti8  1  0.50100600  0.50005600  0.99920700  1
  Ti  Ti9  1  0.00080800  0.00007000  0.99924100  1
  Ti  Ti10  1  0.49924700  0.24983000  0.25057800  1
  Ti  Ti11  1  0.99906500  0.74979900  0.25057300  1
  Mn  Mn12  1  0.49924300  0.99924400  0.50062200  1
  Mn  Mn13  1  0.00075800  0.25075100  0.74933800  1
  Mn  Mn14  1  0.99901200  0.49933400  0.50073900  1
  Mn  Mn15  1  0.50100900  0.75062000  0.74927300  1
  O  O16  1  0.24988000  0.62490600  0.62491600  1
  O  O17  1  0.74981900  0.12487000  0.62488000  1
  O  O18  1  0.00077400  0.37501000  0.62502400  1
  O  O19  1  0.49930900  0.87494700  0.62487400  1
  O  O20  1  0.75057900  0.62471800  0.62474400  1
  O  O21  1  0.25077600  0.12462600  0.62464300  1
  O  O22  1  0.24998300  0.12507400  0.12508100  1
  O  O23  1  0.74999600  0.62509000  0.12509800  1
  O  O24  1  0.50033800  0.37508700  0.12517400  1
  O  O25  1  0.99956300  0.87501200  0.12502300  1
  O  O26  1  0.74985300  0.12508600  0.12508300  1
  O  O27  1  0.24982000  0.62511700  0.12511300  1
  O  O28  1  0.74958200  0.87624300  0.86882900  1
  O  O29  1  0.25055400  0.37588300  0.86876100  1
  O  O30  1  0.75054800  0.37383300  0.38126600  1
  O  O31  1  0.24962200  0.87423100  0.38135700  1
  O  O32  1  0.00210600  0.62379900  0.37952300  1
  O  O33  1  0.50251300  0.12372200  0.37947500  1
  O  O34  1  0.49787300  0.62625900  0.87054000  1
  O  O35  1  0.99750000  0.12628300  0.87056200  1
  O  O36  1  0.26391200  0.37053100  0.37935300  1
  O  O37  1  0.76288900  0.87031800  0.37910800  1
  O  O38  1  0.23559900  0.87972600  0.87090300  1
  O  O39  1  0.73645200  0.38003200  0.87121500  1
