# generated using pymatgen
data_MnZnP2O7
_symmetry_space_group_name_H-M   'P 1'
_cell_length_a   7.23464704
_cell_length_b   10.10195151
_cell_length_c   8.44000954
_cell_angle_alpha   93.25987919
_cell_angle_beta   114.04773707
_cell_angle_gamma   104.75924700
_symmetry_Int_Tables_number   1
_chemical_formula_structural   MnZnP2O7
_chemical_formula_sum   'Mn4 Zn4 P8 O28'
_cell_volume   535.61448452
_cell_formula_units_Z   4
loop_
 _symmetry_equiv_pos_site_id
 _symmetry_equiv_pos_as_xyz
  1  'x, y, z'
loop_
 _atom_site_type_symbol
 _atom_site_label
 _atom_site_symmetry_multiplicity
 _atom_site_fract_x
 _atom_site_fract_y
 _atom_site_fract_z
 _atom_site_occupancy
  Mn  Mn0  1  0.78329600  0.28600200  0.59648200  1
  Mn  Mn1  1  0.21685600  0.71404000  0.40357800  1
  Mn  Mn2  1  0.78419200  0.78607700  0.09674100  1
  Mn  Mn3  1  0.21583400  0.21391700  0.90328800  1
  Zn  Zn4  1  0.11193400  0.62688500  0.79901800  1
  Zn  Zn5  1  0.11190700  0.12696300  0.29914500  1
  Zn  Zn6  1  0.88799900  0.87301000  0.70085600  1
  Zn  Zn7  1  0.88813000  0.37315900  0.20098100  1
  P  P8  1  0.76292400  0.58114100  0.40715300  1
  P  P9  1  0.76268500  0.08109900  0.90720600  1
  P  P10  1  0.23726000  0.91890900  0.09277500  1
  P  P11  1  0.23714800  0.41886400  0.59284500  1
  P  P12  1  0.69007400  0.98085200  0.35264400  1
  P  P13  1  0.69010000  0.48092100  0.85270000  1
  P  P14  1  0.30995300  0.51909600  0.14729600  1
  P  P15  1  0.30983500  0.01911300  0.64735000  1
  O  O16  1  0.47814300  0.91581000  0.16480800  1
  O  O17  1  0.47798700  0.41572100  0.66500800  1
  O  O18  1  0.52206300  0.58427100  0.33496700  1
  O  O19  1  0.52180300  0.08418700  0.83517900  1
  O  O20  1  0.76807400  0.42922400  0.39817200  1
  O  O21  1  0.76799400  0.92920500  0.89819400  1
  O  O22  1  0.23195900  0.07080000  0.10176900  1
  O  O23  1  0.23199900  0.57078200  0.60182600  1
  O  O24  1  0.34591900  0.61079600  0.01661600  1
  O  O25  1  0.34600300  0.11092200  0.51680700  1
  O  O26  1  0.65386000  0.88901800  0.48316300  1
  O  O27  1  0.65413000  0.38921300  0.98336900  1
  O  O28  1  0.13762200  0.54433800  0.19902400  1
  O  O29  1  0.13731300  0.04427200  0.69889600  1
  O  O30  1  0.86260900  0.95569100  0.30111400  1
  O  O31  1  0.86245100  0.45569800  0.80098900  1
  O  O32  1  0.13257600  0.83467400  0.90289300  1
  O  O33  1  0.13260000  0.33468900  0.40294900  1
  O  O34  1  0.86741700  0.66531300  0.59704900  1
  O  O35  1  0.86737000  0.16531200  0.09710200  1
  O  O36  1  0.13988500  0.84589400  0.20709300  1
  O  O37  1  0.13945900  0.34585000  0.70695400  1
  O  O38  1  0.86062500  0.65416400  0.29305800  1
  O  O39  1  0.86008400  0.15413300  0.79291500  1
  O  O40  1  0.28420100  0.36695700  0.10408700  1
  O  O41  1  0.28419900  0.86700200  0.60407300  1
  O  O42  1  0.71574800  0.13296200  0.39597100  1
  O  O43  1  0.71577700  0.63305100  0.89589100  1
