# generated using pymatgen
data_MgSiN2
_symmetry_space_group_name_H-M   'P 1'
_cell_length_a   5.19835107
_cell_length_b   5.19835107
_cell_length_c   5.19835107
_cell_angle_alpha   127.13282255
_cell_angle_beta   127.13282255
_cell_angle_gamma   78.03409500
_symmetry_Int_Tables_number   1
_chemical_formula_structural   MgSiN2
_chemical_formula_sum   'Mg2 Si2 N4'
_cell_volume   86.51419902
_cell_formula_units_Z   2
loop_
 _symmetry_equiv_pos_site_id
 _symmetry_equiv_pos_as_xyz
  1  'x, y, z'
loop_
 _atom_site_type_symbol
 _atom_site_label
 _atom_site_symmetry_multiplicity
 _atom_site_fract_x
 _atom_site_fract_y
 _atom_site_fract_z
 _atom_site_occupancy
  Mg  Mg0  1  0.00000000  0.00000000  0.00000000  1
  Mg  Mg1  1  0.75000000  0.25000000  0.50000000  1
  Si  Si2  1  0.25000000  0.75000000  0.50000000  1
  Si  Si3  1  0.50000000  0.50000000  0.00000000  1
  N  N4  1  0.56190800  0.62500000  0.43690800  1
  N  N5  1  0.37500000  0.81190800  0.93690800  1
  N  N6  1  0.18809200  0.12500000  0.56309200  1
  N  N7  1  0.87500000  0.43809200  0.06309200  1
