# generated using pymatgen
data_CaCrP2O7
_symmetry_space_group_name_H-M   'P 1'
_cell_length_a   6.51342461
_cell_length_b   12.24900066
_cell_length_c   7.12481400
_cell_angle_alpha   99.78556744
_cell_angle_beta   84.57055439
_cell_angle_gamma   84.98906501
_symmetry_Int_Tables_number   1
_chemical_formula_structural   CaCrP2O7
_chemical_formula_sum   'Ca4 Cr4 P8 O28'
_cell_volume   554.54722967
_cell_formula_units_Z   4
loop_
 _symmetry_equiv_pos_site_id
 _symmetry_equiv_pos_as_xyz
  1  'x, y, z'
loop_
 _atom_site_type_symbol
 _atom_site_label
 _atom_site_symmetry_multiplicity
 _atom_site_fract_x
 _atom_site_fract_y
 _atom_site_fract_z
 _atom_site_occupancy
  Ca  Ca0  1  0.84736200  0.13844600  0.28501300  1
  Ca  Ca1  1  0.84750000  0.63841300  0.78497800  1
  Ca  Ca2  1  0.15270400  0.36155400  0.21504900  1
  Ca  Ca3  1  0.15245900  0.86161900  0.71505200  1
  Cr  Cr4  1  0.66528700  0.55080100  0.31245400  1
  Cr  Cr5  1  0.33478700  0.94918600  0.18771500  1
  Cr  Cr6  1  0.66472600  0.05069000  0.81254900  1
  Cr  Cr7  1  0.33465100  0.44909100  0.68778000  1
  P  P8  1  0.15958500  0.11641300  0.85700500  1
  P  P9  1  0.15993800  0.61640500  0.35701900  1
  P  P10  1  0.84046300  0.38360000  0.64299100  1
  P  P11  1  0.84027400  0.88361400  0.14295700  1
  P  P12  1  0.63573500  0.31803200  0.99421300  1
  P  P13  1  0.63567900  0.81801600  0.49420900  1
  P  P14  1  0.36427500  0.18195700  0.50581300  1
  P  P15  1  0.36425200  0.68197600  0.00561000  1
  O  O16  1  0.77748200  0.30244300  0.78772100  1
  O  O17  1  0.77748300  0.80245800  0.28773500  1
  O  O18  1  0.22245400  0.19758700  0.71225500  1
  O  O19  1  0.22263100  0.69761000  0.21223000  1
  O  O20  1  0.98749600  0.04800000  0.77969000  1
  O  O21  1  0.98801500  0.54796400  0.27969400  1
  O  O22  1  0.01245600  0.45200900  0.72042000  1
  O  O23  1  0.01224600  0.95205100  0.22030800  1
  O  O24  1  0.58221400  0.13387700  0.53022800  1
  O  O25  1  0.58224500  0.63395500  0.03010800  1
  O  O26  1  0.41774500  0.36615700  0.96977100  1
  O  O27  1  0.41759400  0.86610200  0.46979800  1
  O  O28  1  0.35608600  0.30319000  0.46916800  1
  O  O29  1  0.35607100  0.80325400  0.96917200  1
  O  O30  1  0.64385300  0.19677300  0.03082300  1
  O  O31  1  0.64409300  0.69677000  0.53075100  1
  O  O32  1  0.91159500  0.30812100  0.45197500  1
  O  O33  1  0.91150000  0.80812100  0.95197000  1
  O  O34  1  0.08841400  0.19189900  0.04795700  1
  O  O35  1  0.08857300  0.69190200  0.54800100  1
  O  O36  1  0.65246700  0.46937300  0.64063300  1
  O  O37  1  0.65225800  0.96937200  0.14055500  1
  O  O38  1  0.34751800  0.03063400  0.85940300  1
  O  O39  1  0.34795800  0.53066800  0.35939300  1
  O  O40  1  0.25515300  0.10685900  0.36125000  1
  O  O41  1  0.25523700  0.60676800  0.86120500  1
  O  O42  1  0.74484400  0.39315000  0.13867400  1
  O  O43  1  0.74464200  0.89311900  0.63870300  1
