# generated using pymatgen
data_CaV5O7
_symmetry_space_group_name_H-M   'P 1'
_cell_length_a   3.12393500
_cell_length_b   5.25552346
_cell_length_c   18.14804204
_cell_angle_alpha   89.99221249
_cell_angle_beta   89.99958994
_cell_angle_gamma   107.29181433
_symmetry_Int_Tables_number   1
_chemical_formula_structural   CaV5O7
_chemical_formula_sum   'Ca2 V10 O14'
_cell_volume   284.48648559
_cell_formula_units_Z   2
loop_
 _symmetry_equiv_pos_site_id
 _symmetry_equiv_pos_as_xyz
  1  'x, y, z'
loop_
 _atom_site_type_symbol
 _atom_site_label
 _atom_site_symmetry_multiplicity
 _atom_site_fract_x
 _atom_site_fract_y
 _atom_site_fract_z
 _atom_site_occupancy
  Ca  Ca0  1  0.79026600  0.58064400  0.75004600  1
  Ca  Ca1  1  0.20969200  0.41927900  0.24996700  1
  V  V2  1  0.27775100  0.55560100  0.57391800  1
  V  V3  1  0.72218900  0.44435400  0.42607700  1
  V  V4  1  0.72218100  0.44417900  0.07376800  1
  V  V5  1  0.27779300  0.55572000  0.92607400  1
  V  V6  1  0.00000200  0.00004300  0.50003800  1
  V  V7  1  0.00007800  0.00003800  0.99993500  1
  V  V8  1  0.45819600  0.91639200  0.15091300  1
  V  V9  1  0.54183600  0.08368600  0.84910800  1
  V  V10  1  0.54185300  0.08368400  0.65098000  1
  V  V11  1  0.45813400  0.91629600  0.34900000  1
  O  O12  1  0.46100400  0.92205400  0.75003300  1
  O  O13  1  0.53896600  0.07789100  0.25003800  1
  O  O14  1  0.63348700  0.26694800  0.95995400  1
  O  O15  1  0.36657400  0.73311800  0.04007200  1
  O  O16  1  0.36654400  0.73311200  0.45993500  1
  O  O17  1  0.63346800  0.26695700  0.54006300  1
  O  O18  1  0.16945800  0.33897600  0.82763600  1
  O  O19  1  0.83052900  0.66107400  0.17238500  1
  O  O20  1  0.83049500  0.66097300  0.32757100  1
  O  O21  1  0.16949700  0.33895500  0.67241800  1
  O  O22  1  0.91627600  0.83256300  0.88877700  1
  O  O23  1  0.08377200  0.16748100  0.11126500  1
  O  O24  1  0.08367100  0.16733800  0.38876300  1
  O  O25  1  0.91629400  0.83264300  0.61126800  1
