# generated using pymatgen
data_Na3CoBAsO7
_symmetry_space_group_name_H-M   'P 1'
_cell_length_a   8.65889780
_cell_length_b   8.65078023
_cell_length_c   9.09710970
_cell_angle_alpha   89.16504021
_cell_angle_beta   89.03416201
_cell_angle_gamma   104.81637286
_symmetry_Int_Tables_number   1
_chemical_formula_structural   Na3CoBAsO7
_chemical_formula_sum   'Na12 Co4 B4 As4 O28'
_cell_volume   658.55351765
_cell_formula_units_Z   4
loop_
 _symmetry_equiv_pos_site_id
 _symmetry_equiv_pos_as_xyz
  1  'x, y, z'
loop_
 _atom_site_type_symbol
 _atom_site_label
 _atom_site_symmetry_multiplicity
 _atom_site_fract_x
 _atom_site_fract_y
 _atom_site_fract_z
 _atom_site_occupancy
  Na  Na0  1  0.50934000  0.26003700  0.08429300  1
  Na  Na1  1  0.00438300  0.75437500  0.07882000  1
  Na  Na2  1  0.49502200  0.74145600  0.91726100  1
  Na  Na3  1  0.99448000  0.24701700  0.91746000  1
  Na  Na4  1  0.12286400  0.12298600  0.24465600  1
  Na  Na5  1  0.62237300  0.62148000  0.24650000  1
  Na  Na6  1  0.37512300  0.87291900  0.24375900  1
  Na  Na7  1  0.87351400  0.37084200  0.24362500  1
  Na  Na8  1  0.62548500  0.12692700  0.75502500  1
  Na  Na9  1  0.12683500  0.62428400  0.75327200  1
  Na  Na10  1  0.87196700  0.87641200  0.75175600  1
  Na  Na11  1  0.37405900  0.37647900  0.75232500  1
  Co  Co12  1  0.26385300  0.51296800  0.33431400  1
  Co  Co13  1  0.73577100  0.48755400  0.66788300  1
  Co  Co14  1  0.76384800  0.01287700  0.33460500  1
  Co  Co15  1  0.22837000  0.98017800  0.67082700  1
  B  B16  1  0.74416000  0.99357700  0.06398300  1
  B  B17  1  0.24501600  0.49455400  0.06408500  1
  B  B18  1  0.26242600  0.01319500  0.93069600  1
  B  B19  1  0.75728200  0.50755400  0.93726600  1
  As  As20  1  0.47930800  0.22974600  0.42757200  1
  As  As21  1  0.98475900  0.73437300  0.42265900  1
  As  As22  1  0.51727200  0.76536500  0.57712800  1
  As  As23  1  0.01431700  0.26743000  0.57703900  1
  O  O24  1  0.28324300  0.03234600  0.07552400  1
  O  O25  1  0.78106400  0.53036400  0.08237800  1
  O  O26  1  0.71641500  0.96646900  0.92025600  1
  O  O27  1  0.21842000  0.46977000  0.91990800  1
  O  O28  1  0.86254500  0.11407800  0.12352100  1
  O  O29  1  0.36350300  0.61385500  0.12503900  1
  O  O30  1  0.14384000  0.89442600  0.86516600  1
  O  O31  1  0.63715700  0.39043100  0.87537400  1
  O  O32  1  0.64952300  0.89576200  0.17692600  1
  O  O33  1  0.14920700  0.39595900  0.17576700  1
  O  O34  1  0.35505800  0.10809000  0.81859400  1
  O  O35  1  0.85690200  0.60475300  0.82760200  1
  O  O36  1  0.31656400  0.06988400  0.47028500  1
  O  O37  1  0.82356400  0.57342000  0.46311800  1
  O  O38  1  0.68068900  0.92550400  0.53824800  1
  O  O39  1  0.17848600  0.42668700  0.53756400  1
  O  O40  1  0.43974700  0.68936900  0.41287600  1
  O  O41  1  0.93761900  0.19067700  0.41258800  1
  O  O42  1  0.56125700  0.31057300  0.58792600  1
  O  O43  1  0.06020500  0.80948000  0.58808900  1
  O  O44  1  0.42188100  0.36599700  0.31405200  1
  O  O45  1  0.92771900  0.87202200  0.31117700  1
  O  O46  1  0.61335100  0.16787200  0.31456600  1
  O  O47  1  0.12112300  0.67444700  0.31158900  1
  O  O48  1  0.38378800  0.82359900  0.69121600  1
  O  O49  1  0.87923300  0.33099600  0.68698700  1
  O  O50  1  0.57698100  0.62685100  0.68593400  1
  O  O51  1  0.06908600  0.13173500  0.69091900  1
