# generated using pymatgen
data_Ba3Y4O9
_symmetry_space_group_name_H-M   'P 1'
_cell_length_a   9.27691127
_cell_length_b   9.27691127
_cell_length_c   9.27691131
_cell_angle_alpha   38.78605007
_cell_angle_beta   38.78605007
_cell_angle_gamma   38.78604863
_symmetry_Int_Tables_number   1
_chemical_formula_structural   Ba3Y4O9
_chemical_formula_sum   'Ba3 Y4 O9'
_cell_volume   281.62488764
_cell_formula_units_Z   1
loop_
 _symmetry_equiv_pos_site_id
 _symmetry_equiv_pos_as_xyz
  1  'x, y, z'
loop_
 _atom_site_type_symbol
 _atom_site_label
 _atom_site_symmetry_multiplicity
 _atom_site_fract_x
 _atom_site_fract_y
 _atom_site_fract_z
 _atom_site_occupancy
  Ba  Ba0  1  0.41645400  0.41645400  0.41645400  1
  Ba  Ba1  1  0.83521200  0.83521200  0.83521200  1
  Ba  Ba2  1  0.00172000  0.00172000  0.00172000  1
  Y  Y3  1  0.70038100  0.70038100  0.70038100  1
  Y  Y4  1  0.26227700  0.26227700  0.26227700  1
  Y  Y5  1  0.13686400  0.13686400  0.13686400  1
  Y  Y6  1  0.57473000  0.57473000  0.57473000  1
  O  O7  1  0.41959400  0.96163500  0.54405700  1
  O  O8  1  0.96163500  0.54405700  0.41959400  1
  O  O9  1  0.54405700  0.41959400  0.96163500  1
  O  O10  1  0.29044800  0.87759100  0.42036500  1
  O  O11  1  0.87759100  0.42036500  0.29044800  1
  O  O12  1  0.42036500  0.29044800  0.87759100  1
  O  O13  1  0.41809900  0.85407800  0.98349600  1
  O  O14  1  0.98349600  0.41809900  0.85407800  1
  O  O15  1  0.85407800  0.98349600  0.41809900  1
