# generated using pymatgen
data_FeH10S2(NO2)4
_symmetry_space_group_name_H-M   'P 1'
_cell_length_a   7.63832684
_cell_length_b   7.51059861
_cell_length_c   17.06569534
_cell_angle_alpha   95.71934793
_cell_angle_beta   99.79645276
_cell_angle_gamma   103.58003673
_symmetry_Int_Tables_number   1
_chemical_formula_structural   FeH10S2(NO2)4
_chemical_formula_sum   'Fe4 H40 S8 N16 O32'
_cell_volume   927.77027714
_cell_formula_units_Z   4
loop_
 _symmetry_equiv_pos_site_id
 _symmetry_equiv_pos_as_xyz
  1  'x, y, z'
loop_
 _atom_site_type_symbol
 _atom_site_label
 _atom_site_symmetry_multiplicity
 _atom_site_fract_x
 _atom_site_fract_y
 _atom_site_fract_z
 _atom_site_occupancy
  Fe  Fe0  1  0.00013300  0.49982700  0.75010100  1
  Fe  Fe1  1  0.99995800  0.00012300  0.49994700  1
  Fe  Fe2  1  0.99974100  0.49969300  0.24990200  1
  Fe  Fe3  1  0.00018000  0.00020400  0.00003500  1
  H  H4  1  0.62654600  0.42107400  0.68598600  1
  H  H5  1  0.62645600  0.92105100  0.43589600  1
  H  H6  1  0.62600800  0.42123800  0.18586200  1
  H  H7  1  0.62658700  0.92133400  0.93601100  1
  H  H8  1  0.37350500  0.07882800  0.56398400  1
  H  H9  1  0.37352400  0.57857500  0.31397300  1
  H  H10  1  0.37409600  0.07865000  0.06409600  1
  H  H11  1  0.37357100  0.57902700  0.81412700  1
  H  H12  1  0.75154300  0.00148100  0.82221200  1
  H  H13  1  0.75133800  0.50143700  0.57222200  1
  H  H14  1  0.75081600  0.00146200  0.32208200  1
  H  H15  1  0.75103500  0.50137200  0.07204700  1
  H  H16  1  0.24839000  0.49855200  0.42777000  1
  H  H17  1  0.24895500  0.99864900  0.17792600  1
  H  H18  1  0.24922100  0.49853600  0.92793000  1
  H  H19  1  0.24870300  0.99864300  0.67777700  1
  H  H20  1  0.57234300  0.58691900  0.58815100  1
  H  H21  1  0.57193600  0.08706300  0.33810900  1
  H  H22  1  0.57230700  0.58724700  0.08807700  1
  H  H23  1  0.57252900  0.08701400  0.83811200  1
  H  H24  1  0.42767000  0.91308900  0.66186200  1
  H  H25  1  0.42743700  0.41303500  0.41190900  1
  H  H26  1  0.42771200  0.91277700  0.16192000  1
  H  H27  1  0.42808800  0.41292900  0.91189800  1
  H  H28  1  0.70425200  0.63904300  0.72835000  1
  H  H29  1  0.70394800  0.13904100  0.47824500  1
  H  H30  1  0.70435100  0.63917300  0.22822600  1
  H  H31  1  0.70449400  0.13936400  0.97830700  1
  H  H32  1  0.29571000  0.86083000  0.52166100  1
  H  H33  1  0.29547500  0.36053600  0.27170700  1
  H  H34  1  0.29561200  0.86072300  0.02176500  1
  H  H35  1  0.29614300  0.36104000  0.77176100  1
  H  H36  1  0.79242400  0.72627200  0.61311800  1
  H  H37  1  0.79208300  0.22632000  0.36299900  1
  H  H38  1  0.79255800  0.72621500  0.11304600  1
  H  H39  1  0.79267000  0.22632200  0.86311000  1
  H  H40  1  0.20756900  0.77377000  0.63691700  1
  H  H41  1  0.20731600  0.27369200  0.38689600  1
  H  H42  1  0.20748100  0.77379200  0.13694900  1
  H  H43  1  0.20791900  0.27368500  0.88699100  1
  S  S44  1  0.78186100  0.07133300  0.65545500  1
  S  S45  1  0.78150400  0.57132700  0.40533900  1
  S  S46  1  0.78151600  0.07093900  0.15543200  1
  S  S47  1  0.78188900  0.57142900  0.90562200  1
  S  S48  1  0.21813500  0.42864400  0.59454800  1
  S  S49  1  0.21809000  0.92857200  0.34438700  1
  S  S50  1  0.21852000  0.42903200  0.09455300  1
  S  S51  1  0.21838900  0.92874400  0.84467100  1
  N  N52  1  0.73206900  0.53789100  0.69062500  1
  N  N53  1  0.73186000  0.03796200  0.44051300  1
  N  N54  1  0.73183100  0.53782400  0.19048300  1
  N  N55  1  0.73218200  0.03809700  0.94060200  1
  N  N56  1  0.26795400  0.96205100  0.55937600  1
  N  N57  1  0.26783600  0.46188200  0.30938600  1
  N  N58  1  0.26819600  0.96213600  0.05949800  1
  N  N59  1  0.26819400  0.46208500  0.80950100  1
  N  N60  1  0.71121900  0.59125400  0.61105700  1
  N  N61  1  0.71084000  0.09131900  0.36095500  1
  N  N62  1  0.71114300  0.59125900  0.11093800  1
  N  N63  1  0.71140800  0.09133000  0.86102600  1
  N  N64  1  0.28879400  0.90876500  0.63895600  1
  N  N65  1  0.28855500  0.40869500  0.38897600  1
  N  N66  1  0.28887600  0.90875000  0.13905200  1
  N  N67  1  0.28919500  0.40869300  0.88904800  1
  O  O68  1  0.88926400  0.96452100  0.61123700  1
  O  O69  1  0.88855700  0.46438900  0.36099000  1
  O  O70  1  0.88931200  0.96438000  0.11128000  1
  O  O71  1  0.89004400  0.46515600  0.86167100  1
  O  O72  1  0.11070200  0.53541000  0.63877000  1
  O  O73  1  0.10999800  0.03492000  0.38834500  1
  O  O74  1  0.11079800  0.53563400  0.13871200  1
  O  O75  1  0.11112500  0.03580400  0.88890200  1
  O  O76  1  0.91373600  0.21114700  0.72054000  1
  O  O77  1  0.91334400  0.71136000  0.47030500  1
  O  O78  1  0.91250900  0.21086000  0.22068300  1
  O  O79  1  0.91295900  0.71151100  0.97075400  1
  O  O80  1  0.08627600  0.28885600  0.52945400  1
  O  O81  1  0.08691100  0.78852000  0.27927200  1
  O  O82  1  0.08749500  0.28913200  0.02931400  1
  O  O83  1  0.08662600  0.78858500  0.77973500  1
  O  O84  1  0.67316400  0.16177600  0.59948500  1
  O  O85  1  0.67281800  0.66174100  0.34940500  1
  O  O86  1  0.67282500  0.16120400  0.09939200  1
  O  O87  1  0.67305000  0.66148800  0.84951200  1
  O  O88  1  0.32686100  0.33816900  0.65050600  1
  O  O89  1  0.32694000  0.83854600  0.40051700  1
  O  O90  1  0.32719400  0.33877200  0.15059400  1
  O  O91  1  0.32711700  0.83849300  0.90067200  1
  O  O92  1  0.65895300  0.93607200  0.69398400  1
  O  O93  1  0.65871800  0.43615000  0.44395100  1
  O  O94  1  0.65858200  0.93547000  0.19384700  1
  O  O95  1  0.65903400  0.43577500  0.94400300  1
  O  O96  1  0.34104200  0.56392100  0.55602100  1
  O  O97  1  0.34099500  0.06419400  0.30600000  1
  O  O98  1  0.34145600  0.56452800  0.05614000  1
  O  O99  1  0.34121000  0.06386100  0.80603400  1
