# generated using pymatgen
data_Na3CoBPO7
_symmetry_space_group_name_H-M   'P 1'
_cell_length_a   5.18609234
_cell_length_b   8.87167031
_cell_length_c   13.52777268
_cell_angle_alpha   89.96722044
_cell_angle_beta   89.98549183
_cell_angle_gamma   88.44961334
_symmetry_Int_Tables_number   1
_chemical_formula_structural   Na3CoBPO7
_chemical_formula_sum   'Na12 Co4 B4 P4 O28'
_cell_volume   622.17540078
_cell_formula_units_Z   4
loop_
 _symmetry_equiv_pos_site_id
 _symmetry_equiv_pos_as_xyz
  1  'x, y, z'
loop_
 _atom_site_type_symbol
 _atom_site_label
 _atom_site_symmetry_multiplicity
 _atom_site_fract_x
 _atom_site_fract_y
 _atom_site_fract_z
 _atom_site_occupancy
  Na  Na0  1  0.77063400  0.08097900  0.12715700  1
  Na  Na1  1  0.76061500  0.08091500  0.62317700  1
  Na  Na2  1  0.23522700  0.91973900  0.37754300  1
  Na  Na3  1  0.23070500  0.91845500  0.87186500  1
  Na  Na4  1  0.25571200  0.26542700  0.00434800  1
  Na  Na5  1  0.25137700  0.25813700  0.50202500  1
  Na  Na6  1  0.24968200  0.25996600  0.24868400  1
  Na  Na7  1  0.25454500  0.26397900  0.74455200  1
  Na  Na8  1  0.74569200  0.73497300  0.25577300  1
  Na  Na9  1  0.75152000  0.74183500  0.75043700  1
  Na  Na10  1  0.75135200  0.74357000  0.49851400  1
  Na  Na11  1  0.74560100  0.73315000  0.99518900  1
  Co  Co12  1  0.78262000  0.33738600  0.87450800  1
  Co  Co13  1  0.22505800  0.65768500  0.62431900  1
  Co  Co14  1  0.77660800  0.34170000  0.37621900  1
  Co  Co15  1  0.21946900  0.66254600  0.12614600  1
  B  B16  1  0.73656400  0.06677500  0.37437000  1
  B  B17  1  0.72618900  0.07102200  0.87542100  1
  B  B18  1  0.27515700  0.92866500  0.12505900  1
  B  B19  1  0.25882200  0.93377700  0.62539400  1
  P  P20  1  0.72093700  0.42293200  0.12638900  1
  P  P21  1  0.72285300  0.41895700  0.62361000  1
  P  P22  1  0.27824000  0.58087000  0.37694100  1
  P  P23  1  0.28032000  0.57719000  0.87308900  1
  O  O24  1  0.30542600  0.07787600  0.12441600  1
  O  O25  1  0.30529200  0.08207700  0.62535200  1
  O  O26  1  0.68968200  0.91848800  0.37481900  1
  O  O27  1  0.69543400  0.92166800  0.87507000  1
  O  O28  1  0.97653700  0.13184500  0.37431300  1
  O  O29  1  0.96300400  0.14311000  0.87713600  1
  O  O30  1  0.03799300  0.85672000  0.12538700  1
  O  O31  1  0.01956700  0.86813200  0.62608700  1
  O  O32  1  0.53717100  0.18026400  0.37383700  1
  O  O33  1  0.52936000  0.18268900  0.87411700  1
  O  O34  1  0.47341600  0.81743400  0.12487900  1
  O  O35  1  0.45943600  0.82098700  0.62497000  1
  O  O36  1  0.42505400  0.46885300  0.12552700  1
  O  O37  1  0.42701800  0.45895300  0.62373600  1
  O  O38  1  0.57357500  0.54014200  0.37615700  1
  O  O39  1  0.57577400  0.53204600  0.87371600  1
  O  O40  1  0.12579400  0.43253000  0.37561200  1
  O  O41  1  0.12438700  0.43061600  0.87453600  1
  O  O42  1  0.87693500  0.56900100  0.12517500  1
  O  O43  1  0.87428400  0.56751600  0.62481800  1
  O  O44  1  0.78222100  0.32000200  0.03633000  1
  O  O45  1  0.79154400  0.32303400  0.53039000  1
  O  O46  1  0.78291100  0.32484500  0.21930000  1
  O  O47  1  0.79068300  0.31782700  0.71372800  1
  O  O48  1  0.20865400  0.68165700  0.28688700  1
  O  O49  1  0.21727300  0.67459300  0.77994200  1
  O  O50  1  0.21039100  0.67678700  0.47013600  1
  O  O51  1  0.21568500  0.67967500  0.96289300  1
