# generated using pymatgen
data_Li9Mn2Co5O16
_symmetry_space_group_name_H-M   'P 1'
_cell_length_a   5.78730150
_cell_length_b   8.50108239
_cell_length_c   6.51869664
_cell_angle_alpha   90.24287449
_cell_angle_beta   116.35299026
_cell_angle_gamma   89.99999960
_symmetry_Int_Tables_number   1
_chemical_formula_structural   Li9Mn2Co5O16
_chemical_formula_sum   'Li9 Mn2 Co5 O16'
_cell_volume   287.37648036
_cell_formula_units_Z   1
loop_
 _symmetry_equiv_pos_site_id
 _symmetry_equiv_pos_as_xyz
  1  'x, y, z'
loop_
 _atom_site_type_symbol
 _atom_site_label
 _atom_site_symmetry_multiplicity
 _atom_site_fract_x
 _atom_site_fract_y
 _atom_site_fract_z
 _atom_site_occupancy
  Li  Li0  1  0.62406300  0.25000000  0.75000000  1
  Li  Li1  1  0.37588300  0.75017500  0.25147800  1
  Li  Li2  1  0.12554600  0.25000000  0.75000000  1
  Li  Li3  1  0.49852400  0.50996700  0.99819100  1
  Li  Li4  1  0.25033400  0.99003300  0.50180900  1
  Li  Li5  1  0.99731500  0.50709300  0.99641700  1
  Li  Li6  1  0.87440500  0.74982500  0.24852200  1
  Li  Li7  1  0.75089800  0.99290700  0.50358300  1
  Li  Li8  1  0.62214000  0.75000000  0.75000000  1
  Mn  Mn9  1  0.99981900  0.99802200  0.99532100  1
  Mn  Mn10  1  0.75449800  0.50197800  0.50467900  1
  Co  Co11  1  0.50068600  0.99157100  0.99229000  1
  Co  Co12  1  0.25839700  0.50842900  0.50771000  1
  Co  Co13  1  0.37654800  0.25217600  0.24889400  1
  Co  Co14  1  0.12322400  0.75000000  0.75000000  1
  Co  Co15  1  0.87765300  0.24782400  0.25110600  1
  O  O16  1  0.63983800  0.00426500  0.77374900  1
  O  O17  1  0.39441000  0.49830000  0.26603100  1
  O  O18  1  0.11921300  0.00709800  0.76456600  1
  O  O19  1  0.51405600  0.24820600  0.02384200  1
  O  O20  1  0.23933700  0.73951200  0.51979900  1
  O  O21  1  0.00421300  0.23021600  0.00842700  1
  O  O22  1  0.88555100  0.49444300  0.27073000  1
  O  O23  1  0.76929600  0.72797300  0.51461400  1
  O  O24  1  0.61608800  0.49573500  0.72625100  1
  O  O25  1  0.36482100  0.00555700  0.22927000  1
  O  O26  1  0.10464700  0.49290200  0.73543400  1
  O  O27  1  0.46953700  0.76048800  0.98020100  1
  O  O28  1  0.24021400  0.25179400  0.47615800  1
  O  O29  1  0.00468200  0.77202700  0.98538600  1
  O  O30  1  0.87837900  0.00170000  0.23396900  1
  O  O31  1  0.74578600  0.26978400  0.49157300  1
