# generated using pymatgen
data_B
_symmetry_space_group_name_H-M   'P 1'
_cell_length_a   10.12299321
_cell_length_b   10.12299321
_cell_length_c   10.12299298
_cell_angle_alpha   65.24406539
_cell_angle_beta   65.24406539
_cell_angle_gamma   65.24406494
_symmetry_Int_Tables_number   1
_chemical_formula_structural   B
_chemical_formula_sum   B105
_cell_volume   817.33768722
_cell_formula_units_Z   105
loop_
 _symmetry_equiv_pos_site_id
 _symmetry_equiv_pos_as_xyz
  1  'x, y, z'
loop_
 _atom_site_type_symbol
 _atom_site_label
 _atom_site_symmetry_multiplicity
 _atom_site_fract_x
 _atom_site_fract_y
 _atom_site_fract_z
 _atom_site_occupancy
  B  B0  1  0.16390300  0.00260300  0.00260300  1
  B  B1  1  0.00260300  0.00260300  0.16390300  1
  B  B2  1  0.00260300  0.16390300  0.00260300  1
  B  B3  1  0.99739700  0.83609700  0.99739700  1
  B  B4  1  0.83609700  0.99739700  0.99739700  1
  B  B5  1  0.99739700  0.99739700  0.83609700  1
  B  B6  1  0.84138200  0.09951000  0.09951000  1
  B  B7  1  0.09951000  0.09951000  0.84138200  1
  B  B8  1  0.09951000  0.84138200  0.09951000  1
  B  B9  1  0.90049000  0.15861800  0.90049000  1
  B  B10  1  0.15861800  0.90049000  0.90049000  1
  B  B11  1  0.90049000  0.90049000  0.15861800  1
  B  B12  1  0.66514300  0.99509900  0.99509900  1
  B  B13  1  0.99509900  0.99509900  0.66514300  1
  B  B14  1  0.99509900  0.66514300  0.99509900  1
  B  B15  1  0.00490100  0.33485700  0.00490100  1
  B  B16  1  0.33485700  0.00490100  0.00490100  1
  B  B17  1  0.00490100  0.00490100  0.33485700  1
  B  B18  1  0.49045000  0.10416700  0.10416700  1
  B  B19  1  0.10416700  0.10416700  0.49045000  1
  B  B20  1  0.10416700  0.49045000  0.10416700  1
  B  B21  1  0.89583300  0.50955000  0.89583300  1
  B  B22  1  0.50955000  0.89583300  0.89583300  1
  B  B23  1  0.89583300  0.89583300  0.50955000  1
  B  B24  1  0.00386300  0.34966400  0.17398800  1
  B  B25  1  0.34966400  0.17398800  0.00386300  1
  B  B26  1  0.17398800  0.00386300  0.34966400  1
  B  B27  1  0.65033600  0.99613700  0.82601200  1
  B  B28  1  0.99613700  0.82601200  0.65033600  1
  B  B29  1  0.82601200  0.65033600  0.99613700  1
  B  B30  1  0.99613700  0.65033600  0.82601200  1
  B  B31  1  0.65033700  0.82601200  0.99613700  1
  B  B32  1  0.82601200  0.99613700  0.65033600  1
  B  B33  1  0.34966400  0.00386300  0.17398800  1
  B  B34  1  0.00386300  0.17398800  0.34966400  1
  B  B35  1  0.17398800  0.34966400  0.00386300  1
  B  B36  1  0.89505600  0.55101300  0.16594800  1
  B  B37  1  0.55101300  0.16594800  0.89505600  1
  B  B38  1  0.16594800  0.89505600  0.55101300  1
  B  B39  1  0.44898700  0.10494400  0.83405200  1
  B  B40  1  0.10494400  0.83405200  0.44898700  1
  B  B41  1  0.83405200  0.44898700  0.10494400  1
  B  B42  1  0.10494400  0.44898700  0.83405200  1
  B  B43  1  0.44898700  0.83405200  0.10494400  1
  B  B44  1  0.83405200  0.10494400  0.44898700  1
  B  B45  1  0.55101300  0.89505600  0.16594800  1
  B  B46  1  0.89505600  0.16594800  0.55101300  1
  B  B47  1  0.16594800  0.55101300  0.89505600  1
  B  B48  1  0.68682800  0.19890400  0.19890400  1
  B  B49  1  0.19890400  0.19890400  0.68682800  1
  B  B50  1  0.19890400  0.68682800  0.19890400  1
  B  B51  1  0.80109600  0.31317200  0.80109600  1
  B  B52  1  0.31317200  0.80109600  0.80109600  1
  B  B53  1  0.80109600  0.80109600  0.31317200  1
  B  B54  1  0.20017400  0.68409900  0.37554500  1
  B  B55  1  0.68409900  0.37554500  0.20017400  1
  B  B56  1  0.37554500  0.20017400  0.68409900  1
  B  B57  1  0.31590100  0.79982600  0.62445500  1
  B  B58  1  0.79982600  0.62445500  0.31590100  1
  B  B59  1  0.62445500  0.31590100  0.79982600  1
  B  B60  1  0.79982600  0.31590100  0.62445500  1
  B  B61  1  0.31590100  0.62445500  0.79982600  1
  B  B62  1  0.62445500  0.79982600  0.31590100  1
  B  B63  1  0.68409900  0.20017400  0.37554500  1
  B  B64  1  0.20017400  0.37554500  0.68409900  1
  B  B65  1  0.37554500  0.68409900  0.20017400  1
  B  B66  1  0.09597300  0.58036300  0.36356900  1
  B  B67  1  0.58036300  0.36356900  0.09597300  1
  B  B68  1  0.36356900  0.09597300  0.58036300  1
  B  B69  1  0.41963800  0.90402700  0.63643100  1
  B  B70  1  0.90402700  0.63643100  0.41963800  1
  B  B71  1  0.63643100  0.41963700  0.90402700  1
  B  B72  1  0.90402700  0.41963700  0.63643100  1
  B  B73  1  0.41963800  0.63643100  0.90402700  1
  B  B74  1  0.63643100  0.90402700  0.41963800  1
  B  B75  1  0.58036300  0.09597300  0.36356900  1
  B  B76  1  0.09597300  0.36356900  0.58036300  1
  B  B77  1  0.36356900  0.58036300  0.09597300  1
  B  B78  1  0.50603900  0.19917200  0.19917200  1
  B  B79  1  0.19917200  0.19917200  0.50603900  1
  B  B80  1  0.19917200  0.50603900  0.19917200  1
  B  B81  1  0.80082800  0.49396100  0.80082800  1
  B  B82  1  0.49396100  0.80082800  0.80082800  1
  B  B83  1  0.80082800  0.80082800  0.49396100  1
  B  B84  1  0.56826500  0.38442700  0.38442700  1
  B  B85  1  0.38442700  0.38442700  0.56826500  1
  B  B86  1  0.38442700  0.56826500  0.38442700  1
  B  B87  1  0.61557300  0.43173500  0.61557300  1
  B  B88  1  0.43173500  0.61557300  0.61557300  1
  B  B89  1  0.61557300  0.61557300  0.43173500  1
  B  B90  1  0.22109200  0.48931800  0.48931800  1
  B  B91  1  0.48931800  0.48931800  0.22109200  1
  B  B92  1  0.48931800  0.22109200  0.48931800  1
  B  B93  1  0.51068200  0.77890800  0.51068200  1
  B  B94  1  0.77890800  0.51068200  0.51068200  1
  B  B95  1  0.51068200  0.51068200  0.77890800  1
  B  B96  1  0.21356000  0.38157900  0.38157900  1
  B  B97  1  0.38157900  0.38157900  0.21356000  1
  B  B98  1  0.38157900  0.21356000  0.38157900  1
  B  B99  1  0.61842100  0.78644000  0.61842100  1
  B  B100  1  0.78644000  0.61842100  0.61842100  1
  B  B101  1  0.61842100  0.61842100  0.78644000  1
  B  B102  1  0.38480900  0.38480900  0.38480900  1
  B  B103  1  0.61519100  0.61519100  0.61519100  1
  B  B104  1  0.50000000  0.50000000  0.50000000  1
