# generated using pymatgen
data_Si5Pt12
_symmetry_space_group_name_H-M   'P 1'
_cell_length_a   7.34089358
_cell_length_b   7.34089358
_cell_length_c   7.34089358
_cell_angle_alpha   98.31644029
_cell_angle_beta   98.31644029
_cell_angle_gamma   135.29350608
_symmetry_Int_Tables_number   1
_chemical_formula_structural   Si5Pt12
_chemical_formula_sum   'Si5 Pt12'
_cell_volume   257.37718728
_cell_formula_units_Z   1
loop_
 _symmetry_equiv_pos_site_id
 _symmetry_equiv_pos_as_xyz
  1  'x, y, z'
loop_
 _atom_site_type_symbol
 _atom_site_label
 _atom_site_symmetry_multiplicity
 _atom_site_fract_x
 _atom_site_fract_y
 _atom_site_fract_z
 _atom_site_occupancy
  Si  Si0  1  0.80408100  0.42240900  0.22649000  1
  Si  Si1  1  0.42240900  0.19591900  0.61832800  1
  Si  Si2  1  0.57759100  0.80408100  0.38167200  1
  Si  Si3  1  0.19591900  0.57759100  0.77351000  1
  Si  Si4  1  0.00000000  0.00000000  0.00000000  1
  Pt  Pt5  1  0.57540700  0.62816900  0.70372400  1
  Pt  Pt6  1  0.92444500  0.87168300  0.29627600  1
  Pt  Pt7  1  0.62816900  0.92444500  0.05276300  1
  Pt  Pt8  1  0.12831700  0.42459300  0.05276300  1
  Pt  Pt9  1  0.42459300  0.37183100  0.29627600  1
  Pt  Pt10  1  0.07555500  0.12831700  0.70372400  1
  Pt  Pt11  1  0.37183100  0.07555500  0.94723700  1
  Pt  Pt12  1  0.87168300  0.57540700  0.94723700  1
  Pt  Pt13  1  0.63300100  0.05585400  0.68885500  1
  Pt  Pt14  1  0.05585400  0.36699900  0.42285300  1
  Pt  Pt15  1  0.94414600  0.63300100  0.57714700  1
  Pt  Pt16  1  0.36699900  0.94414600  0.31114500  1
