# generated using pymatgen
data_Mn2Nb4Zn3O16
_symmetry_space_group_name_H-M   'P 1'
_cell_length_a   5.19068332
_cell_length_b   11.88965974
_cell_length_c   10.44235107
_cell_angle_alpha   111.41288427
_cell_angle_beta   90.56279332
_cell_angle_gamma   88.52302166
_symmetry_Int_Tables_number   1
_chemical_formula_structural   Mn2Nb4Zn3O16
_chemical_formula_sum   'Mn4 Nb8 Zn6 O32'
_cell_volume   599.77081020
_cell_formula_units_Z   2
loop_
 _symmetry_equiv_pos_site_id
 _symmetry_equiv_pos_as_xyz
  1  'x, y, z'
loop_
 _atom_site_type_symbol
 _atom_site_label
 _atom_site_symmetry_multiplicity
 _atom_site_fract_x
 _atom_site_fract_y
 _atom_site_fract_z
 _atom_site_occupancy
  Mn  Mn0  1  0.75379200  0.82269700  0.00583300  1
  Mn  Mn1  1  0.24222400  0.17475800  0.00283000  1
  Mn  Mn2  1  0.75376900  0.32259900  0.00599800  1
  Mn  Mn3  1  0.24205700  0.67466500  0.00287100  1
  Nb  Nb4  1  0.74536100  0.13877800  0.22297400  1
  Nb  Nb5  1  0.74516500  0.63885300  0.22292200  1
  Nb  Nb6  1  0.76071300  0.01782600  0.74809000  1
  Nb  Nb7  1  0.76059000  0.51779800  0.74807600  1
  Nb  Nb8  1  0.26823100  0.36374000  0.78081700  1
  Nb  Nb9  1  0.26830600  0.86372400  0.78079300  1
  Nb  Nb10  1  0.24018300  0.47867700  0.25282400  1
  Nb  Nb11  1  0.24025000  0.97863200  0.25276900  1
  Zn  Zn12  1  0.76733800  0.20336300  0.53427200  1
  Zn  Zn13  1  0.76733900  0.70335700  0.53426500  1
  Zn  Zn14  1  0.22339500  0.28762900  0.44452600  1
  Zn  Zn15  1  0.22333800  0.78769700  0.44455000  1
  Zn  Zn16  1  0.27989600  0.05975500  0.56455900  1
  Zn  Zn17  1  0.27982100  0.55972700  0.56459900  1
  O  O18  1  0.06970200  0.08564900  0.13259800  1
  O  O19  1  0.06961200  0.58563800  0.13262800  1
  O  O20  1  0.42210600  0.03288800  0.86775900  1
  O  O21  1  0.42206200  0.53288400  0.86776400  1
  O  O22  1  0.94086600  0.41118600  0.86387900  1
  O  O23  1  0.94087400  0.91118100  0.86386600  1
  O  O24  1  0.58453300  0.46670400  0.13520800  1
  O  O25  1  0.58455300  0.96668700  0.13517200  1
  O  O26  1  0.55335200  0.21341800  0.11425100  1
  O  O27  1  0.55331100  0.71348500  0.11409700  1
  O  O28  1  0.92033400  0.16388100  0.89498500  1
  O  O29  1  0.92038800  0.66384700  0.89494700  1
  O  O30  1  0.44026900  0.28927300  0.88979000  1
  O  O31  1  0.44025300  0.78926100  0.88976000  1
  O  O32  1  0.07737100  0.33349000  0.11102500  1
  O  O33  1  0.07732400  0.83348700  0.11100100  1
  O  O34  1  0.43409300  0.13807800  0.35482900  1
  O  O35  1  0.43396100  0.63814400  0.35478600  1
  O  O36  1  0.08347600  0.46483200  0.65053300  1
  O  O37  1  0.08352600  0.96483600  0.65049600  1
  O  O38  1  0.34973200  0.41679400  0.38886800  1
  O  O39  1  0.34973700  0.91680600  0.38884900  1
  O  O40  1  0.14432800  0.22706100  0.61269100  1
  O  O41  1  0.14433900  0.72705100  0.61268600  1
  O  O42  1  0.63779800  0.09965900  0.63390700  1
  O  O43  1  0.63778900  0.59966400  0.63390100  1
  O  O44  1  0.85948400  0.26965800  0.38142900  1
  O  O45  1  0.85945400  0.76965600  0.38141900  1
  O  O46  1  0.93574800  0.04484500  0.35183600  1
  O  O47  1  0.93570600  0.54487300  0.35186900  1
  O  O48  1  0.58149700  0.36163800  0.65142500  1
  O  O49  1  0.58152600  0.86167900  0.65145800  1
