# generated using pymatgen
data_Sm4Mo4O11
_symmetry_space_group_name_H-M   'P 1'
_cell_length_a   6.07845900
_cell_length_b   11.09417300
_cell_length_c   16.47181800
_cell_angle_alpha   90.00000000
_cell_angle_beta   90.00000000
_cell_angle_gamma   90.00000000
_symmetry_Int_Tables_number   1
_chemical_formula_structural   Sm4Mo4O11
_chemical_formula_sum   'Sm16 Mo16 O44'
_cell_volume   1110.78488279
_cell_formula_units_Z   4
loop_
 _symmetry_equiv_pos_site_id
 _symmetry_equiv_pos_as_xyz
  1  'x, y, z'
loop_
 _atom_site_type_symbol
 _atom_site_label
 _atom_site_symmetry_multiplicity
 _atom_site_fract_x
 _atom_site_fract_y
 _atom_site_fract_z
 _atom_site_occupancy
  Sm  Sm0  1  0.00000000  0.61392800  0.57802600  1
  Sm  Sm1  1  0.00000000  0.38607200  0.42197500  1
  Sm  Sm2  1  0.00000000  0.11392800  0.92197500  1
  Sm  Sm3  1  0.00000000  0.88607200  0.07802500  1
  Sm  Sm4  1  0.00000000  0.40153100  0.73665500  1
  Sm  Sm5  1  0.00000000  0.59846900  0.26334500  1
  Sm  Sm6  1  0.00000000  0.90153100  0.76334500  1
  Sm  Sm7  1  0.00000000  0.09846900  0.23665500  1
  Sm  Sm8  1  0.49999900  0.42079000  0.59853800  1
  Sm  Sm9  1  0.49999900  0.57921000  0.40146200  1
  Sm  Sm10  1  0.49999900  0.92079000  0.90146200  1
  Sm  Sm11  1  0.49999900  0.07921000  0.09853800  1
  Sm  Sm12  1  0.49999900  0.18079900  0.77494900  1
  Sm  Sm13  1  0.49999900  0.81920100  0.22505100  1
  Sm  Sm14  1  0.49999900  0.68079900  0.72505100  1
  Sm  Sm15  1  0.49999900  0.31920100  0.27494900  1
  Mo  Mo16  1  0.00000000  0.90816700  0.56591100  1
  Mo  Mo17  1  0.00000000  0.09183400  0.43408900  1
  Mo  Mo18  1  0.00000000  0.40816600  0.93408900  1
  Mo  Mo19  1  0.00000000  0.59183400  0.06591100  1
  Mo  Mo20  1  0.49999900  0.89441100  0.57735200  1
  Mo  Mo21  1  0.49999900  0.10558900  0.42264800  1
  Mo  Mo22  1  0.49999900  0.39441100  0.92264800  1
  Mo  Mo23  1  0.49999900  0.60558900  0.07735200  1
  Mo  Mo24  1  0.24740200  0.85861200  0.40998500  1
  Mo  Mo25  1  0.24740200  0.14138800  0.59001600  1
  Mo  Mo26  1  0.75259900  0.35861200  0.09001500  1
  Mo  Mo27  1  0.75259900  0.64138800  0.90998400  1
  Mo  Mo28  1  0.75259900  0.14138800  0.59001600  1
  Mo  Mo29  1  0.75259900  0.85861200  0.40998500  1
  Mo  Mo30  1  0.24740200  0.64138800  0.90998400  1
  Mo  Mo31  1  0.24740200  0.35861200  0.09001500  1
  O  O32  1  0.24653800  0.00000000  0.00000000  1
  O  O33  1  0.75346300  0.50000000  0.50000000  1
  O  O34  1  0.75346300  0.00000000  0.00000000  1
  O  O35  1  0.24653800  0.50000000  0.50000000  1
  O  O36  1  0.00000000  0.23388700  0.52184100  1
  O  O37  1  0.00000000  0.76611300  0.47815900  1
  O  O38  1  0.00000000  0.73388700  0.97815900  1
  O  O39  1  0.00000000  0.26611300  0.02184100  1
  O  O40  1  0.00000000  0.04516300  0.65572500  1
  O  O41  1  0.00000000  0.95483700  0.34427500  1
  O  O42  1  0.00000000  0.54516300  0.84427500  1
  O  O43  1  0.00000000  0.45483700  0.15572500  1
  O  O44  1  0.49999900  0.22951200  0.52225400  1
  O  O45  1  0.49999900  0.77048800  0.47774600  1
  O  O46  1  0.49999900  0.72951200  0.97774600  1
  O  O47  1  0.49999900  0.27048800  0.02225400  1
  O  O48  1  0.49999900  0.05037300  0.65481900  1
  O  O49  1  0.49999900  0.94962700  0.34518100  1
  O  O50  1  0.76404900  0.30837700  0.86043600  1
  O  O51  1  0.49999900  0.44962700  0.15481900  1
  O  O52  1  0.24985400  0.96207200  0.17268600  1
  O  O53  1  0.24985400  0.03792800  0.82731300  1
  O  O54  1  0.75014600  0.46207200  0.32731300  1
  O  O55  1  0.75014600  0.53792800  0.67268600  1
  O  O56  1  0.75014600  0.03792800  0.82731300  1
  O  O57  1  0.75014600  0.96207200  0.17268600  1
  O  O58  1  0.24985400  0.53792800  0.67268600  1
  O  O59  1  0.24985400  0.46207200  0.32731300  1
  O  O60  1  0.23595200  0.69162300  0.13956400  1
  O  O61  1  0.23595200  0.30837700  0.86043600  1
  O  O62  1  0.76404900  0.19162300  0.36043600  1
  O  O63  1  0.76404900  0.80837700  0.63956400  1
  O  O64  1  0.26269600  0.22304000  0.17639400  1
  O  O65  1  0.26269600  0.77696000  0.82360600  1
  O  O66  1  0.73730300  0.72304000  0.32360500  1
  O  O67  1  0.73730300  0.27696000  0.67639400  1
  O  O68  1  0.73730300  0.77696000  0.82360600  1
  O  O69  1  0.73730300  0.22304000  0.17639400  1
  O  O70  1  0.26269600  0.27696000  0.67639400  1
  O  O71  1  0.26269600  0.72304000  0.32360500  1
  O  O72  1  0.23595200  0.19162300  0.36043600  1
  O  O73  1  0.23595200  0.80837700  0.63956400  1
  O  O74  1  0.76404900  0.69162300  0.13956400  1
  O  O75  1  0.49999900  0.55037300  0.84518100  1
