# generated using pymatgen
data_Th2Ge
_symmetry_space_group_name_H-M   'P 1'
_cell_length_a   6.06203418
_cell_length_b   6.06203418
_cell_length_c   6.06203418
_cell_angle_alpha   104.63757154
_cell_angle_beta   104.63757154
_cell_angle_gamma   119.64286625
_symmetry_Int_Tables_number   1
_chemical_formula_structural   Th2Ge
_chemical_formula_sum   'Th4 Ge2'
_cell_volume   167.37239064
_cell_formula_units_Z   2
loop_
 _symmetry_equiv_pos_site_id
 _symmetry_equiv_pos_as_xyz
  1  'x, y, z'
loop_
 _atom_site_type_symbol
 _atom_site_label
 _atom_site_symmetry_multiplicity
 _atom_site_fract_x
 _atom_site_fract_y
 _atom_site_fract_z
 _atom_site_occupancy
  Th  Th0  1  0.83634800  0.66365200  0.50000000  1
  Th  Th1  1  0.33634800  0.83634800  0.17269500  1
  Th  Th2  1  0.16365200  0.33634800  0.50000000  1
  Th  Th3  1  0.66365200  0.16365200  0.82730500  1
  Ge  Ge4  1  0.25000000  0.25000000  0.00000000  1
  Ge  Ge5  1  0.75000000  0.75000000  0.00000000  1
