# generated using pymatgen
data_Li7Mn5O12
_symmetry_space_group_name_H-M   'P 1'
_cell_length_a   2.87168600
_cell_length_b   11.32001557
_cell_length_c   14.72966889
_cell_angle_alpha   71.61750510
_cell_angle_beta   84.40886613
_cell_angle_gamma   97.28651635
_symmetry_Int_Tables_number   1
_chemical_formula_structural   Li7Mn5O12
_chemical_formula_sum   'Li14 Mn10 O24'
_cell_volume   445.89300251
_cell_formula_units_Z   2
loop_
 _symmetry_equiv_pos_site_id
 _symmetry_equiv_pos_as_xyz
  1  'x, y, z'
loop_
 _atom_site_type_symbol
 _atom_site_label
 _atom_site_symmetry_multiplicity
 _atom_site_fract_x
 _atom_site_fract_y
 _atom_site_fract_z
 _atom_site_occupancy
  Li  Li0  1  0.66683400  0.25026200  0.91675500  1
  Li  Li1  1  0.66648600  0.74973900  0.41663500  1
  Li  Li2  1  0.50075500  0.12101600  0.11970700  1
  Li  Li3  1  0.50071300  0.62093100  0.61965700  1
  Li  Li4  1  0.83271400  0.37908800  0.71369100  1
  Li  Li5  1  0.83246600  0.87895400  0.21359900  1
  Li  Li6  1  0.51338300  0.40003000  0.37326800  1
  Li  Li7  1  0.51392500  0.90066400  0.87305000  1
  Li  Li8  1  0.82006800  0.59994100  0.96010000  1
  Li  Li9  1  0.81954500  0.09931500  0.46030700  1
  Li  Li10  1  0.15213500  0.34378300  0.03996000  1
  Li  Li11  1  0.15186600  0.84329100  0.53981600  1
  Li  Li12  1  0.18127700  0.65623500  0.29337400  1
  Li  Li13  1  0.18152000  0.15669400  0.79353300  1
  Mn  Mn14  1  0.01095900  0.01997500  0.99822600  1
  Mn  Mn15  1  0.01055600  0.51948000  0.49837000  1
  Mn  Mn16  1  0.32286700  0.48051600  0.83496700  1
  Mn  Mn17  1  0.32240200  0.98019600  0.33496500  1
  Mn  Mn18  1  0.99368700  0.73897600  0.75117800  1
  Mn  Mn19  1  0.99268400  0.23814700  0.25179100  1
  Mn  Mn20  1  0.33993300  0.76172700  0.08153000  1
  Mn  Mn21  1  0.33942200  0.26098900  0.58222000  1
  Mn  Mn22  1  0.66708100  0.00002600  0.66664600  1
  Mn  Mn23  1  0.66653600  0.50000000  0.16663400  1
  O  O24  1  0.43170100  0.45441500  0.59107700  1
  O  O25  1  0.43181500  0.95439900  0.09102500  1
  O  O26  1  0.90167300  0.54558600  0.74229500  1
  O  O27  1  0.90139000  0.04560700  0.24224500  1
  O  O28  1  0.41028200  0.66673100  0.84631300  1
  O  O29  1  0.40921700  0.16594100  0.34683700  1
  O  O30  1  0.92395500  0.83406100  0.98646700  1
  O  O31  1  0.92318100  0.33325300  0.48708400  1
  O  O32  1  0.07558300  0.17106200  0.02004600  1
  O  O33  1  0.07550300  0.67082000  0.51979500  1
  O  O34  1  0.25787400  0.32919100  0.81355800  1
  O  O35  1  0.25765700  0.82897100  0.31327300  1
  O  O36  1  0.08751300  0.43778200  0.26245000  1
  O  O37  1  0.08835400  0.93835500  0.76238800  1
  O  O38  1  0.24551900  0.56218300  0.07086800  1
  O  O39  1  0.24565900  0.06163400  0.57097400  1
  O  O40  1  0.76276300  0.70260900  0.17745800  1
  O  O41  1  0.76260300  0.20284300  0.67808700  1
  O  O42  1  0.57038600  0.29738100  0.15584200  1
  O  O43  1  0.57095500  0.79717100  0.65529500  1
  O  O44  1  0.75253200  0.43484400  0.92996400  1
  O  O45  1  0.75198900  0.93426600  0.42990000  1
  O  O46  1  0.58081500  0.56513800  0.40339000  1
  O  O47  1  0.58126900  0.06578200  0.90338800  1
