# generated using pymatgen
data_CaLaCrWO6
_symmetry_space_group_name_H-M   'P 1'
_cell_length_a   5.57817602
_cell_length_b   5.70745600
_cell_length_c   7.88699239
_cell_angle_alpha   90.00161050
_cell_angle_beta   89.21354985
_cell_angle_gamma   89.99709202
_symmetry_Int_Tables_number   1
_chemical_formula_structural   CaLaCrWO6
_chemical_formula_sum   'Ca2 La2 Cr2 W2 O12'
_cell_volume   251.07605372
_cell_formula_units_Z   2
loop_
 _symmetry_equiv_pos_site_id
 _symmetry_equiv_pos_as_xyz
  1  'x, y, z'
loop_
 _atom_site_type_symbol
 _atom_site_label
 _atom_site_symmetry_multiplicity
 _atom_site_fract_x
 _atom_site_fract_y
 _atom_site_fract_z
 _atom_site_occupancy
  Ca  Ca0  1  0.48466600  0.45070000  0.74827600  1
  Ca  Ca1  1  0.98464900  0.04937800  0.24828200  1
  La  La2  1  0.01341800  0.95704800  0.75257700  1
  La  La3  1  0.51351400  0.54296700  0.25256200  1
  Cr  Cr4  1  0.50022900  0.00031700  0.49951400  1
  Cr  Cr5  1  0.00025000  0.49968300  0.99945800  1
  W  W6  1  0.49992300  0.00052500  0.00059100  1
  W  W7  1  0.99996500  0.49946700  0.50053800  1
  O  O8  1  0.08726900  0.47208500  0.24760200  1
  O  O9  1  0.58706500  0.02778100  0.74757200  1
  O  O10  1  0.20012800  0.21623600  0.94887400  1
  O  O11  1  0.70012200  0.28374700  0.44889100  1
  O  O12  1  0.20889600  0.20944300  0.54526900  1
  O  O13  1  0.70892500  0.29055300  0.04525200  1
  O  O14  1  0.29599400  0.70601400  0.95257100  1
  O  O15  1  0.79594200  0.79402400  0.45257200  1
  O  O16  1  0.30407500  0.71248500  0.55249100  1
  O  O17  1  0.80418100  0.78755500  0.05245600  1
  O  O18  1  0.40538500  0.97644400  0.25232000  1
  O  O19  1  0.90540400  0.52354900  0.75233000  1
