# generated using pymatgen
data_CdFeO3
_symmetry_space_group_name_H-M   'P 1'
_cell_length_a   5.36836819
_cell_length_b   5.48929253
_cell_length_c   7.66726701
_cell_angle_alpha   89.99821876
_cell_angle_beta   89.99297411
_cell_angle_gamma   89.29287302
_symmetry_Int_Tables_number   1
_chemical_formula_structural   CdFeO3
_chemical_formula_sum   'Cd4 Fe4 O12'
_cell_volume   225.92598168
_cell_formula_units_Z   4
loop_
 _symmetry_equiv_pos_site_id
 _symmetry_equiv_pos_as_xyz
  1  'x, y, z'
loop_
 _atom_site_type_symbol
 _atom_site_label
 _atom_site_symmetry_multiplicity
 _atom_site_fract_x
 _atom_site_fract_y
 _atom_site_fract_z
 _atom_site_occupancy
  Cd  Cd0  1  0.01475800  0.95195800  0.75000700  1
  Cd  Cd1  1  0.49248600  0.45447200  0.75000300  1
  Cd  Cd2  1  0.50754300  0.54551900  0.25001500  1
  Cd  Cd3  1  0.98523300  0.04806200  0.25000200  1
  Fe  Fe4  1  0.49996300  0.99997000  0.99999700  1
  Fe  Fe5  1  0.49999900  0.99999000  0.49998800  1
  Fe  Fe6  1  0.00002300  0.50002100  0.99995800  1
  Fe  Fe7  1  0.99997000  0.49999500  0.49995300  1
  O  O8  1  0.08817200  0.46793600  0.25013500  1
  O  O9  1  0.39625200  0.96313500  0.24999100  1
  O  O10  1  0.60374500  0.03686600  0.75003200  1
  O  O11  1  0.91185000  0.53207600  0.74984400  1
  O  O12  1  0.20402800  0.20020100  0.55252900  1
  O  O13  1  0.20421000  0.19994000  0.94758600  1
  O  O14  1  0.30714300  0.70963000  0.55229900  1
  O  O15  1  0.30691600  0.70932900  0.94781900  1
  O  O16  1  0.69308500  0.29065800  0.05219600  1
  O  O17  1  0.69286100  0.29035300  0.44772400  1
  O  O18  1  0.79579000  0.80008200  0.05243000  1
  O  O19  1  0.79597400  0.79980900  0.44749200  1
