# generated using pymatgen
data_LaTaZnFeO6
_symmetry_space_group_name_H-M   'P 1'
_cell_length_a   7.93268957
_cell_length_b   8.09851301
_cell_length_c   8.08665502
_cell_angle_alpha   95.22317307
_cell_angle_beta   89.55884252
_cell_angle_gamma   89.56572169
_symmetry_Int_Tables_number   1
_chemical_formula_structural   LaTaZnFeO6
_chemical_formula_sum   'La4 Ta4 Zn4 Fe4 O24'
_cell_volume   517.32048931
_cell_formula_units_Z   4
loop_
 _symmetry_equiv_pos_site_id
 _symmetry_equiv_pos_as_xyz
  1  'x, y, z'
loop_
 _atom_site_type_symbol
 _atom_site_label
 _atom_site_symmetry_multiplicity
 _atom_site_fract_x
 _atom_site_fract_y
 _atom_site_fract_z
 _atom_site_occupancy
  La  La0  1  0.25259400  0.52268700  0.45360000  1
  La  La1  1  0.25279100  0.02263400  0.95363300  1
  La  La2  1  0.75270200  0.45334100  0.02230800  1
  La  La3  1  0.75333600  0.95346900  0.52253400  1
  Ta  Ta4  1  0.49653500  0.26742300  0.73081700  1
  Ta  Ta5  1  0.49665100  0.76723200  0.23083800  1
  Ta  Ta6  1  0.99672100  0.73107500  0.76775300  1
  Ta  Ta7  1  0.99670200  0.23131100  0.26732900  1
  Zn  Zn8  1  0.24794900  0.43402900  0.04732100  1
  Zn  Zn9  1  0.24823500  0.93380100  0.54755600  1
  Zn  Zn10  1  0.74801900  0.54743600  0.43373400  1
  Zn  Zn11  1  0.74814500  0.04747500  0.93355100  1
  Fe  Fe12  1  0.00555600  0.25490300  0.73249800  1
  Fe  Fe13  1  0.50557800  0.23193200  0.25481600  1
  Fe  Fe14  1  0.00541800  0.75513500  0.23356800  1
  Fe  Fe15  1  0.50569100  0.73301000  0.75471600  1
  O  O16  1  0.76143700  0.33376900  0.29873300  1
  O  O17  1  0.76152200  0.83381100  0.79871600  1
  O  O18  1  0.26139300  0.29848500  0.83393100  1
  O  O19  1  0.26157300  0.79883200  0.33382000  1
  O  O20  1  0.93962400  0.19135000  0.01552200  1
  O  O21  1  0.93961800  0.69123900  0.51555100  1
  O  O22  1  0.43918200  0.51614400  0.19139200  1
  O  O23  1  0.43936300  0.01607700  0.69139000  1
  O  O24  1  0.55351500  0.19956300  0.99187700  1
  O  O25  1  0.55330700  0.69939800  0.49215200  1
  O  O26  1  0.05300000  0.49174400  0.19939800  1
  O  O27  1  0.05327000  0.99136600  0.69957300  1
  O  O28  1  0.73687300  0.69939000  0.20840300  1
  O  O29  1  0.73691200  0.19944000  0.70833700  1
  O  O30  1  0.23698200  0.20877000  0.19968200  1
  O  O31  1  0.23691100  0.70835000  0.69966100  1
  O  O32  1  0.55258600  0.49139100  0.80856600  1
  O  O33  1  0.55308600  0.99128400  0.30866300  1
  O  O34  1  0.05248500  0.80888600  0.99203500  1
  O  O35  1  0.05260700  0.30887500  0.49187400  1
  O  O36  1  0.95299800  0.50931000  0.80831900  1
  O  O37  1  0.95367900  0.00943700  0.30829600  1
  O  O38  1  0.45308700  0.80812100  0.00873000  1
  O  O39  1  0.45237100  0.30807700  0.50880700  1
