# generated using pymatgen
data_CaLaFeSbO6
_symmetry_space_group_name_H-M   'P 1'
_cell_length_a   7.97429985
_cell_length_b   8.07082353
_cell_length_c   8.10207336
_cell_angle_alpha   89.78485947
_cell_angle_beta   89.62887522
_cell_angle_gamma   91.11489103
_symmetry_Int_Tables_number   1
_chemical_formula_structural   CaLaFeSbO6
_chemical_formula_sum   'Ca4 La4 Fe4 Sb4 O24'
_cell_volume   521.32911148
_cell_formula_units_Z   4
loop_
 _symmetry_equiv_pos_site_id
 _symmetry_equiv_pos_as_xyz
  1  'x, y, z'
loop_
 _atom_site_type_symbol
 _atom_site_label
 _atom_site_symmetry_multiplicity
 _atom_site_fract_x
 _atom_site_fract_y
 _atom_site_fract_z
 _atom_site_occupancy
  Ca  Ca0  1  0.53453500  0.98160100  0.25322300  1
  Ca  Ca1  1  0.03656400  0.48322500  0.25140000  1
  Ca  Ca2  1  0.48177900  0.53174100  0.75303200  1
  Ca  Ca3  1  0.97864800  0.03422300  0.75350400  1
  La  La4  1  0.52043600  0.46908500  0.24704900  1
  La  La5  1  0.01695400  0.97269100  0.24734900  1
  La  La6  1  0.46745500  0.01609400  0.74877400  1
  La  La7  1  0.96843800  0.51649300  0.74679500  1
  Fe  Fe8  1  0.24979000  0.74916300  0.99980700  1
  Fe  Fe9  1  0.24962700  0.25042100  0.50203100  1
  Fe  Fe10  1  0.74955300  0.24956600  0.00188300  1
  Fe  Fe11  1  0.74947200  0.74930200  0.50048000  1
  Sb  Sb12  1  0.75062400  0.24825900  0.49953600  1
  Sb  Sb13  1  0.25094500  0.74882500  0.49880700  1
  Sb  Sb14  1  0.74916400  0.75147200  0.99886000  1
  Sb  Sb15  1  0.24888500  0.25134500  0.99927300  1
  O  O16  1  0.31849000  0.28540100  0.76218200  1
  O  O17  1  0.81678600  0.78711800  0.76186000  1
  O  O18  1  0.28520200  0.81810700  0.26213800  1
  O  O19  1  0.78812300  0.31869600  0.26263700  1
  O  O20  1  0.20054200  0.01089900  0.94882800  1
  O  O21  1  0.70579000  0.50981100  0.94832400  1
  O  O22  1  0.50726200  0.20430500  0.44666700  1
  O  O23  1  0.00545000  0.70366900  0.44966300  1
  O  O24  1  0.20291400  0.98866400  0.55632600  1
  O  O25  1  0.70318100  0.48620800  0.55873000  1
  O  O26  1  0.49082700  0.19969300  0.05433500  1
  O  O27  1  0.99263900  0.70619000  0.05483700  1
  O  O28  1  0.71799400  0.18082900  0.73822600  1
  O  O29  1  0.22025400  0.68210800  0.73693000  1
  O  O30  1  0.68427900  0.71911900  0.23733900  1
  O  O31  1  0.18241800  0.22130400  0.23811000  1
  O  O32  1  0.49558800  0.79129000  0.54924100  1
  O  O33  1  0.99344100  0.29014400  0.55274400  1
  O  O34  1  0.78954500  0.99200900  0.05074800  1
  O  O35  1  0.29533900  0.49089100  0.04996900  1
  O  O36  1  0.50565900  0.79246700  0.94540900  1
  O  O37  1  0.00669600  0.29816200  0.94663100  1
  O  O38  1  0.79400000  0.01039300  0.44231000  1
  O  O39  1  0.29471000  0.50901100  0.44401600  1
