# generated using pymatgen
data_Y4Mo4O11
_symmetry_space_group_name_H-M   'P 1'
_cell_length_a   5.75242700
_cell_length_b   10.89429200
_cell_length_c   16.17596300
_cell_angle_alpha   90.00000000
_cell_angle_beta   90.00000000
_cell_angle_gamma   90.00000000
_symmetry_Int_Tables_number   1
_chemical_formula_structural   Y4Mo4O11
_chemical_formula_sum   'Y16 Mo16 O44'
_cell_volume   1013.72526943
_cell_formula_units_Z   4
loop_
 _symmetry_equiv_pos_site_id
 _symmetry_equiv_pos_as_xyz
  1  'x, y, z'
loop_
 _atom_site_type_symbol
 _atom_site_label
 _atom_site_symmetry_multiplicity
 _atom_site_fract_x
 _atom_site_fract_y
 _atom_site_fract_z
 _atom_site_occupancy
  Y  Y0  1  0.50000000  0.31622300  0.27690900  1
  Y  Y1  1  0.50000000  0.68377700  0.72309100  1
  Y  Y2  1  0.50000000  0.81622300  0.22309100  1
  Y  Y3  1  0.50000000  0.18377700  0.77690900  1
  Y  Y4  1  0.50000000  0.07673600  0.09855400  1
  Y  Y5  1  0.50000000  0.92326400  0.90144600  1
  Y  Y6  1  0.50000000  0.57673600  0.40144600  1
  Y  Y7  1  0.50000000  0.42326400  0.59855400  1
  Y  Y8  1  0.00000000  0.09488600  0.23654800  1
  Y  Y9  1  0.00000000  0.90511400  0.76345200  1
  Y  Y10  1  0.00000000  0.59488600  0.26345200  1
  Y  Y11  1  0.00000000  0.40511400  0.73654800  1
  Y  Y12  1  0.00000000  0.88449800  0.07627700  1
  Y  Y13  1  0.00000000  0.11550200  0.92372300  1
  Y  Y14  1  0.00000000  0.38449800  0.42372300  1
  Y  Y15  1  0.00000000  0.61550200  0.57627700  1
  Mo  Mo16  1  0.27311100  0.36089900  0.08765700  1
  Mo  Mo17  1  0.27311100  0.63910100  0.91234300  1
  Mo  Mo18  1  0.72688900  0.86089900  0.41234300  1
  Mo  Mo19  1  0.72688900  0.13910100  0.58765700  1
  Mo  Mo20  1  0.72688900  0.63910100  0.91234300  1
  Mo  Mo21  1  0.72688900  0.36089900  0.08765700  1
  Mo  Mo22  1  0.27311100  0.13910100  0.58765700  1
  Mo  Mo23  1  0.27311100  0.86089900  0.41234300  1
  Mo  Mo24  1  0.50000000  0.59745800  0.07170300  1
  Mo  Mo25  1  0.50000000  0.40254200  0.92829700  1
  Mo  Mo26  1  0.50000000  0.09745800  0.42829700  1
  Mo  Mo27  1  0.50000000  0.90254200  0.57170300  1
  Mo  Mo28  1  0.00000000  0.58886900  0.06423300  1
  Mo  Mo29  1  0.00000000  0.41113100  0.93576700  1
  Mo  Mo30  1  0.00000000  0.08886900  0.43576700  1
  Mo  Mo31  1  0.00000000  0.91113100  0.56423300  1
  O  O32  1  0.24643600  0.00000000  0.00000000  1
  O  O33  1  0.75356400  0.50000000  0.50000000  1
  O  O34  1  0.75356400  0.00000000  0.00000000  1
  O  O35  1  0.24643600  0.50000000  0.50000000  1
  O  O36  1  0.00000000  0.23341600  0.52418700  1
  O  O37  1  0.00000000  0.76658400  0.47581300  1
  O  O38  1  0.00000000  0.73341600  0.97581300  1
  O  O39  1  0.00000000  0.26658400  0.02418700  1
  O  O40  1  0.00000000  0.04970900  0.65501000  1
  O  O41  1  0.00000000  0.95029100  0.34499000  1
  O  O42  1  0.00000000  0.54970900  0.84499000  1
  O  O43  1  0.00000000  0.45029100  0.15501000  1
  O  O44  1  0.50000000  0.24530400  0.51247300  1
  O  O45  1  0.50000000  0.75469600  0.48752700  1
  O  O46  1  0.50000000  0.74530400  0.98752700  1
  O  O47  1  0.50000000  0.25469600  0.01247300  1
  O  O48  1  0.50000000  0.03878700  0.66490500  1
  O  O49  1  0.50000000  0.96121300  0.33509500  1
  O  O50  1  0.75917400  0.30914000  0.85972300  1
  O  O51  1  0.50000000  0.53878700  0.83509500  1
  O  O52  1  0.24794000  0.96002900  0.17187500  1
  O  O53  1  0.24794000  0.03997100  0.82812500  1
  O  O54  1  0.75206000  0.46002900  0.32812500  1
  O  O55  1  0.75206000  0.53997100  0.67187500  1
  O  O56  1  0.75206000  0.03997100  0.82812500  1
  O  O57  1  0.75206000  0.96002900  0.17187500  1
  O  O58  1  0.24794000  0.53997100  0.67187500  1
  O  O59  1  0.24794000  0.46002900  0.32812500  1
  O  O60  1  0.24082600  0.69086000  0.14027700  1
  O  O61  1  0.24082600  0.30914000  0.85972300  1
  O  O62  1  0.75917400  0.19086000  0.35972300  1
  O  O63  1  0.75917400  0.80914000  0.64027700  1
  O  O64  1  0.26363300  0.22280000  0.17536400  1
  O  O65  1  0.26363300  0.77720000  0.82463600  1
  O  O66  1  0.73636700  0.72280000  0.32463600  1
  O  O67  1  0.73636700  0.27720000  0.67536400  1
  O  O68  1  0.73636700  0.77720000  0.82463600  1
  O  O69  1  0.73636700  0.22280000  0.17536400  1
  O  O70  1  0.26363300  0.27720000  0.67536400  1
  O  O71  1  0.26363300  0.72280000  0.32463600  1
  O  O72  1  0.24082600  0.19086000  0.35972300  1
  O  O73  1  0.24082600  0.80914000  0.64027700  1
  O  O74  1  0.75917400  0.69086000  0.14027700  1
  O  O75  1  0.50000000  0.46121300  0.16490500  1
