# generated using pymatgen
data_Ta2MnZnO8
_symmetry_space_group_name_H-M   'P 1'
_cell_length_a   5.09590810
_cell_length_b   5.74841374
_cell_length_c   19.66740339
_cell_angle_alpha   90.00850828
_cell_angle_beta   83.78428630
_cell_angle_gamma   90.00567482
_symmetry_Int_Tables_number   1
_chemical_formula_structural   Ta2MnZnO8
_chemical_formula_sum   'Ta8 Mn4 Zn4 O32'
_cell_volume   572.73801132
_cell_formula_units_Z   4
loop_
 _symmetry_equiv_pos_site_id
 _symmetry_equiv_pos_as_xyz
  1  'x, y, z'
loop_
 _atom_site_type_symbol
 _atom_site_label
 _atom_site_symmetry_multiplicity
 _atom_site_fract_x
 _atom_site_fract_y
 _atom_site_fract_z
 _atom_site_occupancy
  Ta  Ta0  1  0.71656900  0.17398000  0.11769200  1
  Ta  Ta1  1  0.71663600  0.67388900  0.61769400  1
  Ta  Ta2  1  0.78792300  0.67451800  0.38260900  1
  Ta  Ta3  1  0.78787600  0.17455200  0.88260500  1
  Ta  Ta4  1  0.27871800  0.32451600  0.38156000  1
  Ta  Ta5  1  0.27867700  0.82452100  0.88156400  1
  Ta  Ta6  1  0.22573400  0.82405600  0.11871700  1
  Ta  Ta7  1  0.22577200  0.32404000  0.61872400  1
  Mn  Mn8  1  0.75237200  0.14493700  0.50014600  1
  Mn  Mn9  1  0.25228800  0.85487900  0.50014800  1
  Mn  Mn10  1  0.75228900  0.64490200  0.00014600  1
  Mn  Mn11  1  0.25222100  0.35487900  0.00014700  1
  Zn  Zn12  1  0.85701100  0.15856200  0.27267500  1
  Zn  Zn13  1  0.85698100  0.65859800  0.77268500  1
  Zn  Zn14  1  0.64733200  0.65836600  0.22773400  1
  Zn  Zn15  1  0.64733000  0.15830600  0.72773800  1
  O  O16  1  0.06871400  0.13227300  0.05919100  1
  O  O17  1  0.06868500  0.63221200  0.55920000  1
  O  O18  1  0.43603900  0.63242100  0.44095800  1
  O  O19  1  0.43586000  0.13246300  0.94093200  1
  O  O20  1  0.92779200  0.37027300  0.44169800  1
  O  O21  1  0.92771700  0.87028700  0.94171600  1
  O  O22  1  0.57727000  0.87016000  0.05877100  1
  O  O23  1  0.57720000  0.37027600  0.55871200  1
  O  O24  1  0.55838400  0.39071100  0.05282800  1
  O  O25  1  0.55850500  0.89066600  0.55287200  1
  O  O26  1  0.94669800  0.89084000  0.44736800  1
  O  O27  1  0.94659200  0.39083700  0.94738100  1
  O  O28  1  0.44913200  0.10716500  0.44760500  1
  O  O29  1  0.44911300  0.60718900  0.94758400  1
  O  O30  1  0.05502200  0.60682000  0.05265100  1
  O  O31  1  0.05510100  0.10680700  0.55261900  1
  O  O32  1  0.37808800  0.09495000  0.16157200  1
  O  O33  1  0.37808300  0.59480200  0.66157100  1
  O  O34  1  0.12544800  0.59425400  0.33841400  1
  O  O35  1  0.12539200  0.09428200  0.83840500  1
  O  O36  1  0.33159600  0.62634600  0.18197300  1
  O  O37  1  0.33159300  0.12634000  0.68196500  1
  O  O38  1  0.17218200  0.12691900  0.31843600  1
  O  O39  1  0.17213000  0.62689500  0.81842200  1
  O  O40  1  0.69418300  0.85821100  0.30899100  1
  O  O41  1  0.69415800  0.35827200  0.80898500  1
  O  O42  1  0.81001300  0.35730800  0.19146700  1
  O  O43  1  0.81010000  0.85725000  0.69145500  1
  O  O44  1  0.87420200  0.89713700  0.16642100  1
  O  O45  1  0.87419500  0.39696400  0.66644900  1
  O  O46  1  0.63032200  0.39785100  0.33394400  1
  O  O47  1  0.63032800  0.89783700  0.83393300  1
