# generated using pymatgen
data_VZnP2O7
_symmetry_space_group_name_H-M   'P 1'
_cell_length_a   6.62060064
_cell_length_b   6.54623537
_cell_length_c   12.21793660
_cell_angle_alpha   94.14197182
_cell_angle_beta   84.31126303
_cell_angle_gamma   80.15407286
_symmetry_Int_Tables_number   1
_chemical_formula_structural   VZnP2O7
_chemical_formula_sum   'V4 Zn4 P8 O28'
_cell_volume   517.00461922
_cell_formula_units_Z   4
loop_
 _symmetry_equiv_pos_site_id
 _symmetry_equiv_pos_as_xyz
  1  'x, y, z'
loop_
 _atom_site_type_symbol
 _atom_site_label
 _atom_site_symmetry_multiplicity
 _atom_site_fract_x
 _atom_site_fract_y
 _atom_site_fract_z
 _atom_site_occupancy
  V  V0  1  0.66996600  0.99266000  0.88475000  1
  V  V1  1  0.33003400  0.50734100  0.61524800  1
  V  V2  1  0.66960000  0.49288000  0.38489600  1
  V  V3  1  0.33040400  0.00711800  0.11510200  1
  Zn  Zn4  1  0.82844100  0.37931100  0.06065900  1
  Zn  Zn5  1  0.82827000  0.87937700  0.56058200  1
  Zn  Zn6  1  0.17155700  0.12068800  0.43934100  1
  Zn  Zn7  1  0.17172900  0.62062300  0.93941800  1
  P  P8  1  0.15876200  0.60329600  0.38220100  1
  P  P9  1  0.15898300  0.10322100  0.88222900  1
  P  P10  1  0.84124100  0.89670300  0.11779700  1
  P  P11  1  0.84101600  0.39677700  0.61777100  1
  P  P12  1  0.61814900  0.98616000  0.34334500  1
  P  P13  1  0.61829700  0.48606400  0.84335800  1
  P  P14  1  0.38185300  0.51384200  0.15665400  1
  P  P15  1  0.38170200  0.01393600  0.65664200  1
  O  O16  1  0.75325400  0.84507800  0.23754500  1
  O  O17  1  0.75325000  0.34495700  0.73751500  1
  O  O18  1  0.24674800  0.65492300  0.26245400  1
  O  O19  1  0.24674700  0.15504200  0.76248500  1
  O  O20  1  0.00889800  0.44998600  0.37469000  1
  O  O21  1  0.00921400  0.94977000  0.87479100  1
  O  O22  1  0.99110400  0.05001100  0.12531100  1
  O  O23  1  0.99078200  0.55023100  0.62521000  1
  O  O24  1  0.60679700  0.46359200  0.18867500  1
  O  O25  1  0.60669600  0.96357800  0.68860100  1
  O  O26  1  0.39320500  0.03641200  0.31132500  1
  O  O27  1  0.39330100  0.53642100  0.81139900  1
  O  O28  1  0.36362900  0.67052100  0.06783500  1
  O  O29  1  0.36330200  0.17065300  0.56786900  1
  O  O30  1  0.63637000  0.82948200  0.43216600  1
  O  O31  1  0.63669600  0.32934800  0.93213100  1
  O  O32  1  0.93868100  0.67625400  0.06362100  1
  O  O33  1  0.93847700  0.17644800  0.56350400  1
  O  O34  1  0.06132100  0.82374300  0.43638000  1
  O  O35  1  0.06151900  0.32354900  0.93649600  1
  O  O36  1  0.65373200  0.99528400  0.06347600  1
  O  O37  1  0.65332400  0.49530700  0.56358300  1
  O  O38  1  0.34627200  0.50471900  0.43652200  1
  O  O39  1  0.34667700  0.00469200  0.93641700  1
  O  O40  1  0.28169500  0.32936400  0.13335300  1
  O  O41  1  0.28133900  0.82956700  0.63340000  1
  O  O42  1  0.71830700  0.17063600  0.36664600  1
  O  O43  1  0.71865800  0.67043200  0.86660100  1
