# generated using pymatgen
data_CaLaFeWO6
_symmetry_space_group_name_H-M   'P 1'
_cell_length_a   5.62629000
_cell_length_b   8.00600861
_cell_length_c   5.77948690
_cell_angle_alpha   89.72228699
_cell_angle_beta   91.64669371
_cell_angle_gamma   89.33359390
_symmetry_Int_Tables_number   1
_chemical_formula_structural   CaLaFeWO6
_chemical_formula_sum   'Ca2 La2 Fe2 W2 O12'
_cell_volume   260.20332979
_cell_formula_units_Z   2
loop_
 _symmetry_equiv_pos_site_id
 _symmetry_equiv_pos_as_xyz
  1  'x, y, z'
loop_
 _atom_site_type_symbol
 _atom_site_label
 _atom_site_symmetry_multiplicity
 _atom_site_fract_x
 _atom_site_fract_y
 _atom_site_fract_z
 _atom_site_occupancy
  Ca  Ca0  1  0.52386500  0.25284500  0.55270000  1
  Ca  Ca1  1  0.01757000  0.75298600  0.94783900  1
  La  La2  1  0.98500100  0.24608600  0.04711500  1
  La  La3  1  0.47653800  0.74657700  0.45150200  1
  Fe  Fe4  1  0.49867800  0.50026800  0.00039400  1
  Fe  Fe5  1  0.99836800  0.00097000  0.50091100  1
  W  W6  1  0.99943600  0.49905900  0.50312500  1
  W  W7  1  0.50103200  0.99847000  0.99688400  1
  O  O8  1  0.60645600  0.76669900  0.03013400  1
  O  O9  1  0.10578700  0.26726900  0.46971000  1
  O  O10  1  0.21310700  0.94876100  0.19339200  1
  O  O11  1  0.70557800  0.44944700  0.29972500  1
  O  O12  1  0.19156100  0.56070700  0.21849700  1
  O  O13  1  0.69980200  0.05911900  0.28936900  1
  O  O14  1  0.89996700  0.73335900  0.53712000  1
  O  O15  1  0.40125400  0.23312300  0.96279400  1
  O  O16  1  0.29097800  0.55152900  0.70816200  1
  O  O17  1  0.78539500  0.05157300  0.79841400  1
  O  O18  1  0.29645900  0.94112600  0.70858800  1
  O  O19  1  0.80316700  0.44002900  0.78362600  1
