# generated using pymatgen
data_WSeS
_symmetry_space_group_name_H-M   'P 1'
_cell_length_a   3.25471846
_cell_length_b   3.25471846
_cell_length_c   23.02290200
_cell_angle_alpha   90.00000000
_cell_angle_beta   90.00000000
_cell_angle_gamma   120.00000933
_symmetry_Int_Tables_number   1
_chemical_formula_structural   WSeS
_chemical_formula_sum   'W2 Se2 S2'
_cell_volume   211.21147512
_cell_formula_units_Z   2
loop_
 _symmetry_equiv_pos_site_id
 _symmetry_equiv_pos_as_xyz
  1  'x, y, z'
loop_
 _atom_site_type_symbol
 _atom_site_label
 _atom_site_symmetry_multiplicity
 _atom_site_fract_x
 _atom_site_fract_y
 _atom_site_fract_z
 _atom_site_occupancy
  W  W0  1  0.00000000  0.00000000  0.15043400  1
  W  W1  1  0.33333300  0.66666700  0.45144500  1
  Se  Se2  1  0.00000000  0.00000000  0.52558300  1
  Se  Se3  1  0.00000000  0.00000000  0.37728900  1
  S  S4  1  0.33333300  0.66666700  0.08313500  1
  S  S5  1  0.33333300  0.66666700  0.21771800  1
