# generated using pymatgen
data_Sr4LaMn5O13
_symmetry_space_group_name_H-M   'P 1'
_cell_length_a   7.68736000
_cell_length_b   9.73398731
_cell_length_c   9.65747343
_cell_angle_alpha   98.91373059
_cell_angle_beta   113.45288008
_cell_angle_gamma   66.74027862
_symmetry_Int_Tables_number   1
_chemical_formula_structural   Sr4LaMn5O13
_chemical_formula_sum   'Sr8 La2 Mn10 O26'
_cell_volume   609.07123023
_cell_formula_units_Z   2
loop_
 _symmetry_equiv_pos_site_id
 _symmetry_equiv_pos_as_xyz
  1  'x, y, z'
loop_
 _atom_site_type_symbol
 _atom_site_label
 _atom_site_symmetry_multiplicity
 _atom_site_fract_x
 _atom_site_fract_y
 _atom_site_fract_z
 _atom_site_occupancy
  Sr  Sr0  1  0.53898100  0.32054900  0.89786100  1
  Sr  Sr1  1  0.03836700  0.32050600  0.89786100  1
  Sr  Sr2  1  0.96163700  0.67943400  0.10211200  1
  Sr  Sr3  1  0.46104500  0.67938200  0.10210900  1
  Sr  Sr4  1  0.15952200  0.88464800  0.70139500  1
  Sr  Sr5  1  0.65719100  0.88463000  0.70137200  1
  Sr  Sr6  1  0.34280100  0.11539400  0.29865400  1
  Sr  Sr7  1  0.84047800  0.11539200  0.29863700  1
  La  La8  1  0.24960800  0.50015000  0.49999800  1
  La  La9  1  0.75040500  0.49982800  0.49998400  1
  Mn  Mn10  1  0.50017500  0.99974400  0.00009000  1
  Mn  Mn11  1  0.70707600  0.19463900  0.60874600  1
  Mn  Mn12  1  0.20521200  0.19521100  0.60551100  1
  Mn  Mn13  1  0.29289600  0.80539500  0.39121500  1
  Mn  Mn14  1  0.79480200  0.80481000  0.39452600  1
  Mn  Mn15  1  0.00001100  0.99996900  0.00001000  1
  Mn  Mn16  1  0.59830300  0.60485300  0.80164700  1
  Mn  Mn17  1  0.09672400  0.60621600  0.79960900  1
  Mn  Mn18  1  0.40175700  0.39513300  0.19835200  1
  Mn  Mn19  1  0.90324400  0.39377500  0.20037700  1
  O  O20  1  0.24311400  0.50298100  0.98920600  1
  O  O21  1  0.75691400  0.49689900  0.01073700  1
  O  O22  1  0.63628700  0.41388900  0.68650600  1
  O  O23  1  0.13195700  0.41419300  0.67805700  1
  O  O24  1  0.36367100  0.58618200  0.31345400  1
  O  O25  1  0.86801200  0.58585900  0.32192600  1
  O  O26  1  0.46467400  0.15887800  0.58848500  1
  O  O27  1  0.96501300  0.15896900  0.58853300  1
  O  O28  1  0.03491500  0.84110800  0.41151200  1
  O  O29  1  0.53535800  0.84121400  0.41156400  1
  O  O30  1  0.85783700  0.08494400  0.80058200  1
  O  O31  1  0.35795800  0.08308900  0.79895200  1
  O  O32  1  0.14213200  0.91509000  0.19941500  1
  O  O33  1  0.64213000  0.91682400  0.20114000  1
  O  O34  1  0.55632300  0.80473100  0.91732600  1
  O  O35  1  0.05476700  0.80462300  0.91428500  1
  O  O36  1  0.44377800  0.19522400  0.08284700  1
  O  O37  1  0.94522100  0.19538900  0.08570500  1
  O  O38  1  0.43301000  0.72251800  0.58868300  1
  O  O39  1  0.93995600  0.71938300  0.59927100  1
  O  O40  1  0.56691600  0.27758400  0.41127100  1
  O  O41  1  0.05994100  0.28074800  0.40065300  1
  O  O42  1  0.34705500  0.60144800  0.79028700  1
  O  O43  1  0.84183000  0.60139200  0.79024800  1
  O  O44  1  0.15814000  0.39862200  0.20966900  1
  O  O45  1  0.65285700  0.39856000  0.20961800  1
