# generated using pymatgen
data_Mn3In2Sb3O14
_symmetry_space_group_name_H-M   'P 1'
_cell_length_a   7.13840322
_cell_length_b   12.69071649
_cell_length_c   7.14114320
_cell_angle_alpha   89.39328465
_cell_angle_beta   119.26016771
_cell_angle_gamma   73.89038511
_symmetry_Int_Tables_number   1
_chemical_formula_structural   Mn3In2Sb3O14
_chemical_formula_sum   'Mn6 In4 Sb6 O28'
_cell_volume   533.90871616
_cell_formula_units_Z   2
loop_
 _symmetry_equiv_pos_site_id
 _symmetry_equiv_pos_as_xyz
  1  'x, y, z'
loop_
 _atom_site_type_symbol
 _atom_site_label
 _atom_site_symmetry_multiplicity
 _atom_site_fract_x
 _atom_site_fract_y
 _atom_site_fract_z
 _atom_site_occupancy
  Mn  Mn0  1  0.49969100  0.24991800  0.75009600  1
  Mn  Mn1  1  0.00023700  0.24993300  0.24997400  1
  Mn  Mn2  1  0.00013600  0.74986800  0.74988700  1
  Mn  Mn3  1  0.49989600  0.50032600  0.50003100  1
  Mn  Mn4  1  0.50016600  0.99980400  0.00011900  1
  Mn  Mn5  1  0.50034500  0.74976500  0.25009100  1
  In  In6  1  0.50346900  0.49480800  0.00242800  1
  In  In7  1  0.49635900  0.00527900  0.49748500  1
  In  In8  1  0.00275600  0.49557900  0.50160600  1
  In  In9  1  0.99734200  0.00437400  0.99843200  1
  Sb  Sb10  1  0.00142600  0.49746300  0.00095400  1
  Sb  Sb11  1  0.99856200  0.00255600  0.49905000  1
  Sb  Sb12  1  0.99993000  0.75000900  0.24992200  1
  Sb  Sb13  1  0.99996100  0.25003700  0.75000700  1
  Sb  Sb14  1  0.49999000  0.75000300  0.75001000  1
  Sb  Sb15  1  0.50006400  0.25002700  0.25005700  1
  O  O16  1  0.37391800  0.43943800  0.68671200  1
  O  O17  1  0.36788300  0.94252900  0.19004200  1
  O  O18  1  0.63218000  0.55747300  0.30993500  1
  O  O19  1  0.62609500  0.06060800  0.81336700  1
  O  O20  1  0.09573600  0.57055800  0.83417400  1
  O  O21  1  0.08032400  0.08624000  0.33305100  1
  O  O22  1  0.91983400  0.41373300  0.16703500  1
  O  O23  1  0.90413000  0.92950900  0.66576200  1
  O  O24  1  0.67082300  0.28015500  0.54882100  1
  O  O25  1  0.66546100  0.79108600  0.04313200  1
  O  O26  1  0.33440300  0.70888600  0.45689300  1
  O  O27  1  0.32908300  0.22001300  0.95118900  1
  O  O28  1  0.07726900  0.79077900  0.03622700  1
  O  O29  1  0.07154200  0.29593800  0.53288300  1
  O  O30  1  0.67366000  0.78978100  0.63153400  1
  O  O31  1  0.67102700  0.29624900  0.13246900  1
  O  O32  1  0.92860100  0.20407700  0.96720200  1
  O  O33  1  0.92253800  0.70919300  0.46358100  1
  O  O34  1  0.32912600  0.20370500  0.36759400  1
  O  O35  1  0.32634000  0.71014500  0.86847800  1
  O  O36  1  0.66990900  0.58548600  0.83749600  1
  O  O37  1  0.66553100  0.08659200  0.31625600  1
  O  O38  1  0.07755100  0.58561300  0.24369200  1
  O  O39  1  0.09744300  0.08647200  0.74797000  1
  O  O40  1  0.33448500  0.41349200  0.18359300  1
  O  O41  1  0.33003100  0.91448400  0.66256400  1
  O  O42  1  0.90246500  0.41363800  0.75190700  1
  O  O43  1  0.92228100  0.91438000  0.25629500  1
