# generated using pymatgen
data_LaMgCrMoO6
_symmetry_space_group_name_H-M   'P 1'
_cell_length_a   5.41682779
_cell_length_b   5.55584726
_cell_length_c   7.93311428
_cell_angle_alpha   90.04411480
_cell_angle_beta   89.68880089
_cell_angle_gamma   89.82069925
_symmetry_Int_Tables_number   1
_chemical_formula_structural   LaMgCrMoO6
_chemical_formula_sum   'La2 Mg2 Cr2 Mo2 O12'
_cell_volume   238.74284785
_cell_formula_units_Z   2
loop_
 _symmetry_equiv_pos_site_id
 _symmetry_equiv_pos_as_xyz
  1  'x, y, z'
loop_
 _atom_site_type_symbol
 _atom_site_label
 _atom_site_symmetry_multiplicity
 _atom_site_fract_x
 _atom_site_fract_y
 _atom_site_fract_z
 _atom_site_occupancy
  La  La0  1  0.00392100  0.95967500  0.75125400  1
  La  La1  1  0.50343900  0.54047700  0.25008000  1
  Mg  Mg2  1  0.48684600  0.45180900  0.75789800  1
  Mg  Mg3  1  0.98319500  0.05000900  0.25774200  1
  Cr  Cr4  1  0.99966600  0.50186400  0.99969700  1
  Cr  Cr5  1  0.49971400  0.99913500  0.49886400  1
  Mo  Mo6  1  0.49943900  0.00529800  0.00056700  1
  Mo  Mo7  1  0.99949700  0.49417400  0.50019300  1
  O  O8  1  0.08738800  0.43746000  0.24258800  1
  O  O9  1  0.58920000  0.07072700  0.74210200  1
  O  O10  1  0.21618300  0.22265000  0.93923000  1
  O  O11  1  0.71868400  0.27346700  0.43253300  1
  O  O12  1  0.20724700  0.20281400  0.55080200  1
  O  O13  1  0.71086200  0.29422000  0.04887700  1
  O  O14  1  0.31655000  0.69298700  0.94256200  1
  O  O15  1  0.81451600  0.80437600  0.44108900  1
  O  O16  1  0.31617200  0.68744200  0.56705000  1
  O  O17  1  0.81595700  0.81143600  0.06574500  1
  O  O18  1  0.36397700  0.96367300  0.25585200  1
  O  O19  1  0.86754200  0.53630900  0.75528000  1
