# generated using pymatgen
data_CaLaCr2O6
_symmetry_space_group_name_H-M   'P 1'
_cell_length_a   5.47052990
_cell_length_b   5.53820200
_cell_length_c   7.68237442
_cell_angle_alpha   90.00066401
_cell_angle_beta   89.97108567
_cell_angle_gamma   89.99865750
_symmetry_Int_Tables_number   1
_chemical_formula_structural   CaLaCr2O6
_chemical_formula_sum   'Ca2 La2 Cr4 O12'
_cell_volume   232.75209711
_cell_formula_units_Z   2
loop_
 _symmetry_equiv_pos_site_id
 _symmetry_equiv_pos_as_xyz
  1  'x, y, z'
loop_
 _atom_site_type_symbol
 _atom_site_label
 _atom_site_symmetry_multiplicity
 _atom_site_fract_x
 _atom_site_fract_y
 _atom_site_fract_z
 _atom_site_occupancy
  Ca  Ca0  1  0.48961400  0.45762000  0.74943100  1
  Ca  Ca1  1  0.98962100  0.04237100  0.24940000  1
  La  La2  1  0.00782300  0.96766700  0.75029800  1
  La  La3  1  0.50782300  0.53233900  0.25029700  1
  Cr  Cr4  1  0.00024300  0.49961400  0.99951300  1
  Cr  Cr5  1  0.00042000  0.50021300  0.50079900  1
  Cr  Cr6  1  0.50024800  0.00040000  0.49951000  1
  Cr  Cr7  1  0.50040300  0.99978500  0.00079700  1
  O  O8  1  0.07209100  0.47920200  0.24475600  1
  O  O9  1  0.57212900  0.02083400  0.74476600  1
  O  O10  1  0.41912300  0.98251100  0.25581900  1
  O  O11  1  0.91914000  0.51743500  0.75583000  1
  O  O12  1  0.21275400  0.21828700  0.96145200  1
  O  O13  1  0.22135400  0.21382200  0.53839500  1
  O  O14  1  0.71277400  0.28170800  0.46146400  1
  O  O15  1  0.72132500  0.28617800  0.03840200  1
  O  O16  1  0.28290300  0.70822000  0.95811700  1
  O  O17  1  0.29365600  0.71474600  0.54140800  1
  O  O18  1  0.78289500  0.79178200  0.45813000  1
  O  O19  1  0.79365900  0.78526400  0.04141300  1
