# generated using pymatgen
data_VWO4
_symmetry_space_group_name_H-M   'P 1'
_cell_length_a   4.58259909
_cell_length_b   4.96995792
_cell_length_c   11.89404471
_cell_angle_alpha   89.76776123
_cell_angle_beta   89.87973182
_cell_angle_gamma   89.68117430
_symmetry_Int_Tables_number   1
_chemical_formula_structural   VWO4
_chemical_formula_sum   'V4 W4 O16'
_cell_volume   270.88372638
_cell_formula_units_Z   4
loop_
 _symmetry_equiv_pos_site_id
 _symmetry_equiv_pos_as_xyz
  1  'x, y, z'
loop_
 _atom_site_type_symbol
 _atom_site_label
 _atom_site_symmetry_multiplicity
 _atom_site_fract_x
 _atom_site_fract_y
 _atom_site_fract_z
 _atom_site_occupancy
  V  V0  1  0.99958700  0.75107400  0.56204600  1
  V  V1  1  0.49876800  0.74876300  0.06274700  1
  V  V2  1  0.49819800  0.24957700  0.93634400  1
  V  V3  1  0.99998500  0.25099800  0.43718900  1
  W  W4  1  0.49955700  0.25065100  0.67843800  1
  W  W5  1  0.00014300  0.25186300  0.17581700  1
  W  W6  1  0.99947800  0.75013900  0.82189500  1
  W  W7  1  0.50146900  0.75056700  0.32207200  1
  O  O8  1  0.27842500  0.08311400  0.80307700  1
  O  O9  1  0.76934700  0.43482800  0.31093700  1
  O  O10  1  0.72014400  0.41716200  0.80298700  1
  O  O11  1  0.76118100  0.93259700  0.68645800  1
  O  O12  1  0.23100300  0.06856000  0.30959600  1
  O  O13  1  0.27258800  0.56526900  0.19446700  1
  O  O14  1  0.23791800  0.56956500  0.68679600  1
  O  O15  1  0.73149500  0.92769000  0.19275500  1
  O  O16  1  0.26255100  0.58309400  0.93896100  1
  O  O17  1  0.75642900  0.91566600  0.43941700  1
  O  O18  1  0.73714600  0.91532500  0.93832800  1
  O  O19  1  0.74807200  0.41047200  0.56593400  1
  O  O20  1  0.24265500  0.58871700  0.43961800  1
  O  O21  1  0.25553800  0.08554400  0.06311700  1
  O  O22  1  0.25172300  0.09227300  0.56608400  1
  O  O23  1  0.74660000  0.40649100  0.06491800  1
