# generated using pymatgen
data_NbCo3O8
_symmetry_space_group_name_H-M   'P 1'
_cell_length_a   5.72757831
_cell_length_b   5.76431046
_cell_length_c   9.27601390
_cell_angle_alpha   91.82942124
_cell_angle_beta   89.60881285
_cell_angle_gamma   60.39974727
_symmetry_Int_Tables_number   1
_chemical_formula_structural   NbCo3O8
_chemical_formula_sum   'Nb2 Co6 O16'
_cell_volume   266.05871316
_cell_formula_units_Z   2
loop_
 _symmetry_equiv_pos_site_id
 _symmetry_equiv_pos_as_xyz
  1  'x, y, z'
loop_
 _atom_site_type_symbol
 _atom_site_label
 _atom_site_symmetry_multiplicity
 _atom_site_fract_x
 _atom_site_fract_y
 _atom_site_fract_z
 _atom_site_occupancy
  Nb  Nb0  1  0.68162000  0.64032800  0.50353500  1
  Nb  Nb1  1  0.33076100  0.32764400  0.99432000  1
  Co  Co2  1  0.17033100  0.65893200  0.71381900  1
  Co  Co3  1  0.82373100  0.34410000  0.21468900  1
  Co  Co4  1  0.17003700  0.16611200  0.71296800  1
  Co  Co5  1  0.33124800  0.84175800  0.21622100  1
  Co  Co6  1  0.66515900  0.16555000  0.71427800  1
  Co  Co7  1  0.82916600  0.83658100  0.21615900  1
  O  O8  1  0.32935600  0.82606300  0.60043800  1
  O  O9  1  0.15377500  0.67989500  0.10127000  1
  O  O10  1  0.52648300  0.51354400  0.33496300  1
  O  O11  1  0.47717300  0.48933600  0.82481200  1
  O  O12  1  0.69050600  0.64769000  0.11133100  1
  O  O13  1  0.34440500  0.32154000  0.61177400  1
  O  O14  1  0.97239300  0.02830800  0.30817000  1
  O  O15  1  0.99223600  0.00655000  0.81016800  1
  O  O16  1  0.84067300  0.31816700  0.60409500  1
  O  O17  1  0.65638400  0.18851600  0.09412700  1
  O  O18  1  0.53150900  0.96199900  0.33423100  1
  O  O19  1  0.03622400  0.48911000  0.82610500  1
  O  O20  1  0.96487900  0.50374400  0.33898200  1
  O  O21  1  0.48139800  0.04061700  0.82772400  1
  O  O22  1  0.15576200  0.17658300  0.09819600  1
  O  O23  1  0.84458400  0.82754000  0.60334100  1
