# generated using pymatgen
data_CoSb(PO4)2
_symmetry_space_group_name_H-M   'P 1'
_cell_length_a   7.98540363
_cell_length_b   8.04139461
_cell_length_c   10.90590292
_cell_angle_alpha   103.30735340
_cell_angle_beta   104.21308515
_cell_angle_gamma   103.55847146
_symmetry_Int_Tables_number   1
_chemical_formula_structural   CoSb(PO4)2
_chemical_formula_sum   'Co4 Sb4 P8 O32'
_cell_volume   628.43774855
_cell_formula_units_Z   4
loop_
 _symmetry_equiv_pos_site_id
 _symmetry_equiv_pos_as_xyz
  1  'x, y, z'
loop_
 _atom_site_type_symbol
 _atom_site_label
 _atom_site_symmetry_multiplicity
 _atom_site_fract_x
 _atom_site_fract_y
 _atom_site_fract_z
 _atom_site_occupancy
  Co  Co0  1  0.18878500  0.43203500  0.21804600  1
  Co  Co1  1  0.31075400  0.06065700  0.78474600  1
  Co  Co2  1  0.68825100  0.93906300  0.21438800  1
  Co  Co3  1  0.81159400  0.56862400  0.78287000  1
  Sb  Sb4  1  0.74625600  0.48901300  0.29990900  1
  Sb  Sb5  1  0.24729600  0.99814200  0.28918900  1
  Sb  Sb6  1  0.75300600  0.00210300  0.71081700  1
  Sb  Sb7  1  0.25338700  0.51041100  0.70002400  1
  P  P8  1  0.36943800  0.12217900  0.09525200  1
  P  P9  1  0.88304400  0.63249700  0.10839600  1
  P  P10  1  0.11701900  0.36765000  0.89198100  1
  P  P11  1  0.63016600  0.87771600  0.90432400  1
  P  P12  1  0.01630800  0.24376800  0.40614300  1
  P  P13  1  0.50066800  0.77396200  0.40798100  1
  P  P14  1  0.49983600  0.22659100  0.59191400  1
  P  P15  1  0.98356000  0.75565400  0.59397300  1
  O  O16  1  0.73074800  0.97287300  0.04957600  1
  O  O17  1  0.19542300  0.44899900  0.04058400  1
  O  O18  1  0.80435700  0.55083700  0.95979300  1
  O  O19  1  0.26856500  0.02732100  0.95002600  1
  O  O20  1  0.53170200  0.28267200  0.12095200  1
  O  O21  1  0.05405300  0.79823700  0.13905400  1
  O  O22  1  0.94580100  0.20198600  0.86111000  1
  O  O23  1  0.46832600  0.71679500  0.87860100  1
  O  O24  1  0.64899200  0.90023300  0.38078200  1
  O  O25  1  0.15182200  0.39609000  0.38708700  1
  O  O26  1  0.84831700  0.60357100  0.61338600  1
  O  O27  1  0.35105900  0.10069000  0.61902900  1
  O  O28  1  0.44790500  0.19691900  0.43648600  1
  O  O29  1  0.96517400  0.72252300  0.44631700  1
  O  O30  1  0.03388600  0.27696100  0.55368200  1
  O  O31  1  0.55278200  0.80329500  0.56334500  1
  O  O32  1  0.23265100  0.17211400  0.17605400  1
  O  O33  1  0.74221400  0.68317200  0.17755900  1
  O  O34  1  0.42006800  0.98298500  0.17427800  1
  O  O35  1  0.93481400  0.49405100  0.18249300  1
  O  O36  1  0.06547200  0.50626100  0.81793200  1
  O  O37  1  0.57924600  0.01645400  0.82505000  1
  O  O38  1  0.25773000  0.31681500  0.82274300  1
  O  O39  1  0.76767000  0.82830900  0.82407600  1
  O  O40  1  0.04820600  0.05249500  0.35121900  1
  O  O41  1  0.45873500  0.57436700  0.33445600  1
  O  O42  1  0.81889600  0.21196700  0.31963800  1
  O  O43  1  0.30903200  0.81007400  0.36441800  1
  O  O44  1  0.54199700  0.42614400  0.66544500  1
  O  O45  1  0.95248600  0.94732200  0.64934100  1
  O  O46  1  0.69118100  0.19004100  0.63564900  1
  O  O47  1  0.18132000  0.78736200  0.67988700  1
