# generated using pymatgen
data_SrLa3Cr4O12
_symmetry_space_group_name_H-M   'P 1'
_cell_length_a   5.53432230
_cell_length_b   7.82319027
_cell_length_c   5.58905708
_cell_angle_alpha   90.07321051
_cell_angle_beta   90.65269014
_cell_angle_gamma   91.01561189
_symmetry_Int_Tables_number   1
_chemical_formula_structural   SrLa3Cr4O12
_chemical_formula_sum   'Sr1 La3 Cr4 O12'
_cell_volume   241.93015195
_cell_formula_units_Z   1
loop_
 _symmetry_equiv_pos_site_id
 _symmetry_equiv_pos_as_xyz
  1  'x, y, z'
loop_
 _atom_site_type_symbol
 _atom_site_label
 _atom_site_symmetry_multiplicity
 _atom_site_fract_x
 _atom_site_fract_y
 _atom_site_fract_z
 _atom_site_occupancy
  Sr  Sr0  1  0.49976500  0.24782600  0.00295300  1
  La  La1  1  0.00024100  0.75253000  0.49654000  1
  La  La2  1  0.50057200  0.75436100  0.99881900  1
  La  La3  1  0.99826400  0.24690500  0.50121500  1
  Cr  Cr4  1  0.99999900  0.00085000  0.00068000  1
  Cr  Cr5  1  0.49896700  0.49739900  0.49896300  1
  Cr  Cr6  1  0.99985100  0.49933900  0.99958400  1
  Cr  Cr7  1  0.50058500  0.99989900  0.49977000  1
  O  O8  1  0.00092900  0.74864300  0.06187700  1
  O  O9  1  0.49867100  0.25822800  0.55205900  1
  O  O10  1  0.99940800  0.25086000  0.93303500  1
  O  O11  1  0.50140200  0.74411800  0.43845400  1
  O  O12  1  0.22036100  0.53386400  0.71670200  1
  O  O13  1  0.78127400  0.96615100  0.71770400  1
  O  O14  1  0.72261000  0.02239700  0.22409200  1
  O  O15  1  0.28289200  0.47605500  0.23120400  1
  O  O16  1  0.71534600  0.53757800  0.77036500  1
  O  O17  1  0.27978200  0.96258800  0.77831500  1
  O  O18  1  0.21412100  0.02800600  0.28874800  1
  O  O19  1  0.78496300  0.47240400  0.28891900  1
