# generated using pymatgen
data_Na2VBPO7
_symmetry_space_group_name_H-M   'P 1'
_cell_length_a   8.45640530
_cell_length_b   8.45529643
_cell_length_c   9.26589237
_cell_angle_alpha   87.76799428
_cell_angle_beta   87.74364727
_cell_angle_gamma   99.37261723
_symmetry_Int_Tables_number   1
_chemical_formula_structural   Na2VBPO7
_chemical_formula_sum   'Na8 V4 B4 P4 O28'
_cell_volume   652.48132349
_cell_formula_units_Z   4
loop_
 _symmetry_equiv_pos_site_id
 _symmetry_equiv_pos_as_xyz
  1  'x, y, z'
loop_
 _atom_site_type_symbol
 _atom_site_label
 _atom_site_symmetry_multiplicity
 _atom_site_fract_x
 _atom_site_fract_y
 _atom_site_fract_z
 _atom_site_occupancy
  Na  Na0  1  0.61742700  0.62114300  0.21219500  1
  Na  Na1  1  0.11650900  0.11760100  0.20300400  1
  Na  Na2  1  0.37247700  0.86760000  0.20687900  1
  Na  Na3  1  0.86634000  0.36583800  0.20779500  1
  Na  Na4  1  0.62758900  0.13243400  0.79312300  1
  Na  Na5  1  0.13394300  0.63420500  0.79197200  1
  Na  Na6  1  0.38255000  0.37878900  0.78787300  1
  Na  Na7  1  0.88341300  0.88222400  0.79701400  1
  V  V8  1  0.26383200  0.51253300  0.33807200  1
  V  V9  1  0.73597900  0.48761700  0.66200700  1
  V  V10  1  0.76597300  0.01684400  0.34503600  1
  V  V11  1  0.23383600  0.98340400  0.65489100  1
  B  B12  1  0.74178500  0.99302700  0.08554000  1
  B  B13  1  0.23725200  0.48605000  0.08260700  1
  B  B14  1  0.25818600  0.00685300  0.91441700  1
  B  B15  1  0.76282600  0.51396500  0.91749900  1
  P  P16  1  0.49024500  0.24141300  0.44097400  1
  P  P17  1  0.99325500  0.74171100  0.44025900  1
  P  P18  1  0.50972900  0.75864300  0.55906400  1
  P  P19  1  0.00658800  0.25843600  0.55969400  1
  O  O20  1  0.28595600  0.03166300  0.04996300  1
  O  O21  1  0.77795400  0.53234000  0.05554900  1
  O  O22  1  0.71399900  0.96824000  0.94999100  1
  O  O23  1  0.22208000  0.46768100  0.94452100  1
  O  O24  1  0.85389100  0.10387900  0.15112700  1
  O  O25  1  0.34971400  0.59956400  0.15364400  1
  O  O26  1  0.14616900  0.89596800  0.84878600  1
  O  O27  1  0.65032000  0.40042000  0.84646700  1
  O  O28  1  0.65073700  0.89939100  0.20877900  1
  O  O29  1  0.14250800  0.39396400  0.20000600  1
  O  O30  1  0.34928200  0.10052700  0.79118200  1
  O  O31  1  0.85756100  0.60595500  0.80004400  1
  O  O32  1  0.43995900  0.68510400  0.42120900  1
  O  O33  1  0.92970600  0.18495800  0.42212500  1
  O  O34  1  0.55988600  0.31490400  0.57890100  1
  O  O35  1  0.07028500  0.81525700  0.57775900  1
  O  O36  1  0.35136900  0.09982300  0.48128600  1
  O  O37  1  0.85266300  0.60358300  0.47986600  1
  O  O38  1  0.64904200  0.89975400  0.51860100  1
  O  O39  1  0.14729200  0.39654100  0.52027000  1
  O  O40  1  0.42299600  0.37126700  0.34778900  1
  O  O41  1  0.93822800  0.87651900  0.34685000  1
  O  O42  1  0.62251700  0.18494500  0.34514200  1
  O  O43  1  0.12560300  0.67659500  0.34914400  1
  O  O44  1  0.37774200  0.81532600  0.65497800  1
  O  O45  1  0.87428200  0.32340000  0.65092100  1
  O  O46  1  0.57684100  0.62863900  0.65226100  1
  O  O47  1  0.06168500  0.12346000  0.65292300  1
