# generated using pymatgen
data_Li4Ti3(CoO4)3
_symmetry_space_group_name_H-M   'P 1'
_cell_length_a   7.95890984
_cell_length_b   8.33076925
_cell_length_c   7.95828894
_cell_angle_alpha   104.24773988
_cell_angle_beta   65.77344795
_cell_angle_gamma   106.27779891
_symmetry_Int_Tables_number   1
_chemical_formula_structural   Li4Ti3(CoO4)3
_chemical_formula_sum   'Li8 Ti6 Co6 O24'
_cell_volume   456.69526029
_cell_formula_units_Z   2
loop_
 _symmetry_equiv_pos_site_id
 _symmetry_equiv_pos_as_xyz
  1  'x, y, z'
loop_
 _atom_site_type_symbol
 _atom_site_label
 _atom_site_symmetry_multiplicity
 _atom_site_fract_x
 _atom_site_fract_y
 _atom_site_fract_z
 _atom_site_occupancy
  Li  Li0  1  0.91717400  0.58349800  0.41650700  1
  Li  Li1  1  0.41634500  0.08328600  0.91669900  1
  Li  Li2  1  0.17064800  0.83550800  0.16399300  1
  Li  Li3  1  0.66281600  0.33110200  0.66925000  1
  Li  Li4  1  0.72483400  0.71924200  0.27318000  1
  Li  Li5  1  0.23623900  0.23434500  0.75715400  1
  Li  Li6  1  0.59802800  0.93316900  0.07569300  1
  Li  Li7  1  0.10779600  0.44677900  0.56063000  1
  Ti  Ti8  1  0.16267500  0.32066800  0.16093000  1
  Ti  Ti9  1  0.67049200  0.84627700  0.67229300  1
  Ti  Ti10  1  0.33881300  0.18674800  0.34809100  1
  Ti  Ti11  1  0.82752000  0.67263300  0.84272900  1
  Ti  Ti12  1  0.49424400  0.97994600  0.48498100  1
  Ti  Ti13  1  0.00571900  0.49405700  0.99032900  1
  Co  Co14  1  0.91668400  0.08320800  0.41653100  1
  Co  Co15  1  0.58259400  0.41595000  0.07926800  1
  Co  Co16  1  0.25078400  0.75063900  0.75395400  1
  Co  Co17  1  0.41671300  0.58340000  0.91681000  1
  Co  Co18  1  0.08093600  0.91579900  0.58234400  1
  Co  Co19  1  0.75221900  0.25111100  0.25138300  1
  O  O20  1  0.26957300  0.98044700  0.72069000  1
  O  O21  1  0.76951000  0.47798700  0.22071100  1
  O  O22  1  0.06383400  0.68866700  0.61266700  1
  O  O23  1  0.56376000  0.18622800  0.11272600  1
  O  O24  1  0.49851900  0.23172200  0.49037200  1
  O  O25  1  0.00410300  0.73020500  0.98676200  1
  O  O26  1  0.33463900  0.93482300  0.34303000  1
  O  O27  1  0.82945400  0.43632700  0.84647700  1
  O  O28  1  0.89809400  0.83419300  0.44101100  1
  O  O29  1  0.40178100  0.33544200  0.93760400  1
  O  O30  1  0.43156400  0.83119700  0.89574800  1
  O  O31  1  0.93516100  0.33235900  0.39245900  1
  O  O32  1  0.17582400  0.09978200  0.18527500  1
  O  O33  1  0.67386200  0.60081400  0.69113000  1
  O  O34  1  0.15946000  0.56567600  0.14234600  1
  O  O35  1  0.65757000  0.06685800  0.64808100  1
  O  O36  1  0.32560100  0.39948000  0.31700600  1
  O  O37  1  0.82394300  0.90111300  0.82183700  1
  O  O38  1  0.00941900  0.26554500  0.01149800  1
  O  O39  1  0.50767700  0.76721100  0.51640000  1
  O  O40  1  0.60651700  0.65090300  0.07119600  1
  O  O41  1  0.10605700  0.14623700  0.56327800  1
  O  O42  1  0.72719200  0.02049100  0.27012100  1
  O  O43  1  0.22694500  0.51559900  0.76215400  1
