# generated using pymatgen
data_Li4FeTe(WO6)2
_symmetry_space_group_name_H-M   'P 1'
_cell_length_a   5.18616091
_cell_length_b   7.57356938
_cell_length_c   11.02837491
_cell_angle_alpha   85.66379157
_cell_angle_beta   90.22678388
_cell_angle_gamma   90.28990549
_symmetry_Int_Tables_number   1
_chemical_formula_structural   Li4FeTe(WO6)2
_chemical_formula_sum   'Li8 Fe2 Te2 W4 O24'
_cell_volume   431.92151426
_cell_formula_units_Z   2
loop_
 _symmetry_equiv_pos_site_id
 _symmetry_equiv_pos_as_xyz
  1  'x, y, z'
loop_
 _atom_site_type_symbol
 _atom_site_label
 _atom_site_symmetry_multiplicity
 _atom_site_fract_x
 _atom_site_fract_y
 _atom_site_fract_z
 _atom_site_occupancy
  Li  Li0  1  0.00719100  0.26621300  0.29175500  1
  Li  Li1  1  0.00944700  0.27274800  0.79687100  1
  Li  Li2  1  0.49841600  0.80213500  0.53221800  1
  Li  Li3  1  0.49399500  0.80991300  0.02543200  1
  Li  Li4  1  0.99015900  0.81218100  0.29845800  1
  Li  Li5  1  0.00027800  0.80185800  0.79424700  1
  Li  Li6  1  0.50471500  0.21994700  0.98145900  1
  Li  Li7  1  0.50427300  0.21377300  0.47716700  1
  Fe  Fe8  1  0.00098100  0.99992600  0.00837600  1
  Fe  Fe9  1  0.00255800  0.00210700  0.50721200  1
  Te  Te10  1  0.49821400  0.50262800  0.74992700  1
  Te  Te11  1  0.47922000  0.51678200  0.25373000  1
  W  W12  1  0.99512700  0.50364800  0.50372400  1
  W  W13  1  0.50679300  0.00427700  0.74926000  1
  W  W14  1  0.50899600  0.00629700  0.25130100  1
  W  W15  1  0.98229900  0.50468900  0.00322200  1
  O  O16  1  0.29993500  0.42651400  0.40788600  1
  O  O17  1  0.30600600  0.42431400  0.89474700  1
  O  O18  1  0.12524700  0.73689100  0.50489400  1
  O  O19  1  0.12618800  0.73565400  0.98574800  1
  O  O20  1  0.32884800  0.04770500  0.59635900  1
  O  O21  1  0.32276800  0.04939700  0.09678600  1
  O  O22  1  0.19676200  0.43005200  0.65647900  1
  O  O23  1  0.14237400  0.43695100  0.15508100  1
  O  O24  1  0.80265900  0.93909200  0.65791000  1
  O  O25  1  0.79154300  0.92203300  0.15458900  1
  O  O26  1  0.37499900  0.74528700  0.74433500  1
  O  O27  1  0.34686100  0.75574400  0.25355400  1
  O  O28  1  0.62805000  0.25473000  0.74859000  1
  O  O29  1  0.64534500  0.23307300  0.25437000  1
  O  O30  1  0.20577800  0.04761900  0.84058400  1
  O  O31  1  0.20688600  0.05566800  0.34570600  1
  O  O32  1  0.82039200  0.55676800  0.82880400  1
  O  O33  1  0.82516100  0.57318900  0.35432600  1
  O  O34  1  0.69733800  0.94387800  0.89637600  1
  O  O35  1  0.69802600  0.93351800  0.40028000  1
  O  O36  1  0.88861500  0.25784300  0.98571900  1
  O  O37  1  0.88437700  0.26030400  0.49802300  1
  O  O38  1  0.67337900  0.57503600  0.06190500  1
  O  O39  1  0.67980200  0.56201700  0.59498800  1
