# generated using pymatgen
data_Li7Mn5O12
_symmetry_space_group_name_H-M   'P 1'
_cell_length_a   6.05825789
_cell_length_b   10.09116710
_cell_length_c   8.14903220
_cell_angle_alpha   66.69880792
_cell_angle_beta   89.51425180
_cell_angle_gamma   102.81565577
_symmetry_Int_Tables_number   1
_chemical_formula_structural   Li7Mn5O12
_chemical_formula_sum   'Li14 Mn10 O24'
_cell_volume   443.57597661
_cell_formula_units_Z   2
loop_
 _symmetry_equiv_pos_site_id
 _symmetry_equiv_pos_as_xyz
  1  'x, y, z'
loop_
 _atom_site_type_symbol
 _atom_site_label
 _atom_site_symmetry_multiplicity
 _atom_site_fract_x
 _atom_site_fract_y
 _atom_site_fract_z
 _atom_site_occupancy
  Li  Li0  1  0.50002300  0.50003000  0.99997300  1
  Li  Li1  1  0.00000500  0.99995900  0.49996500  1
  Li  Li2  1  0.99999700  0.50000700  0.99999200  1
  Li  Li3  1  0.50007000  0.00002200  0.50002600  1
  Li  Li4  1  0.50009000  0.00001200  0.99992800  1
  Li  Li5  1  0.99986600  0.49998200  0.50001800  1
  Li  Li6  1  0.15442200  0.33372500  0.82325200  1
  Li  Li7  1  0.66224500  0.83026500  0.32711800  1
  Li  Li8  1  0.84558100  0.66631000  0.17677100  1
  Li  Li9  1  0.33780400  0.16968400  0.67291100  1
  Li  Li10  1  0.70074500  0.34728000  0.82167100  1
  Li  Li11  1  0.19248800  0.83549200  0.32720800  1
  Li  Li12  1  0.29911700  0.65264800  0.17830100  1
  Li  Li13  1  0.80834400  0.16472500  0.67261400  1
  Mn  Mn14  1  0.49999300  0.49995700  0.49999900  1
  Mn  Mn15  1  0.00006700  0.99999000  0.00010700  1
  Mn  Mn16  1  0.16331300  0.33481100  0.33717900  1
  Mn  Mn17  1  0.67263000  0.83650900  0.83405800  1
  Mn  Mn18  1  0.83650600  0.66516500  0.66283300  1
  Mn  Mn19  1  0.32741300  0.16352500  0.16592800  1
  Mn  Mn20  1  0.67583200  0.33921500  0.33351200  1
  Mn  Mn21  1  0.18048200  0.83826100  0.83212300  1
  Mn  Mn22  1  0.32411400  0.66080400  0.66638700  1
  Mn  Mn23  1  0.81951300  0.16176500  0.16788100  1
  O  O24  1  0.83959100  0.15926400  0.93152400  1
  O  O25  1  0.34637100  0.66282700  0.42681600  1
  O  O26  1  0.16050300  0.84074700  0.06858500  1
  O  O27  1  0.65359700  0.33706000  0.57322100  1
  O  O28  1  0.12975700  0.30630400  0.10588700  1
  O  O29  1  0.68021500  0.82754800  0.59975700  1
  O  O30  1  0.87016700  0.69370300  0.89408800  1
  O  O31  1  0.31971800  0.17249100  0.40018400  1
  O  O32  1  0.51678900  0.49983200  0.25951300  1
  O  O33  1  0.02326000  0.99966100  0.76245300  1
  O  O34  1  0.48307600  0.50012000  0.74050100  1
  O  O35  1  0.97673900  0.00037400  0.23775900  1
  O  O36  1  0.29095400  0.14631700  0.94054700  1
  O  O37  1  0.79221100  0.64708400  0.43586500  1
  O  O38  1  0.70912900  0.85371200  0.05947400  1
  O  O39  1  0.20768600  0.35284900  0.56415300  1
  O  O40  1  0.67183600  0.32598800  0.09426700  1
  O  O41  1  0.18266400  0.83104600  0.59430700  1
  O  O42  1  0.32808100  0.67399100  0.90568000  1
  O  O43  1  0.81723200  0.16898400  0.40566600  1
  O  O44  1  0.00991300  0.49092800  0.25330600  1
  O  O45  1  0.47621300  0.97694000  0.76194000  1
  O  O46  1  0.98984900  0.50907400  0.74668000  1
  O  O47  1  0.52378500  0.02301300  0.23806700  1
