# generated using pymatgen
data_Li7Mn4CoO12
_symmetry_space_group_name_H-M   'P 1'
_cell_length_a   5.15846332
_cell_length_b   10.07496900
_cell_length_c   9.74295427
_cell_angle_alpha   63.42367941
_cell_angle_beta   81.87803260
_cell_angle_gamma   100.81958333
_symmetry_Int_Tables_number   1
_chemical_formula_structural   Li7Mn4CoO12
_chemical_formula_sum   'Li14 Mn8 Co2 O24'
_cell_volume   429.92884282
_cell_formula_units_Z   2
loop_
 _symmetry_equiv_pos_site_id
 _symmetry_equiv_pos_as_xyz
  1  'x, y, z'
loop_
 _atom_site_type_symbol
 _atom_site_label
 _atom_site_symmetry_multiplicity
 _atom_site_fract_x
 _atom_site_fract_y
 _atom_site_fract_z
 _atom_site_occupancy
  Li  Li0  1  0.83080500  0.16360000  0.16455400  1
  Li  Li1  1  0.33282000  0.16360400  0.67185400  1
  Li  Li2  1  0.56848000  0.67064600  0.91692500  1
  Li  Li3  1  0.10213900  0.67064300  0.41243000  1
  Li  Li4  1  0.08197500  0.16406900  0.41796700  1
  Li  Li5  1  0.58324500  0.16665500  0.91668500  1
  Li  Li6  1  0.41596100  0.32415700  0.08472600  1
  Li  Li7  1  0.90803000  0.32417000  0.59107300  1
  Li  Li8  1  0.25143600  0.00563500  0.24396300  1
  Li  Li9  1  0.75401100  0.00567200  0.75045000  1
  Li  Li10  1  0.01227800  0.50045000  0.99471500  1
  Li  Li11  1  0.48827100  0.50043800  0.50484000  1
  Li  Li12  1  0.16485100  0.83921200  0.83009500  1
  Li  Li13  1  0.67436500  0.83916900  0.33078600  1
  Mn  Mn14  1  0.66417700  0.32799900  0.33584600  1
  Mn  Mn15  1  0.74841000  0.49681800  0.75152300  1
  Mn  Mn16  1  0.91874400  0.83740200  0.58131600  1
  Mn  Mn17  1  0.00064500  0.00145900  0.99930900  1
  Mn  Mn18  1  0.49879700  0.99762100  0.50116200  1
  Mn  Mn19  1  0.16757800  0.33524900  0.83239800  1
  Mn  Mn20  1  0.24682000  0.49363100  0.25324700  1
  Mn  Mn21  1  0.41773700  0.83569900  0.08216300  1
  Co  Co22  1  0.83468800  0.66906200  0.16545400  1
  Co  Co23  1  0.33357700  0.66714800  0.66640000  1
  O  O24  1  0.47922900  0.16459100  0.30168200  1
  O  O25  1  0.98236600  0.17102100  0.79841300  1
  O  O26  1  0.18851200  0.17103400  0.03061400  1
  O  O27  1  0.68520000  0.16462800  0.53356400  1
  O  O28  1  0.21570800  0.66075200  0.05800900  1
  O  O29  1  0.68950400  0.66704900  0.56116900  1
  O  O30  1  0.97758100  0.66703200  0.77177000  1
  O  O31  1  0.44544400  0.66074900  0.28136700  1
  O  O32  1  0.01823400  0.34197900  0.22026400  1
  O  O33  1  0.52062400  0.34117700  0.72008800  1
  O  O34  1  0.34594800  0.99278000  0.89571900  1
  O  O35  1  0.84605500  0.99416600  0.39543300  1
  O  O36  1  0.82055400  0.34120900  0.93867500  1
  O  O37  1  0.32384400  0.34190700  0.43782900  1
  O  O38  1  0.14823000  0.99418600  0.61039500  1
  O  O39  1  0.64668600  0.99278800  0.11160700  1
  O  O40  1  0.59180700  0.48569800  0.14527600  1
  O  O41  1  0.14417100  0.50104000  0.63280600  1
  O  O42  1  0.81087700  0.84611600  0.95448000  1
  O  O43  1  0.31251400  0.83354300  0.46609500  1
  O  O44  1  0.35689400  0.50101200  0.86615900  1
  O  O45  1  0.89402700  0.48567500  0.36889200  1
  O  O46  1  0.52108800  0.83355900  0.70034000  1
  O  O47  1  0.03507200  0.84609800  0.19947700  1
