# generated using pymatgen
data_K3CoPCO7
_symmetry_space_group_name_H-M   'P 1'
_cell_length_a   6.98443869
_cell_length_b   11.29467755
_cell_length_c   9.59126752
_cell_angle_alpha   90.02074654
_cell_angle_beta   89.95143763
_cell_angle_gamma   90.02622654
_symmetry_Int_Tables_number   1
_chemical_formula_structural   K3CoPCO7
_chemical_formula_sum   'K12 Co4 P4 C4 O28'
_cell_volume   756.62575603
_cell_formula_units_Z   4
loop_
 _symmetry_equiv_pos_site_id
 _symmetry_equiv_pos_as_xyz
  1  'x, y, z'
loop_
 _atom_site_type_symbol
 _atom_site_label
 _atom_site_symmetry_multiplicity
 _atom_site_fract_x
 _atom_site_fract_y
 _atom_site_fract_z
 _atom_site_occupancy
  K  K0  1  0.24973900  0.37831500  0.07188200  1
  K  K1  1  0.24879000  0.87836500  0.07107900  1
  K  K2  1  0.75153000  0.12223000  0.92949800  1
  K  K3  1  0.74978900  0.62175900  0.92836200  1
  K  K4  1  0.00988300  0.12974600  0.28937700  1
  K  K5  1  0.01086500  0.62645900  0.28757800  1
  K  K6  1  0.48934900  0.12685600  0.28883100  1
  K  K7  1  0.48841900  0.62794900  0.28769200  1
  K  K8  1  0.51053200  0.37153900  0.71379500  1
  K  K9  1  0.51150600  0.87220900  0.71123500  1
  K  K10  1  0.98935200  0.37207700  0.71147600  1
  K  K11  1  0.98968000  0.87271300  0.71082400  1
  Co  Co12  1  0.75164800  0.87978200  0.35041800  1
  Co  Co13  1  0.25074100  0.61956700  0.64874600  1
  Co  Co14  1  0.74195700  0.38132700  0.35472100  1
  Co  Co15  1  0.25019600  0.11981500  0.64840000  1
  P  P16  1  0.25011600  0.36685300  0.42047000  1
  P  P17  1  0.25071300  0.86654600  0.41982400  1
  P  P18  1  0.74993300  0.13256000  0.58001000  1
  P  P19  1  0.75064100  0.63330300  0.57929600  1
  C  C20  1  0.74913500  0.37264300  0.08440900  1
  C  C21  1  0.75037400  0.87205600  0.08349700  1
  C  C22  1  0.25011300  0.12801500  0.91612700  1
  C  C23  1  0.24980000  0.62807900  0.91580000  1
  O  O24  1  0.25099600  0.13015500  0.05044900  1
  O  O25  1  0.24904700  0.63057900  0.05007400  1
  O  O26  1  0.75087700  0.36977400  0.94994100  1
  O  O27  1  0.74949900  0.86992500  0.94919100  1
  O  O28  1  0.74415300  0.47273800  0.15295700  1
  O  O29  1  0.75016600  0.97178400  0.15325300  1
  O  O30  1  0.24689200  0.02830500  0.84640900  1
  O  O31  1  0.25009600  0.52815500  0.84649000  1
  O  O32  1  0.75263800  0.27542000  0.15903700  1
  O  O33  1  0.75164600  0.77466100  0.15785100  1
  O  O34  1  0.25229100  0.22541700  0.84181300  1
  O  O35  1  0.25028400  0.72527800  0.84105500  1
  O  O36  1  0.24919900  0.24055100  0.48732000  1
  O  O37  1  0.25025800  0.74053100  0.48692600  1
  O  O38  1  0.75003000  0.25778600  0.51053700  1
  O  O39  1  0.75055800  0.75931700  0.51259000  1
  O  O40  1  0.74975100  0.03554200  0.46560700  1
  O  O41  1  0.74968500  0.53745500  0.46307400  1
  O  O42  1  0.25217000  0.46220600  0.53706700  1
  O  O43  1  0.25117800  0.96282000  0.53540800  1
  O  O44  1  0.06969800  0.38097200  0.32653800  1
  O  O45  1  0.06911300  0.87968400  0.32577800  1
  O  O46  1  0.43168100  0.37950900  0.32590400  1
  O  O47  1  0.43190300  0.87907700  0.32506000  1
  O  O48  1  0.56875100  0.12101200  0.67482900  1
  O  O49  1  0.56940100  0.61993700  0.67372500  1
  O  O50  1  0.93128900  0.12080300  0.67437500  1
  O  O51  1  0.93194600  0.61984400  0.67339400  1
