# generated using pymatgen
data_Mg3Co2O7
_symmetry_space_group_name_H-M   'P 1'
_cell_length_a   5.01401396
_cell_length_b   9.07598603
_cell_length_c   5.32471038
_cell_angle_alpha   90.34805258
_cell_angle_beta   89.97459154
_cell_angle_gamma   106.01335156
_symmetry_Int_Tables_number   1
_chemical_formula_structural   Mg3Co2O7
_chemical_formula_sum   'Mg6 Co4 O14'
_cell_volume   232.90541361
_cell_formula_units_Z   2
loop_
 _symmetry_equiv_pos_site_id
 _symmetry_equiv_pos_as_xyz
  1  'x, y, z'
loop_
 _atom_site_type_symbol
 _atom_site_label
 _atom_site_symmetry_multiplicity
 _atom_site_fract_x
 _atom_site_fract_y
 _atom_site_fract_z
 _atom_site_occupancy
  Mg  Mg0  1  0.76664800  0.99380400  0.67290000  1
  Mg  Mg1  1  0.22732100  0.99390100  0.17292800  1
  Mg  Mg2  1  0.56436000  0.61764300  0.83027800  1
  Mg  Mg3  1  0.43255000  0.38698600  0.33369700  1
  Mg  Mg4  1  0.95446500  0.38706700  0.83364100  1
  Mg  Mg5  1  0.05332400  0.61764900  0.33028000  1
  Co  Co6  1  0.64562300  0.79482000  0.25091000  1
  Co  Co7  1  0.84826400  0.20475600  0.25166100  1
  Co  Co8  1  0.35647500  0.20475600  0.75165300  1
  Co  Co9  1  0.14918500  0.79482300  0.75090900  1
  O  O10  1  0.38352400  0.99515800  0.80562600  1
  O  O11  1  0.61161700  0.99513900  0.30566200  1
  O  O12  1  0.93019900  0.59478500  0.70607400  1
  O  O13  1  0.07249000  0.41117700  0.20305100  1
  O  O14  1  0.66456800  0.59475700  0.20616400  1
  O  O15  1  0.33867600  0.41120400  0.70309600  1
  O  O16  1  0.31110600  0.73067500  0.04678100  1
  O  O17  1  0.67460800  0.26265400  0.57060600  1
  O  O18  1  0.41963500  0.73071200  0.54679700  1
  O  O19  1  0.58798000  0.26258500  0.07060000  1
  O  O20  1  0.86715400  0.85134000  0.94439500  1
  O  O21  1  0.12843100  0.15612900  0.40396300  1
  O  O22  1  0.02764400  0.15608700  0.90396200  1
  O  O23  1  0.98415100  0.85139100  0.44437500  1
