# generated using pymatgen
data_Na3CoBPO7
_symmetry_space_group_name_H-M   'P 1'
_cell_length_a   6.66243581
_cell_length_b   10.51912529
_cell_length_c   8.92437668
_cell_angle_alpha   88.21005436
_cell_angle_beta   90.06334209
_cell_angle_gamma   90.23111501
_symmetry_Int_Tables_number   1
_chemical_formula_structural   Na3CoBPO7
_chemical_formula_sum   'Na12 Co4 B4 P4 O28'
_cell_volume   625.13649595
_cell_formula_units_Z   4
loop_
 _symmetry_equiv_pos_site_id
 _symmetry_equiv_pos_as_xyz
  1  'x, y, z'
loop_
 _atom_site_type_symbol
 _atom_site_label
 _atom_site_symmetry_multiplicity
 _atom_site_fract_x
 _atom_site_fract_y
 _atom_site_fract_z
 _atom_site_occupancy
  Na  Na0  1  0.25074200  0.37841600  0.07566800  1
  Na  Na1  1  0.25301000  0.87908700  0.07574800  1
  Na  Na2  1  0.74779900  0.12144100  0.92405400  1
  Na  Na3  1  0.75139800  0.62120400  0.92388400  1
  Na  Na4  1  0.00112700  0.12308800  0.25732700  1
  Na  Na5  1  0.00346100  0.62359700  0.25859200  1
  Na  Na6  1  0.49687300  0.12366100  0.25828900  1
  Na  Na7  1  0.49754500  0.62349600  0.25783200  1
  Na  Na8  1  0.50288200  0.37461100  0.74052700  1
  Na  Na9  1  0.50351900  0.87789300  0.74257300  1
  Na  Na10  1  0.99714900  0.37740000  0.74296300  1
  Na  Na11  1  0.99777900  0.87399700  0.74081900  1
  Co  Co12  1  0.75402900  0.88531500  0.33904700  1
  Co  Co13  1  0.24438200  0.11378200  0.66076400  1
  Co  Co14  1  0.75456100  0.38622400  0.33928800  1
  Co  Co15  1  0.25591900  0.61373900  0.66086100  1
  B  B16  1  0.74737100  0.36427100  0.06640100  1
  B  B17  1  0.75007900  0.86476400  0.06594500  1
  B  B18  1  0.25106500  0.13591700  0.93362700  1
  B  B19  1  0.24791300  0.63604100  0.93369100  1
  P  P20  1  0.24982000  0.35832400  0.42350600  1
  P  P21  1  0.25188800  0.85841100  0.42340600  1
  P  P22  1  0.74921300  0.14132100  0.57657200  1
  P  P23  1  0.75120300  0.64197400  0.57683700  1
  O  O24  1  0.24797300  0.14574700  0.08345900  1
  O  O25  1  0.24970200  0.64605600  0.08357400  1
  O  O26  1  0.74883000  0.35421400  0.91657100  1
  O  O27  1  0.75189200  0.85284200  0.91646900  1
  O  O28  1  0.74326000  0.48068400  0.14009800  1
  O  O29  1  0.74529800  0.98113300  0.13859000  1
  O  O30  1  0.25626700  0.01961300  0.85980100  1
  O  O31  1  0.24323200  0.51961700  0.86005200  1
  O  O32  1  0.74875500  0.26182700  0.16941200  1
  O  O33  1  0.75201600  0.76260500  0.17022800  1
  O  O34  1  0.25028900  0.23845800  0.83075400  1
  O  O35  1  0.24971200  0.73849100  0.83077500  1
  O  O36  1  0.24786700  0.21186500  0.46719700  1
  O  O37  1  0.25184900  0.71194500  0.46697100  1
  O  O38  1  0.75085200  0.28774400  0.53244300  1
  O  O39  1  0.75336900  0.78858800  0.53403500  1
  O  O40  1  0.75033800  0.06441300  0.43267600  1
  O  O41  1  0.74960400  0.56576200  0.43229800  1
  O  O42  1  0.25036500  0.43468000  0.56779000  1
  O  O43  1  0.25030500  0.93467000  0.56781100  1
  O  O44  1  0.06274200  0.38835400  0.32359300  1
  O  O45  1  0.06486500  0.88804300  0.32348500  1
  O  O46  1  0.43430400  0.38891400  0.32268800  1
  O  O47  1  0.43642800  0.89001300  0.32278700  1
  O  O48  1  0.56471400  0.11124200  0.67752000  1
  O  O49  1  0.56331800  0.61295300  0.67643000  1
  O  O50  1  0.93622700  0.11164000  0.67662400  1
  O  O51  1  0.93489700  0.60991400  0.67765100  1
