# generated using pymatgen
data_Li7Mn4CoO12
_symmetry_space_group_name_H-M   'P 1'
_cell_length_a   5.08488983
_cell_length_b   10.32993338
_cell_length_c   8.64715297
_cell_angle_alpha   90.27782869
_cell_angle_beta   106.50517206
_cell_angle_gamma   97.86421682
_symmetry_Int_Tables_number   1
_chemical_formula_structural   Li7Mn4CoO12
_chemical_formula_sum   'Li14 Mn8 Co2 O24'
_cell_volume   430.93632050
_cell_formula_units_Z   2
loop_
 _symmetry_equiv_pos_site_id
 _symmetry_equiv_pos_as_xyz
  1  'x, y, z'
loop_
 _atom_site_type_symbol
 _atom_site_label
 _atom_site_symmetry_multiplicity
 _atom_site_fract_x
 _atom_site_fract_y
 _atom_site_fract_z
 _atom_site_occupancy
  Li  Li0  1  0.99794800  0.25140400  0.83333400  1
  Li  Li1  1  0.00142000  0.74903500  0.83060400  1
  Li  Li2  1  0.47644100  0.12511500  0.91061700  1
  Li  Li3  1  0.49491200  0.62824100  0.90898700  1
  Li  Li4  1  0.51551100  0.37627600  0.75279500  1
  Li  Li5  1  0.51197600  0.86932000  0.75075300  1
  Li  Li6  1  0.49742000  0.37701100  0.08201900  1
  Li  Li7  1  0.50156600  0.87609900  0.07877700  1
  Li  Li8  1  0.49062400  0.12132100  0.58428900  1
  Li  Li9  1  0.49999600  0.61530300  0.58927800  1
  Li  Li10  1  0.51406400  0.38526600  0.42063000  1
  Li  Li11  1  0.50453700  0.87668600  0.42081800  1
  Li  Li12  1  0.49799800  0.12399700  0.25128000  1
  Li  Li13  1  0.49242700  0.62003600  0.25205500  1
  Mn  Mn14  1  0.99225200  0.99821500  0.99651100  1
  Mn  Mn15  1  0.00688100  0.50374900  0.99973100  1
  Mn  Mn16  1  0.99967900  0.99932400  0.66590000  1
  Mn  Mn17  1  0.00298200  0.49968400  0.66785400  1
  Mn  Mn18  1  0.99601800  0.24911400  0.16434200  1
  Mn  Mn19  1  0.00127000  0.75185700  0.16242300  1
  Mn  Mn20  1  0.99915700  0.24919200  0.50317600  1
  Mn  Mn21  1  0.00257900  0.75005500  0.50302800  1
  Co  Co22  1  0.00444100  0.50043200  0.33514400  1
  Co  Co23  1  0.99507000  0.99721700  0.33225700  1
  O  O24  1  0.22977000  0.44929000  0.87452600  1
  O  O25  1  0.22468900  0.94722200  0.87050400  1
  O  O26  1  0.76869100  0.05043900  0.79542000  1
  O  O27  1  0.77894700  0.55503700  0.79781700  1
  O  O28  1  0.21233300  0.17042200  0.04480800  1
  O  O29  1  0.22434100  0.68187400  0.04757200  1
  O  O30  1  0.78045200  0.32532400  0.62330200  1
  O  O31  1  0.78413400  0.82479500  0.62238100  1
  O  O32  1  0.21724800  0.17408300  0.69668000  1
  O  O33  1  0.22728600  0.67575200  0.69598900  1
  O  O34  1  0.77910700  0.33159400  0.97440900  1
  O  O35  1  0.77848100  0.82124100  0.97008000  1
  O  O36  1  0.24211900  0.44049500  0.55372700  1
  O  O37  1  0.22913500  0.94749600  0.53861300  1
  O  O38  1  0.76450200  0.04945900  0.12604100  1
  O  O39  1  0.78206800  0.58090400  0.12048100  1
  O  O40  1  0.20839000  0.17331400  0.36722100  1
  O  O41  1  0.22734500  0.69799300  0.36668900  1
  O  O42  1  0.77081500  0.30586500  0.29557800  1
  O  O43  1  0.78633700  0.81933300  0.29411600  1
  O  O44  1  0.24390400  0.44455500  0.19638200  1
  O  O45  1  0.21340600  0.93106200  0.19958700  1
  O  O46  1  0.76682200  0.05035600  0.46053500  1
  O  O47  1  0.76251100  0.55814000  0.47094000  1
