# generated using pymatgen
data_Sr6Ti3FeO14
_symmetry_space_group_name_H-M   'P 1'
_cell_length_a   7.88738601
_cell_length_b   20.41959700
_cell_length_c   8.80683190
_cell_angle_alpha   90.00014895
_cell_angle_beta   63.39245160
_cell_angle_gamma   90.00021611
_symmetry_Int_Tables_number   1
_chemical_formula_structural   Sr6Ti3FeO14
_chemical_formula_sum   'Sr24 Ti12 Fe4 O56'
_cell_volume   1268.18832786
_cell_formula_units_Z   4
loop_
 _symmetry_equiv_pos_site_id
 _symmetry_equiv_pos_as_xyz
  1  'x, y, z'
loop_
 _atom_site_type_symbol
 _atom_site_label
 _atom_site_symmetry_multiplicity
 _atom_site_fract_x
 _atom_site_fract_y
 _atom_site_fract_z
 _atom_site_occupancy
  Sr  Sr0  1  0.37489600  0.18556800  0.75014400  1
  Sr  Sr1  1  0.12504900  0.18549500  0.24988600  1
  Sr  Sr2  1  0.87492900  0.18569800  0.75012800  1
  Sr  Sr3  1  0.62506000  0.18573500  0.24982800  1
  Sr  Sr4  1  0.74993100  0.68312900  0.50036600  1
  Sr  Sr5  1  0.50161800  0.68323200  0.99972100  1
  Sr  Sr6  1  0.24973300  0.68313400  0.50035900  1
  Sr  Sr7  1  0.99867300  0.68323500  0.99973500  1
  Sr  Sr8  1  0.74999700  0.31889300  0.50004800  1
  Sr  Sr9  1  0.50113200  0.31821400  0.00003400  1
  Sr  Sr10  1  0.25008300  0.31886600  0.49998600  1
  Sr  Sr11  1  0.99884800  0.31818700  0.99992700  1
  Sr  Sr12  1  0.37502100  0.81556500  0.74994100  1
  Sr  Sr13  1  0.12501500  0.81563100  0.24999000  1
  Sr  Sr14  1  0.87504100  0.81528200  0.74992600  1
  Sr  Sr15  1  0.62488100  0.81530900  0.25022100  1
  Sr  Sr16  1  0.37501600  0.00039700  0.74991100  1
  Sr  Sr17  1  0.12496500  0.00037700  0.25005100  1
  Sr  Sr18  1  0.87501000  0.00039800  0.74998200  1
  Sr  Sr19  1  0.62493300  0.00041800  0.25009400  1
  Sr  Sr20  1  0.74987500  0.49648900  0.49994600  1
  Sr  Sr21  1  0.49925300  0.49703300  0.00007500  1
  Sr  Sr22  1  0.25020500  0.49648000  0.49992300  1
  Sr  Sr23  1  0.00070300  0.49706000  0.00010900  1
  Ti  Ti24  1  0.74997400  0.90224200  0.50005100  1
  Ti  Ti25  1  0.50005000  0.90224600  0.00003300  1
  Ti  Ti26  1  0.24998000  0.90224800  0.50004700  1
  Ti  Ti27  1  0.99992800  0.90224100  0.00004200  1
  Ti  Ti28  1  0.74994300  0.09879100  0.49995900  1
  Ti  Ti29  1  0.49989300  0.09868900  0.99999700  1
  Ti  Ti30  1  0.25006900  0.09878800  0.49994300  1
  Ti  Ti31  1  0.00001500  0.09867700  0.00002600  1
  Ti  Ti32  1  0.37508500  0.59724800  0.74983700  1
  Ti  Ti33  1  0.12490600  0.59745100  0.25024100  1
  Ti  Ti34  1  0.87474200  0.59592800  0.75056100  1
  Ti  Ti35  1  0.62521400  0.59614500  0.24961100  1
  Fe  Fe36  1  0.37532100  0.40279000  0.74953300  1
  Fe  Fe37  1  0.12464300  0.40274900  0.25059600  1
  Fe  Fe38  1  0.87517900  0.40221500  0.74999000  1
  Fe  Fe39  1  0.62502000  0.40224200  0.24975800  1
  O  O40  1  0.37439000  0.30765600  0.75130400  1
  O  O41  1  0.12562100  0.30764200  0.24900500  1
  O  O42  1  0.87367300  0.30579100  0.75260100  1
  O  O43  1  0.62631200  0.30594200  0.24717200  1
  O  O44  1  0.74999600  0.80563200  0.49995100  1
  O  O45  1  0.49961700  0.80558300  0.00005400  1
  O  O46  1  0.25003600  0.80563100  0.49994900  1
  O  O47  1  0.00031000  0.80558500  0.00005100  1
  O  O48  1  0.74993600  0.19484200  0.49983400  1
  O  O49  1  0.49865300  0.19453700  0.00017700  1
  O  O50  1  0.25018300  0.19482400  0.49983300  1
  O  O51  1  0.00118900  0.19453700  0.00022000  1
  O  O52  1  0.37520200  0.69273000  0.74962100  1
  O  O53  1  0.12494000  0.69274700  0.25017700  1
  O  O54  1  0.87554700  0.69317600  0.74895200  1
  O  O55  1  0.62435200  0.69304300  0.25133200  1
  O  O56  1  0.75003500  0.00020900  0.50001100  1
  O  O57  1  0.49999700  0.00011500  0.00000100  1
  O  O58  1  0.24992900  0.00020400  0.49999800  1
  O  O59  1  0.99998700  0.00011900  0.00000900  1
  O  O60  1  0.37434400  0.49810100  0.75126900  1
  O  O61  1  0.12562400  0.49802100  0.24845500  1
  O  O62  1  0.87400200  0.49981900  0.75200000  1
  O  O63  1  0.62607900  0.49964500  0.24797600  1
  O  O64  1  0.61620100  0.40438300  0.75067800  1
  O  O65  1  0.36678600  0.40429400  0.24951200  1
  O  O66  1  0.13329400  0.40435800  0.75026600  1
  O  O67  1  0.88394900  0.40419400  0.24915000  1
  O  O68  1  0.50149600  0.40438300  0.49704100  1
  O  O69  1  0.24989500  0.40387900  0.99999400  1
  O  O70  1  0.99877100  0.40446500  0.50268300  1
  O  O71  1  0.75001100  0.40400400  0.00005500  1
  O  O72  1  0.49997600  0.90348900  0.50003100  1
  O  O73  1  0.24998600  0.90345200  0.00000800  1
  O  O74  1  0.00001500  0.90347900  0.49995500  1
  O  O75  1  0.74996800  0.90342800  0.00005600  1
  O  O76  1  0.62490400  0.90346500  0.74999200  1
  O  O77  1  0.37485700  0.90347000  0.25001700  1
  O  O78  1  0.12508700  0.90346800  0.74999600  1
  O  O79  1  0.87511700  0.90347400  0.25002000  1
  O  O80  1  0.49992900  0.09709300  0.50010800  1
  O  O81  1  0.25001800  0.09685100  0.99996200  1
  O  O82  1  0.00003900  0.09711200  0.49987400  1
  O  O83  1  0.74996000  0.09701100  0.00006600  1
  O  O84  1  0.62472400  0.09703600  0.74996400  1
  O  O85  1  0.37461300  0.09696100  0.25004300  1
  O  O86  1  0.12527300  0.09703900  0.74996800  1
  O  O87  1  0.87530900  0.09696100  0.25004800  1
  O  O88  1  0.62458400  0.59568600  0.75007900  1
  O  O89  1  0.37464300  0.59556900  0.24991300  1
  O  O90  1  0.12534200  0.59569600  0.75010400  1
  O  O91  1  0.87543200  0.59559900  0.24993400  1
  O  O92  1  0.49960600  0.59518100  0.50079700  1
  O  O93  1  0.25000700  0.59575400  0.99998500  1
  O  O94  1  0.00045900  0.59539200  0.49914900  1
  O  O95  1  0.74997000  0.59673300  0.00005100  1
