# generated using pymatgen
data_SrZnCr(PO4)2
_symmetry_space_group_name_H-M   'P 1'
_cell_length_a   5.60995074
_cell_length_b   6.95922212
_cell_length_c   9.39964014
_cell_angle_alpha   109.39576169
_cell_angle_beta   102.65584339
_cell_angle_gamma   98.79594197
_symmetry_Int_Tables_number   1
_chemical_formula_structural   SrZnCr(PO4)2
_chemical_formula_sum   'Sr2 Zn2 Cr2 P4 O16'
_cell_volume   327.42262607
_cell_formula_units_Z   2
loop_
 _symmetry_equiv_pos_site_id
 _symmetry_equiv_pos_as_xyz
  1  'x, y, z'
loop_
 _atom_site_type_symbol
 _atom_site_label
 _atom_site_symmetry_multiplicity
 _atom_site_fract_x
 _atom_site_fract_y
 _atom_site_fract_z
 _atom_site_occupancy
  Sr  Sr0  1  0.25250700  0.79985500  0.05307400  1
  Sr  Sr1  1  0.74749300  0.20014500  0.94692600  1
  Zn  Zn2  1  0.99602000  0.37994800  0.64142100  1
  Zn  Zn3  1  0.00398000  0.62005200  0.35857900  1
  Cr  Cr4  1  0.63592100  0.84021500  0.54659500  1
  Cr  Cr5  1  0.36407900  0.15978500  0.45340500  1
  P  P6  1  0.39033400  0.42137600  0.23223300  1
  P  P7  1  0.60966600  0.57862400  0.76776700  1
  P  P8  1  0.83457600  0.01983600  0.29634300  1
  P  P9  1  0.16542400  0.98016400  0.70365700  1
  O  O10  1  0.80868700  0.56389000  0.90250700  1
  O  O11  1  0.66093800  0.47939600  0.21655900  1
  O  O12  1  0.65918700  0.79769500  0.75775700  1
  O  O13  1  0.94827600  0.10338000  0.68843400  1
  O  O14  1  0.33906200  0.52060400  0.78344100  1
  O  O15  1  0.03822400  0.74726000  0.58910500  1
  O  O16  1  0.96177600  0.25274000  0.41089500  1
  O  O17  1  0.26641400  0.00374900  0.87394600  1
  O  O18  1  0.34081300  0.20230500  0.24224300  1
  O  O19  1  0.73358600  0.99625100  0.12605500  1
  O  O20  1  0.19131300  0.43611000  0.09749300  1
  O  O21  1  0.35796200  0.58228600  0.38914000  1
  O  O22  1  0.64203800  0.41771400  0.61086000  1
  O  O23  1  0.61816200  0.92471600  0.35109500  1
  O  O24  1  0.05172400  0.89662000  0.31156600  1
  O  O25  1  0.38183800  0.07528400  0.64890500  1
