# generated using pymatgen
data_SrCaCr(PO4)2
_symmetry_space_group_name_H-M   'P 1'
_cell_length_a   5.91835400
_cell_length_b   6.93159781
_cell_length_c   9.46016393
_cell_angle_alpha   108.95425732
_cell_angle_beta   102.37072957
_cell_angle_gamma   98.57024117
_symmetry_Int_Tables_number   1
_chemical_formula_structural   SrCaCr(PO4)2
_chemical_formula_sum   'Sr2 Ca2 Cr2 P4 O16'
_cell_volume   348.34264597
_cell_formula_units_Z   2
loop_
 _symmetry_equiv_pos_site_id
 _symmetry_equiv_pos_as_xyz
  1  'x, y, z'
loop_
 _atom_site_type_symbol
 _atom_site_label
 _atom_site_symmetry_multiplicity
 _atom_site_fract_x
 _atom_site_fract_y
 _atom_site_fract_z
 _atom_site_occupancy
  Sr  Sr0  1  0.27659200  0.81027500  0.06172500  1
  Sr  Sr1  1  0.72340800  0.18972500  0.93827500  1
  Ca  Ca2  1  0.00109500  0.41900400  0.66374200  1
  Ca  Ca3  1  0.99890500  0.58099600  0.33625800  1
  Cr  Cr4  1  0.65502800  0.84366300  0.54848300  1
  Cr  Cr5  1  0.34497200  0.15633700  0.45151700  1
  P  P6  1  0.38829700  0.41623700  0.22706300  1
  P  P7  1  0.61170300  0.58376300  0.77293700  1
  P  P8  1  0.83893700  0.02853200  0.29332400  1
  P  P9  1  0.16106300  0.97146800  0.70667600  1
  O  O10  1  0.84005300  0.56347900  0.88124800  1
  O  O11  1  0.61308600  0.45311200  0.17241200  1
  O  O12  1  0.65323100  0.80035400  0.75536400  1
  O  O13  1  0.95286000  0.09108700  0.69415700  1
  O  O14  1  0.38691400  0.54688800  0.82758800  1
  O  O15  1  0.04604800  0.73521600  0.60272900  1
  O  O16  1  0.95395200  0.26478400  0.39727100  1
  O  O17  1  0.27414600  0.00573500  0.87705100  1
  O  O18  1  0.34676900  0.19964600  0.24463600  1
  O  O19  1  0.72585400  0.99426500  0.12294900  1
  O  O20  1  0.15994700  0.43652100  0.11875200  1
  O  O21  1  0.40836200  0.58637400  0.38964000  1
  O  O22  1  0.59163800  0.41362600  0.61036000  1
  O  O23  1  0.64656100  0.93828900  0.35998400  1
  O  O24  1  0.04714000  0.90891300  0.30584300  1
  O  O25  1  0.35343900  0.06171100  0.64001600  1
