# generated using pymatgen
data_Li4V3Sn3(SbO8)2
_symmetry_space_group_name_H-M   'P 1'
_cell_length_a   6.25910423
_cell_length_b   10.78674786
_cell_length_c   10.26740743
_cell_angle_alpha   90.25041243
_cell_angle_beta   89.54151583
_cell_angle_gamma   90.53502581
_symmetry_Int_Tables_number   1
_chemical_formula_structural   Li4V3Sn3(SbO8)2
_chemical_formula_sum   'Li8 V6 Sn6 Sb4 O32'
_cell_volume   693.14909257
_cell_formula_units_Z   2
loop_
 _symmetry_equiv_pos_site_id
 _symmetry_equiv_pos_as_xyz
  1  'x, y, z'
loop_
 _atom_site_type_symbol
 _atom_site_label
 _atom_site_symmetry_multiplicity
 _atom_site_fract_x
 _atom_site_fract_y
 _atom_site_fract_z
 _atom_site_occupancy
  Li  Li0  1  0.50989300  0.16566400  0.89114200  1
  Li  Li1  1  0.00248900  0.66368100  0.89298500  1
  Li  Li2  1  0.98806300  0.00379400  0.99144300  1
  Li  Li3  1  0.48814100  0.50405700  0.99380900  1
  Li  Li4  1  0.99422200  0.00242100  0.49772800  1
  Li  Li5  1  0.49149400  0.50228400  0.49902100  1
  Li  Li6  1  0.49449200  0.83287000  0.39896600  1
  Li  Li7  1  0.00081900  0.33541800  0.39572200  1
  V  V8  1  0.74657600  0.08490300  0.21644900  1
  V  V9  1  0.24563200  0.58434900  0.21686300  1
  V  V10  1  0.25010100  0.41436400  0.71867100  1
  V  V11  1  0.74322700  0.91493500  0.71264200  1
  V  V12  1  0.49812100  0.66950800  0.71704600  1
  V  V13  1  0.00129200  0.16850200  0.71264600  1
  Sn  Sn14  1  0.49934100  0.33134500  0.21586900  1
  Sn  Sn15  1  0.00107700  0.83236400  0.21487200  1
  Sn  Sn16  1  0.25288000  0.08445300  0.21569700  1
  Sn  Sn17  1  0.75156200  0.58283900  0.21536700  1
  Sn  Sn18  1  0.24704700  0.91428800  0.71658500  1
  Sn  Sn19  1  0.75665300  0.41866300  0.71467400  1
  Sb  Sb20  1  0.50753100  0.16441800  0.50051300  1
  Sb  Sb21  1  0.99482300  0.66832400  0.49668300  1
  Sb  Sb22  1  0.50323000  0.83180200  0.99100900  1
  Sb  Sb23  1  0.00495300  0.33193200  0.99254700  1
  O  O24  1  0.49751100  0.34930500  0.60451200  1
  O  O25  1  0.98685700  0.84494600  0.60077600  1
  O  O26  1  0.26826300  0.24365000  0.33444500  1
  O  O27  1  0.77533600  0.74128600  0.34352400  1
  O  O28  1  0.49739100  0.16729500  0.10315200  1
  O  O29  1  0.99488200  0.66810600  0.10403200  1
  O  O30  1  0.49960100  0.49944700  0.31850700  1
  O  O31  1  0.00046100  0.99995500  0.31748900  1
  O  O32  1  0.99798500  0.99827000  0.81329800  1
  O  O33  1  0.50291300  0.50115700  0.81562900  1
  O  O34  1  0.22976800  0.07825100  0.60381200  1
  O  O35  1  0.72240700  0.58346600  0.60123200  1
  O  O36  1  0.73213500  0.24211200  0.32523600  1
  O  O37  1  0.22881200  0.74244600  0.32637000  1
  O  O38  1  0.50381400  0.01356500  0.32760900  1
  O  O39  1  0.00079800  0.51413700  0.32505500  1
  O  O40  1  0.23038300  0.92400200  0.09521200  1
  O  O41  1  0.73008300  0.42242800  0.09503500  1
  O  O42  1  0.77526800  0.07504700  0.60981800  1
  O  O43  1  0.28612700  0.57187600  0.62269600  1
  O  O44  1  0.50588600  0.98156000  0.83016500  1
  O  O45  1  0.01475100  0.48595000  0.82955900  1
  O  O46  1  0.27548800  0.75062400  0.83068000  1
  O  O47  1  0.78275700  0.25595300  0.82831700  1
  O  O48  1  0.48707300  0.82424600  0.60847000  1
  O  O49  1  0.01302300  0.34335000  0.60809200  1
  O  O50  1  0.76856000  0.92446900  0.10657200  1
  O  O51  1  0.26963700  0.42619900  0.10635000  1
  O  O52  1  0.71395400  0.74652500  0.81911800  1
  O  O53  1  0.24129200  0.26852000  0.81902800  1
  O  O54  1  0.49694900  0.65239700  0.10816100  1
  O  O55  1  0.99647700  0.15258100  0.10477600  1
