# generated using pymatgen
data_Li2Fe2P4H3O16
_symmetry_space_group_name_H-M   'P 1'
_cell_length_a   4.98629187
_cell_length_b   8.26894220
_cell_length_c   7.41273512
_cell_angle_alpha   90.32145944
_cell_angle_beta   103.97010808
_cell_angle_gamma   87.89137195
_symmetry_Int_Tables_number   1
_chemical_formula_structural   Li2Fe2P4H3O16
_chemical_formula_sum   'Li2 Fe2 P4 H3 O16'
_cell_volume   296.39442675
_cell_formula_units_Z   1
loop_
 _symmetry_equiv_pos_site_id
 _symmetry_equiv_pos_as_xyz
  1  'x, y, z'
loop_
 _atom_site_type_symbol
 _atom_site_label
 _atom_site_symmetry_multiplicity
 _atom_site_fract_x
 _atom_site_fract_y
 _atom_site_fract_z
 _atom_site_occupancy
  Li  Li0  1  0.34600300  0.84172500  0.83154100  1
  Li  Li1  1  0.64424000  0.15775800  0.17554200  1
  Fe  Fe2  1  0.49714900  0.50060900  0.00150000  1
  Fe  Fe3  1  0.00306300  0.99813000  0.49951400  1
  P  P4  1  0.12186900  0.34261000  0.26129900  1
  P  P5  1  0.39573900  0.84453600  0.23388300  1
  P  P6  1  0.60255000  0.15572800  0.75695500  1
  P  P7  1  0.87178300  0.65778500  0.73905500  1
  H  H8  1  0.32414900  0.40738200  0.55454600  1
  H  H9  1  0.67577100  0.59859600  0.44141300  1
  H  H10  1  0.95294900  0.01826800  0.97756800  1
  O  O11  1  0.94577600  0.82448600  0.67721000  1
  O  O12  1  0.12918100  0.57224100  0.85953700  1
  O  O13  1  0.23267500  0.84378400  0.38727600  1
  O  O14  1  0.22173300  0.45599400  0.43418300  1
  O  O15  1  0.35534700  0.04341300  0.69360000  1
  O  O16  1  0.49800100  0.32754900  0.79080100  1
  O  O17  1  0.23101700  0.91695400  0.04950700  1
  O  O18  1  0.35288600  0.32648300  0.15370800  1
  O  O19  1  0.64344500  0.67366800  0.84884400  1
  O  O20  1  0.77012500  0.08593800  0.95223100  1
  O  O21  1  0.50326700  0.66854700  0.21115600  1
  O  O22  1  0.65153100  0.95139700  0.30892400  1
  O  O23  1  0.76233100  0.54770500  0.56451600  1
  O  O24  1  0.77760900  0.15551500  0.61410500  1
  O  O25  1  0.86448800  0.42518300  0.13820800  1
  O  O26  1  0.05148700  0.17604300  0.32536300  1
