# generated using pymatgen
data_Mg2V3O8
_symmetry_space_group_name_H-M   'P 1'
_cell_length_a   5.90733236
_cell_length_b   5.90733236
_cell_length_c   9.52168700
_cell_angle_alpha   90.00000000
_cell_angle_beta   90.00000000
_cell_angle_gamma   120.00000407
_symmetry_Int_Tables_number   1
_chemical_formula_structural   Mg2V3O8
_chemical_formula_sum   'Mg4 V6 O16'
_cell_volume   287.75794766
_cell_formula_units_Z   2
loop_
 _symmetry_equiv_pos_site_id
 _symmetry_equiv_pos_as_xyz
  1  'x, y, z'
loop_
 _atom_site_type_symbol
 _atom_site_label
 _atom_site_symmetry_multiplicity
 _atom_site_fract_x
 _atom_site_fract_y
 _atom_site_fract_z
 _atom_site_occupancy
  Mg  Mg0  1  0.66666700  0.33333300  0.02059000  1
  Mg  Mg1  1  0.33333300  0.66666700  0.52059000  1
  Mg  Mg2  1  0.66666700  0.33333300  0.42149400  1
  Mg  Mg3  1  0.33333300  0.66666700  0.92149400  1
  V  V4  1  0.67487600  0.83743800  0.24376200  1
  V  V5  1  0.83743800  0.16256200  0.74376200  1
  V  V6  1  0.16256200  0.32512400  0.24376200  1
  V  V7  1  0.83743800  0.67487600  0.74376200  1
  V  V8  1  0.32512400  0.16256200  0.74376200  1
  V  V9  1  0.16256200  0.83743800  0.24376200  1
  O  O10  1  0.83523800  0.16476200  0.14772200  1
  O  O11  1  0.67047600  0.83523800  0.64772200  1
  O  O12  1  0.16476200  0.32952400  0.64772200  1
  O  O13  1  0.83523800  0.67047600  0.14772200  1
  O  O14  1  0.32952400  0.16476200  0.14772200  1
  O  O15  1  0.16476200  0.83523800  0.64772200  1
  O  O16  1  0.51796000  0.48204000  0.86372500  1
  O  O17  1  0.03591900  0.51796000  0.36372500  1
  O  O18  1  0.48204000  0.96408100  0.36372500  1
  O  O19  1  0.51796000  0.03591900  0.86372500  1
  O  O20  1  0.00000000  0.00000000  0.35417400  1
  O  O21  1  0.00000000  0.00000000  0.85417400  1
  O  O22  1  0.33333300  0.66666700  0.13161800  1
  O  O23  1  0.96408100  0.48204000  0.86372500  1
  O  O24  1  0.48204000  0.51796000  0.36372500  1
  O  O25  1  0.66666700  0.33333300  0.63161800  1
