# generated using pymatgen
data_LiCrPO4
_symmetry_space_group_name_H-M   'P 1'
_cell_length_a   4.80284023
_cell_length_b   6.36322281
_cell_length_c   10.30200401
_cell_angle_alpha   89.99919341
_cell_angle_beta   89.99720063
_cell_angle_gamma   90.27865344
_symmetry_Int_Tables_number   1
_chemical_formula_structural   LiCrPO4
_chemical_formula_sum   'Li4 Cr4 P4 O16'
_cell_volume   314.84140910
_cell_formula_units_Z   4
loop_
 _symmetry_equiv_pos_site_id
 _symmetry_equiv_pos_as_xyz
  1  'x, y, z'
loop_
 _atom_site_type_symbol
 _atom_site_label
 _atom_site_symmetry_multiplicity
 _atom_site_fract_x
 _atom_site_fract_y
 _atom_site_fract_z
 _atom_site_occupancy
  Li  Li0  1  0.22359500  0.28206500  0.30822100  1
  Li  Li1  1  0.77613200  0.71795400  0.80821600  1
  Li  Li2  1  0.71206000  0.22421500  0.78209700  1
  Li  Li3  1  0.28785300  0.77553100  0.28208300  1
  Cr  Cr4  1  0.79706200  0.49236900  0.07938600  1
  Cr  Cr5  1  0.20273200  0.50741100  0.57940800  1
  Cr  Cr6  1  0.30427200  0.99555900  0.01332400  1
  Cr  Cr7  1  0.69598800  0.00432100  0.51325200  1
  P  P8  1  0.85365900  0.01717400  0.20547400  1
  P  P9  1  0.14637200  0.98285700  0.70553500  1
  P  P10  1  0.34332100  0.48191700  0.88979600  1
  P  P11  1  0.65669100  0.51799800  0.38977400  1
  O  O12  1  0.94915400  0.01952800  0.35036500  1
  O  O13  1  0.05114100  0.98141800  0.85040500  1
  O  O14  1  0.53376300  0.00579700  0.18994700  1
  O  O15  1  0.46641800  0.99397100  0.68995400  1
  O  O16  1  0.00030700  0.17328400  0.63795600  1
  O  O17  1  0.99987900  0.82670500  0.13812200  1
  O  O18  1  0.98437200  0.22062600  0.14558400  1
  O  O19  1  0.01553400  0.77941100  0.64566700  1
  O  O20  1  0.47181000  0.27497100  0.94384300  1
  O  O21  1  0.52814500  0.72497100  0.44379100  1
  O  O22  1  0.55442200  0.50312500  0.24607200  1
  O  O23  1  0.44537800  0.49676400  0.74606200  1
  O  O24  1  0.02306000  0.49070500  0.90169200  1
  O  O25  1  0.97697400  0.50931500  0.40166700  1
  O  O26  1  0.50980000  0.33368100  0.46512100  1
  O  O27  1  0.49010500  0.66635500  0.96502400  1
