# generated using pymatgen
data_NaLi2FePCO7
_symmetry_space_group_name_H-M   'P 1'
_cell_length_a   5.06386532
_cell_length_b   11.22482520
_cell_length_c   10.67264271
_cell_angle_alpha   104.46992120
_cell_angle_beta   92.92328863
_cell_angle_gamma   86.98602994
_symmetry_Int_Tables_number   1
_chemical_formula_structural   NaLi2FePCO7
_chemical_formula_sum   'Na4 Li8 Fe4 P4 C4 O28'
_cell_volume   586.13798518
_cell_formula_units_Z   4
loop_
 _symmetry_equiv_pos_site_id
 _symmetry_equiv_pos_as_xyz
  1  'x, y, z'
loop_
 _atom_site_type_symbol
 _atom_site_label
 _atom_site_symmetry_multiplicity
 _atom_site_fract_x
 _atom_site_fract_y
 _atom_site_fract_z
 _atom_site_occupancy
  Na  Na0  1  0.25840000  0.37770800  0.12163700  1
  Na  Na1  1  0.25836200  0.87863000  0.62272300  1
  Na  Na2  1  0.74003500  0.62052000  0.87723900  1
  Na  Na3  1  0.73950000  0.12233100  0.37796100  1
  Li  Li4  1  0.76250700  0.15255300  0.05679300  1
  Li  Li5  1  0.76737700  0.64781600  0.55717300  1
  Li  Li6  1  0.23891600  0.85218400  0.94451600  1
  Li  Li7  1  0.23603100  0.34818100  0.44401500  1
  Li  Li8  1  0.23965500  0.16365800  0.87665100  1
  Li  Li9  1  0.24411800  0.66108200  0.37558200  1
  Li  Li10  1  0.75582700  0.83836900  0.12339400  1
  Li  Li11  1  0.74684700  0.34337400  0.62740700  1
  Fe  Fe12  1  0.78328700  0.05583700  0.71041200  1
  Fe  Fe13  1  0.21344100  0.44724800  0.78871200  1
  Fe  Fe14  1  0.78451900  0.55465600  0.20997000  1
  Fe  Fe15  1  0.21316300  0.94478700  0.29022000  1
  P  P16  1  0.71631700  0.32940800  0.91744700  1
  P  P17  1  0.71982300  0.82972900  0.41710400  1
  P  P18  1  0.28042400  0.66864300  0.08153800  1
  P  P19  1  0.27940500  0.17202000  0.58418900  1
  C  C20  1  0.71073700  0.40418900  0.36330500  1
  C  C21  1  0.71137100  0.90332500  0.86228000  1
  C  C22  1  0.29990300  0.59530600  0.63571600  1
  C  C23  1  0.28754100  0.09502400  0.13735600  1
  O  O24  1  0.36756200  0.16327300  0.06645600  1
  O  O25  1  0.37014200  0.66541700  0.56434400  1
  O  O26  1  0.63200900  0.83512900  0.93368100  1
  O  O27  1  0.63110400  0.33579300  0.43429000  1
  O  O28  1  0.95903300  0.41421700  0.34532700  1
  O  O29  1  0.95931300  0.91316900  0.84381600  1
  O  O30  1  0.05324400  0.58303700  0.65630000  1
  O  O31  1  0.03925700  0.08512700  0.15548200  1
  O  O32  1  0.53538800  0.46644800  0.30793000  1
  O  O33  1  0.53542200  0.96540200  0.80711700  1
  O  O34  1  0.48173600  0.53433800  0.68853300  1
  O  O35  1  0.46258000  0.03238100  0.19268400  1
  O  O36  1  0.83519200  0.19389200  0.89026900  1
  O  O37  1  0.83871800  0.69461600  0.39038600  1
  O  O38  1  0.15997200  0.80323600  0.10693400  1
  O  O39  1  0.16334400  0.30831600  0.61353200  1
  O  O40  1  0.78939700  0.38662700  0.06189100  1
  O  O41  1  0.79236700  0.88921500  0.56052400  1
  O  O42  1  0.21142700  0.60758900  0.93738300  1
  O  O43  1  0.20456100  0.11570800  0.44002500  1
  O  O44  1  0.40873300  0.32751000  0.89559100  1
  O  O45  1  0.41254900  0.82755300  0.39393000  1
  O  O46  1  0.58715400  0.67205600  0.10436900  1
  O  O47  1  0.58664900  0.17383700  0.60571400  1
  O  O48  1  0.16856200  0.59813900  0.17394100  1
  O  O49  1  0.16807000  0.10006900  0.67536500  1
  O  O50  1  0.82727500  0.40077500  0.82627100  1
  O  O51  1  0.83173200  0.90055300  0.32457400  1
