# generated using pymatgen
data_SmMo5O8
_symmetry_space_group_name_H-M   'P 1'
_cell_length_a   9.27803800
_cell_length_b   8.38617400
_cell_length_c   10.74734034
_cell_angle_alpha   70.79993100
_cell_angle_beta   90.00000000
_cell_angle_gamma   90.00000000
_symmetry_Int_Tables_number   1
_chemical_formula_structural   SmMo5O8
_chemical_formula_sum   'Sm4 Mo20 O32'
_cell_volume   789.70692722
_cell_formula_units_Z   4
loop_
 _symmetry_equiv_pos_site_id
 _symmetry_equiv_pos_as_xyz
  1  'x, y, z'
loop_
 _atom_site_type_symbol
 _atom_site_label
 _atom_site_symmetry_multiplicity
 _atom_site_fract_x
 _atom_site_fract_y
 _atom_site_fract_z
 _atom_site_occupancy
  Sm  Sm0  1  0.01488200  0.69462800  0.03838300  1
  Sm  Sm1  1  0.51488200  0.30537200  0.46161700  1
  Sm  Sm2  1  0.98511800  0.30537200  0.96161700  1
  Sm  Sm3  1  0.48511800  0.69462800  0.53838300  1
  Mo  Mo4  1  0.35412700  0.99053900  0.07812900  1
  Mo  Mo5  1  0.85412700  0.00946100  0.42187100  1
  Mo  Mo6  1  0.64587300  0.00946100  0.92187100  1
  Mo  Mo7  1  0.14587300  0.99053900  0.57812900  1
  Mo  Mo8  1  0.36056700  0.20326400  0.77209300  1
  Mo  Mo9  1  0.86056700  0.79673600  0.72790700  1
  Mo  Mo10  1  0.63943300  0.79673600  0.22790700  1
  Mo  Mo11  1  0.13943300  0.20326400  0.27209300  1
  Mo  Mo12  1  0.37520700  0.80174100  0.86361100  1
  Mo  Mo13  1  0.87520700  0.19825900  0.63638900  1
  Mo  Mo14  1  0.62479300  0.19825900  0.13638900  1
  Mo  Mo15  1  0.12479300  0.80174100  0.36361100  1
  Mo  Mo16  1  0.36093400  0.59793400  0.18856000  1
  Mo  Mo17  1  0.86093400  0.40206600  0.31144000  1
  Mo  Mo18  1  0.63906600  0.40206600  0.81144000  1
  Mo  Mo19  1  0.13906600  0.59793400  0.68856000  1
  Mo  Mo20  1  0.35179600  0.39063200  0.98201600  1
  Mo  Mo21  1  0.85179600  0.60936800  0.51798400  1
  Mo  Mo22  1  0.64820400  0.60936800  0.01798400  1
  Mo  Mo23  1  0.14820400  0.39063200  0.48201600  1
  O  O24  1  0.50202000  0.58040200  0.86571200  1
  O  O25  1  0.00202000  0.41959800  0.63428800  1
  O  O26  1  0.49798000  0.41959800  0.13428800  1
  O  O27  1  0.99798000  0.58040200  0.36571200  1
  O  O28  1  0.28212100  0.37506900  0.32658700  1
  O  O29  1  0.78212100  0.62493100  0.17341300  1
  O  O30  1  0.71787900  0.62493100  0.67341300  1
  O  O31  1  0.21787900  0.37506900  0.82658700  1
  O  O32  1  0.29374100  0.79205000  0.68210600  1
  O  O33  1  0.79374100  0.20795000  0.81789400  1
  O  O34  1  0.70625900  0.20795000  0.31789400  1
  O  O35  1  0.20625900  0.79205000  0.18210600  1
  O  O36  1  0.28955300  0.19007900  0.58974900  1
  O  O37  1  0.78955300  0.80992100  0.91025100  1
  O  O38  1  0.71044700  0.80992100  0.41025100  1
  O  O39  1  0.21044700  0.19007900  0.08974900  1
  O  O40  1  0.25083200  0.60388100  0.50953300  1
  O  O41  1  0.75083200  0.39611900  0.99046700  1
  O  O42  1  0.74916800  0.39611900  0.49046700  1
  O  O43  1  0.24916800  0.60388100  0.00953300  1
  O  O44  1  0.51128400  0.01243000  0.76856400  1
  O  O45  1  0.01128400  0.98757000  0.73143600  1
  O  O46  1  0.48871600  0.98757000  0.23143600  1
  O  O47  1  0.98871600  0.01243000  0.26856400  1
  O  O48  1  0.99928100  0.59441100  0.85397500  1
  O  O49  1  0.49928100  0.40558900  0.64602500  1
  O  O50  1  0.00071900  0.40558900  0.14602500  1
  O  O51  1  0.50071900  0.59441100  0.35397500  1
  O  O52  1  0.25280500  0.99043700  0.90650900  1
  O  O53  1  0.75280500  0.00956300  0.59349100  1
  O  O54  1  0.74719500  0.00956300  0.09349100  1
  O  O55  1  0.24719500  0.99043700  0.40650900  1
