# generated using pymatgen
data_Na3CoAsCO7
_symmetry_space_group_name_H-M   'P 1'
_cell_length_a   8.66629679
_cell_length_b   8.66387675
_cell_length_c   9.13174465
_cell_angle_alpha   89.41136712
_cell_angle_beta   89.28902345
_cell_angle_gamma   104.89278419
_symmetry_Int_Tables_number   1
_chemical_formula_structural   Na3CoAsCO7
_chemical_formula_sum   'Na12 Co4 As4 C4 O28'
_cell_volume   662.49822053
_cell_formula_units_Z   4
loop_
 _symmetry_equiv_pos_site_id
 _symmetry_equiv_pos_as_xyz
  1  'x, y, z'
loop_
 _atom_site_type_symbol
 _atom_site_label
 _atom_site_symmetry_multiplicity
 _atom_site_fract_x
 _atom_site_fract_y
 _atom_site_fract_z
 _atom_site_occupancy
  Na  Na0  1  0.50832300  0.25918200  0.07944200  1
  Na  Na1  1  0.00983400  0.75882600  0.07874200  1
  Na  Na2  1  0.49200800  0.74309800  0.91944000  1
  Na  Na3  1  0.99230800  0.24157200  0.91870200  1
  Na  Na4  1  0.12848500  0.12422600  0.25870200  1
  Na  Na5  1  0.62604500  0.62286300  0.25818600  1
  Na  Na6  1  0.37354800  0.87625300  0.25776200  1
  Na  Na7  1  0.87306000  0.37667000  0.25801000  1
  Na  Na8  1  0.62794400  0.12378100  0.74152900  1
  Na  Na9  1  0.12633700  0.62184500  0.74160800  1
  Na  Na10  1  0.87370700  0.87764800  0.74162200  1
  Na  Na11  1  0.37212700  0.37603200  0.74165500  1
  Co  Co12  1  0.26475800  0.51882900  0.34624100  1
  Co  Co13  1  0.73049500  0.48392800  0.65340800  1
  Co  Co14  1  0.76683800  0.01688500  0.34134600  1
  Co  Co15  1  0.23359800  0.98047800  0.65262600  1
  As  As16  1  0.47783100  0.22696900  0.41716000  1
  As  As17  1  0.97631100  0.72731400  0.41666400  1
  As  As18  1  0.52321300  0.77281700  0.58359000  1
  As  As19  1  0.02159200  0.27164900  0.58353600  1
  C  C20  1  0.73647500  0.98651200  0.05904300  1
  C  C21  1  0.23573500  0.48594900  0.05979200  1
  C  C22  1  0.26571600  0.01544400  0.94081800  1
  C  C23  1  0.76516200  0.51547300  0.94108800  1
  O  O24  1  0.27382700  0.02319700  0.08241100  1
  O  O25  1  0.77425700  0.52421500  0.08254900  1
  O  O26  1  0.72346900  0.97344800  0.91845500  1
  O  O27  1  0.22275600  0.47279500  0.91900800  1
  O  O28  1  0.84839100  0.09885900  0.11663700  1
  O  O29  1  0.34600500  0.60001800  0.11720300  1
  O  O30  1  0.15539700  0.90468500  0.87902900  1
  O  O31  1  0.65306000  0.40599900  0.88015500  1
  O  O32  1  0.63813700  0.88771900  0.14729600  1
  O  O33  1  0.13876500  0.38512600  0.14755900  1
  O  O34  1  0.36689400  0.11754300  0.85798100  1
  O  O35  1  0.86760900  0.61537200  0.85727200  1
  O  O36  1  0.31445600  0.06441600  0.44581400  1
  O  O37  1  0.81459500  0.56358300  0.44556700  1
  O  O38  1  0.68528800  0.93536400  0.55443400  1
  O  O39  1  0.18489300  0.43399400  0.55429600  1
  O  O40  1  0.45158000  0.70146000  0.41658100  1
  O  O41  1  0.95093400  0.20082100  0.41618500  1
  O  O42  1  0.54729100  0.29662700  0.58505700  1
  O  O43  1  0.04676900  0.79629100  0.58438300  1
  O  O44  1  0.42054300  0.36636800  0.30874000  1
  O  O45  1  0.91728800  0.86527100  0.30736800  1
  O  O46  1  0.61553300  0.16727900  0.30740300  1
  O  O47  1  0.11495800  0.66973300  0.30647400  1
  O  O48  1  0.38333800  0.82939900  0.69310200  1
  O  O49  1  0.88241400  0.32945700  0.69243900  1
  O  O50  1  0.58035400  0.63413000  0.69379900  1
  O  O51  1  0.07975000  0.13259000  0.69208700  1
