# generated using pymatgen
data_TmSnAu
_symmetry_space_group_name_H-M   'P 1'
_cell_length_a   4.68235082
_cell_length_b   4.68235082
_cell_length_c   7.40751500
_cell_angle_alpha   90.00000000
_cell_angle_beta   90.00000000
_cell_angle_gamma   120.00001163
_symmetry_Int_Tables_number   1
_chemical_formula_structural   TmSnAu
_chemical_formula_sum   'Tm2 Sn2 Au2'
_cell_volume   140.64717718
_cell_formula_units_Z   2
loop_
 _symmetry_equiv_pos_site_id
 _symmetry_equiv_pos_as_xyz
  1  'x, y, z'
loop_
 _atom_site_type_symbol
 _atom_site_label
 _atom_site_symmetry_multiplicity
 _atom_site_fract_x
 _atom_site_fract_y
 _atom_site_fract_z
 _atom_site_occupancy
  Tm  Tm0  1  0.00000000  0.00000000  0.47905400  1
  Tm  Tm1  1  0.00000000  0.00000000  0.97905400  1
  Sn  Sn2  1  0.33333300  0.66666700  0.70724400  1
  Sn  Sn3  1  0.66666700  0.33333300  0.20724400  1
  Au  Au4  1  0.66666700  0.33333300  0.81370200  1
  Au  Au5  1  0.33333300  0.66666700  0.31370200  1
