# generated using pymatgen
data_PrB3
_symmetry_space_group_name_H-M   'P 1'
_cell_length_a   5.68938170
_cell_length_b   5.68938170
_cell_length_c   3.46295200
_cell_angle_alpha   90.00000000
_cell_angle_beta   90.00000000
_cell_angle_gamma   119.99999654
_symmetry_Int_Tables_number   1
_chemical_formula_structural   PrB3
_chemical_formula_sum   'Pr2 B6'
_cell_volume   97.07496934
_cell_formula_units_Z   2
loop_
 _symmetry_equiv_pos_site_id
 _symmetry_equiv_pos_as_xyz
  1  'x, y, z'
loop_
 _atom_site_type_symbol
 _atom_site_label
 _atom_site_symmetry_multiplicity
 _atom_site_fract_x
 _atom_site_fract_y
 _atom_site_fract_z
 _atom_site_occupancy
  Pr  Pr0  1  0.33333300  0.66666700  0.75000000  1
  Pr  Pr1  1  0.66666700  0.33333300  0.25000000  1
  B  B2  1  0.89474900  0.78949800  0.75000000  1
  B  B3  1  0.10525100  0.89474900  0.25000000  1
  B  B4  1  0.10525100  0.21050200  0.25000000  1
  B  B5  1  0.89474900  0.10525100  0.75000000  1
  B  B6  1  0.21050200  0.10525100  0.75000000  1
  B  B7  1  0.78949800  0.89474900  0.25000000  1
