# generated using pymatgen
data_CdCu2
_symmetry_space_group_name_H-M   'P 1'
_cell_length_a   5.06721172
_cell_length_b   5.06721172
_cell_length_c   8.01649500
_cell_angle_alpha   90.00000000
_cell_angle_beta   90.00000000
_cell_angle_gamma   119.99999640
_symmetry_Int_Tables_number   1
_chemical_formula_structural   CdCu2
_chemical_formula_sum   'Cd4 Cu8'
_cell_volume   178.25974266
_cell_formula_units_Z   4
loop_
 _symmetry_equiv_pos_site_id
 _symmetry_equiv_pos_as_xyz
  1  'x, y, z'
loop_
 _atom_site_type_symbol
 _atom_site_label
 _atom_site_symmetry_multiplicity
 _atom_site_fract_x
 _atom_site_fract_y
 _atom_site_fract_z
 _atom_site_occupancy
  Cd  Cd0  1  0.33333300  0.66666700  0.43839200  1
  Cd  Cd1  1  0.66666700  0.33333300  0.56160800  1
  Cd  Cd2  1  0.66666700  0.33333300  0.93839200  1
  Cd  Cd3  1  0.33333300  0.66666700  0.06160800  1
  Cu  Cu4  1  0.16899300  0.33798500  0.75000000  1
  Cu  Cu5  1  0.16899300  0.83100700  0.75000000  1
  Cu  Cu6  1  0.33798500  0.16899300  0.25000000  1
  Cu  Cu7  1  0.83100700  0.66201500  0.25000000  1
  Cu  Cu8  1  0.66201500  0.83100700  0.75000000  1
  Cu  Cu9  1  0.00000000  0.00000000  0.00000000  1
  Cu  Cu10  1  0.83100700  0.16899300  0.25000000  1
  Cu  Cu11  1  0.00000000  0.00000000  0.50000000  1
