# generated using pymatgen
data_La2(WO4)3
_symmetry_space_group_name_H-M   'P 1'
_cell_length_a   7.21170374
_cell_length_b   7.21170374
_cell_length_c   11.80975342
_cell_angle_alpha   79.31223475
_cell_angle_beta   79.31223475
_cell_angle_gamma   112.14888751
_symmetry_Int_Tables_number   1
_chemical_formula_structural   La2(WO4)3
_chemical_formula_sum   'La4 W6 O24'
_cell_volume   536.55952267
_cell_formula_units_Z   2
loop_
 _symmetry_equiv_pos_site_id
 _symmetry_equiv_pos_as_xyz
  1  'x, y, z'
loop_
 _atom_site_type_symbol
 _atom_site_label
 _atom_site_symmetry_multiplicity
 _atom_site_fract_x
 _atom_site_fract_y
 _atom_site_fract_z
 _atom_site_occupancy
  La  La0  1  0.05491700  0.30888400  0.40350600  1
  La  La1  1  0.69111600  0.94508300  0.09649400  1
  La  La2  1  0.94508300  0.69111600  0.59649400  1
  La  La3  1  0.30888400  0.05491700  0.90350600  1
  W  W4  1  0.19982300  0.49519800  0.04512200  1
  W  W5  1  0.50480200  0.80017700  0.45487800  1
  W  W6  1  0.80017700  0.50480200  0.95487800  1
  W  W7  1  0.49519800  0.19982300  0.54512200  1
  W  W8  1  0.11773100  0.88226900  0.25000000  1
  W  W9  1  0.88226900  0.11773100  0.75000000  1
  O  O10  1  0.67113900  0.09684900  0.42672900  1
  O  O11  1  0.90315100  0.32886100  0.07327100  1
  O  O12  1  0.32886100  0.90315100  0.57327100  1
  O  O13  1  0.09684900  0.67113900  0.92672900  1
  O  O14  1  0.22814500  0.62597100  0.46397800  1
  O  O15  1  0.37402900  0.77185500  0.03602200  1
  O  O16  1  0.77185500  0.37402900  0.53602200  1
  O  O17  1  0.62597100  0.22814500  0.96397800  1
  O  O18  1  0.20320900  0.35952800  0.19140000  1
  O  O19  1  0.64047200  0.79679100  0.30860000  1
  O  O20  1  0.79679100  0.64047200  0.80860000  1
  O  O21  1  0.35952800  0.20320900  0.69140000  1
  O  O22  1  0.01599100  0.60353000  0.28098700  1
  O  O23  1  0.39647000  0.98400900  0.21901300  1
  O  O24  1  0.98400900  0.39647000  0.71901300  1
  O  O25  1  0.60353000  0.01599100  0.78098700  1
  O  O26  1  0.39754500  0.32084800  0.43979500  1
  O  O27  1  0.67915200  0.60245500  0.06020500  1
  O  O28  1  0.60245500  0.67915200  0.56020500  1
  O  O29  1  0.32084800  0.39754500  0.93979500  1
  O  O30  1  0.02806700  0.94828700  0.38727000  1
  O  O31  1  0.05171300  0.97193300  0.11273000  1
  O  O32  1  0.97193300  0.05171300  0.61273000  1
  O  O33  1  0.94828700  0.02806700  0.88727000  1
