# generated using pymatgen
data_Gd3OsO7
_symmetry_space_group_name_H-M   'P 1'
_cell_length_a   6.52564169
_cell_length_b   6.52564193
_cell_length_c   7.44682300
_cell_angle_alpha   90.00000000
_cell_angle_beta   90.00000000
_cell_angle_gamma   110.55343777
_symmetry_Int_Tables_number   1
_chemical_formula_structural   Gd3OsO7
_chemical_formula_sum   'Gd6 Os2 O14'
_cell_volume   296.92957916
_cell_formula_units_Z   2
loop_
 _symmetry_equiv_pos_site_id
 _symmetry_equiv_pos_as_xyz
  1  'x, y, z'
loop_
 _atom_site_type_symbol
 _atom_site_label
 _atom_site_symmetry_multiplicity
 _atom_site_fract_x
 _atom_site_fract_y
 _atom_site_fract_z
 _atom_site_occupancy
  Gd  Gd0  1  0.06652200  0.52284800  0.25000000  1
  Gd  Gd1  1  0.93347800  0.47715200  0.75000000  1
  Gd  Gd2  1  0.52284800  0.06652200  0.25000000  1
  Gd  Gd3  1  0.00000000  0.00000000  0.00000000  1
  Gd  Gd4  1  0.47715200  0.93347800  0.75000000  1
  Gd  Gd5  1  0.00000000  0.00000000  0.50000000  1
  Os  Os6  1  0.50000000  0.50000000  0.50000000  1
  Os  Os7  1  0.50000000  0.50000000  0.00000000  1
  O  O8  1  0.56351300  0.81834900  0.03719400  1
  O  O9  1  0.43648700  0.18165100  0.96280600  1
  O  O10  1  0.57587300  0.57587300  0.75000000  1
  O  O11  1  0.56351300  0.81834900  0.46280600  1
  O  O12  1  0.18165100  0.43648700  0.96280600  1
  O  O13  1  0.42412700  0.42412700  0.25000000  1
  O  O14  1  0.84305600  0.10760700  0.75000000  1
  O  O15  1  0.81834900  0.56351300  0.03719400  1
  O  O16  1  0.89239300  0.15694400  0.25000000  1
  O  O17  1  0.10760700  0.84305600  0.75000000  1
  O  O18  1  0.43648700  0.18165100  0.53719400  1
  O  O19  1  0.18165100  0.43648700  0.53719400  1
  O  O20  1  0.81834900  0.56351300  0.46280600  1
  O  O21  1  0.15694400  0.89239300  0.25000000  1
