# generated using pymatgen
data_La2Ni3
_symmetry_space_group_name_H-M   'P 1'
_cell_length_a   5.44293638
_cell_length_b   5.44293638
_cell_length_c   7.90308200
_cell_angle_alpha   90.00000000
_cell_angle_beta   90.00000000
_cell_angle_gamma   124.93790804
_symmetry_Int_Tables_number   1
_chemical_formula_structural   La2Ni3
_chemical_formula_sum   'La4 Ni6'
_cell_volume   191.93611320
_cell_formula_units_Z   2
loop_
 _symmetry_equiv_pos_site_id
 _symmetry_equiv_pos_as_xyz
  1  'x, y, z'
loop_
 _atom_site_type_symbol
 _atom_site_label
 _atom_site_symmetry_multiplicity
 _atom_site_fract_x
 _atom_site_fract_y
 _atom_site_fract_z
 _atom_site_occupancy
  La  La0  1  0.84606800  0.15393200  0.59515100  1
  La  La1  1  0.15393200  0.84606800  0.40484900  1
  La  La2  1  0.65393200  0.34606800  0.09515100  1
  La  La3  1  0.34606800  0.65393200  0.90484900  1
  Ni  Ni4  1  0.50000000  0.50000000  0.50000000  1
  Ni  Ni5  1  0.00000000  0.00000000  0.00000000  1
  Ni  Ni6  1  0.84213400  0.65786600  0.75000000  1
  Ni  Ni7  1  0.65786600  0.84213400  0.25000000  1
  Ni  Ni8  1  0.34213400  0.15786600  0.75000000  1
  Ni  Ni9  1  0.15786600  0.34213400  0.25000000  1
