# generated using pymatgen
data_AlPt2
_symmetry_space_group_name_H-M   'P 1'
_cell_length_a   3.95962500
_cell_length_b   5.51045500
_cell_length_c   16.49818900
_cell_angle_alpha   90.00000000
_cell_angle_beta   90.00000000
_cell_angle_gamma   90.00000000
_symmetry_Int_Tables_number   1
_chemical_formula_structural   AlPt2
_chemical_formula_sum   'Al8 Pt16'
_cell_volume   359.97951894
_cell_formula_units_Z   8
loop_
 _symmetry_equiv_pos_site_id
 _symmetry_equiv_pos_as_xyz
  1  'x, y, z'
loop_
 _atom_site_type_symbol
 _atom_site_label
 _atom_site_symmetry_multiplicity
 _atom_site_fract_x
 _atom_site_fract_y
 _atom_site_fract_z
 _atom_site_occupancy
  Al  Al0  1  0.00000000  0.20369400  0.75000000  1
  Al  Al1  1  0.00000000  0.79630600  0.25000000  1
  Al  Al2  1  0.00000000  0.68731800  0.59157000  1
  Al  Al3  1  0.00000000  0.31268200  0.40843000  1
  Al  Al4  1  0.00000000  0.68731800  0.90843000  1
  Al  Al5  1  0.00000000  0.31268200  0.09157000  1
  Al  Al6  1  0.50000000  0.00000000  0.50000000  1
  Al  Al7  1  0.50000000  0.00000000  0.00000000  1
  Pt  Pt8  1  0.50000000  0.05420900  0.34360100  1
  Pt  Pt9  1  0.50000000  0.94579100  0.65639900  1
  Pt  Pt10  1  0.50000000  0.55850900  0.16757700  1
  Pt  Pt11  1  0.50000000  0.44149100  0.83242300  1
  Pt  Pt12  1  0.50000000  0.55850900  0.33242300  1
  Pt  Pt13  1  0.50000000  0.44149100  0.66757700  1
  Pt  Pt14  1  0.00000000  0.27536100  0.25000000  1
  Pt  Pt15  1  0.00000000  0.72463900  0.75000000  1
  Pt  Pt16  1  0.50000000  0.94579100  0.84360100  1
  Pt  Pt17  1  0.50000000  0.05420900  0.15639900  1
  Pt  Pt18  1  0.50000000  0.50000000  0.50000000  1
  Pt  Pt19  1  0.50000000  0.50000000  0.00000000  1
  Pt  Pt20  1  0.00000000  0.20061100  0.56901100  1
  Pt  Pt21  1  0.00000000  0.79938900  0.43098900  1
  Pt  Pt22  1  0.00000000  0.20061100  0.93098900  1
  Pt  Pt23  1  0.00000000  0.79938900  0.06901100  1
