# generated using pymatgen
data_SmTl(MoO4)2
_symmetry_space_group_name_H-M   'P 1'
_cell_length_a   6.37213600
_cell_length_b   6.37213600
_cell_length_c   9.63692200
_cell_angle_alpha   90.00000000
_cell_angle_beta   90.00000000
_cell_angle_gamma   90.00000000
_symmetry_Int_Tables_number   1
_chemical_formula_structural   SmTl(MoO4)2
_chemical_formula_sum   'Sm2 Tl2 Mo4 O16'
_cell_volume   391.29871036
_cell_formula_units_Z   2
loop_
 _symmetry_equiv_pos_site_id
 _symmetry_equiv_pos_as_xyz
  1  'x, y, z'
loop_
 _atom_site_type_symbol
 _atom_site_label
 _atom_site_symmetry_multiplicity
 _atom_site_fract_x
 _atom_site_fract_y
 _atom_site_fract_z
 _atom_site_occupancy
  Sm  Sm0  1  0.50000000  0.50000000  0.00000000  1
  Sm  Sm1  1  0.00000000  0.00000000  0.50000000  1
  Tl  Tl2  1  0.50000000  0.50000000  0.50000000  1
  Tl  Tl3  1  0.00000000  0.00000000  0.00000000  1
  Mo  Mo4  1  0.50000000  0.00000000  0.25000000  1
  Mo  Mo5  1  0.00000000  0.50000000  0.25000000  1
  Mo  Mo6  1  0.50000000  0.00000000  0.75000000  1
  Mo  Mo7  1  0.00000000  0.50000000  0.75000000  1
  O  O8  1  0.80171100  0.39019600  0.13847200  1
  O  O9  1  0.19828900  0.60980400  0.13847200  1
  O  O10  1  0.39019600  0.80171100  0.86152800  1
  O  O11  1  0.39019600  0.19828900  0.13847200  1
  O  O12  1  0.60980400  0.80171100  0.13847200  1
  O  O13  1  0.19828900  0.39019600  0.86152800  1
  O  O14  1  0.80171100  0.60980400  0.86152800  1
  O  O15  1  0.60980400  0.19828900  0.86152800  1
  O  O16  1  0.89019600  0.30171100  0.63847200  1
  O  O17  1  0.69828900  0.89019600  0.63847200  1
  O  O18  1  0.30171100  0.10980400  0.63847200  1
  O  O19  1  0.89019600  0.69828900  0.36152800  1
  O  O20  1  0.10980400  0.30171100  0.36152800  1
  O  O21  1  0.10980400  0.69828900  0.63847200  1
  O  O22  1  0.30171100  0.89019600  0.36152800  1
  O  O23  1  0.69828900  0.10980400  0.36152800  1
