# generated using pymatgen
data_K3Nb3Si2O13
_symmetry_space_group_name_H-M   'P 1'
_cell_length_a   9.25780944
_cell_length_b   9.25780944
_cell_length_c   7.92675300
_cell_angle_alpha   90.00000000
_cell_angle_beta   90.00000000
_cell_angle_gamma   119.99999602
_symmetry_Int_Tables_number   1
_chemical_formula_structural   K3Nb3Si2O13
_chemical_formula_sum   'K6 Nb6 Si4 O26'
_cell_volume   588.35906529
_cell_formula_units_Z   2
loop_
 _symmetry_equiv_pos_site_id
 _symmetry_equiv_pos_as_xyz
  1  'x, y, z'
loop_
 _atom_site_type_symbol
 _atom_site_label
 _atom_site_symmetry_multiplicity
 _atom_site_fract_x
 _atom_site_fract_y
 _atom_site_fract_z
 _atom_site_occupancy
  K  K0  1  0.40412500  0.40412500  0.50000000  1
  K  K1  1  0.00000000  0.59587500  0.50000000  1
  K  K2  1  0.61074200  0.00000000  0.00000000  1
  K  K3  1  0.38925800  0.38925800  0.00000000  1
  K  K4  1  0.59587500  0.00000000  0.50000000  1
  K  K5  1  0.00000000  0.61074200  0.00000000  1
  Nb  Nb6  1  0.23786200  0.00000000  0.25042300  1
  Nb  Nb7  1  0.00000000  0.23786200  0.74957700  1
  Nb  Nb8  1  0.00000000  0.23786200  0.25042300  1
  Nb  Nb9  1  0.76213800  0.76213800  0.25042300  1
  Nb  Nb10  1  0.23786200  0.00000000  0.74957700  1
  Nb  Nb11  1  0.76213800  0.76213800  0.74957700  1
  Si  Si12  1  0.66666700  0.33333300  0.20890600  1
  Si  Si13  1  0.66666700  0.33333300  0.79109400  1
  Si  Si14  1  0.33333300  0.66666700  0.79109400  1
  Si  Si15  1  0.33333300  0.66666700  0.20890600  1
  O  O16  1  0.00000000  0.23192700  0.50000000  1
  O  O17  1  0.76807300  0.76807300  0.50000000  1
  O  O18  1  0.23192700  0.00000000  0.50000000  1
  O  O19  1  0.51337700  0.69613000  0.27086900  1
  O  O20  1  0.30387000  0.81724700  0.27086900  1
  O  O21  1  0.18275300  0.48662300  0.27086900  1
  O  O22  1  0.48662300  0.18275300  0.72913100  1
  O  O23  1  0.18275300  0.48662300  0.72913100  1
  O  O24  1  0.51337700  0.69613000  0.72913100  1
  O  O25  1  0.30387000  0.81724700  0.72913100  1
  O  O26  1  0.69613000  0.51337700  0.27086900  1
  O  O27  1  0.81724700  0.30387000  0.27086900  1
  O  O28  1  0.81724700  0.30387000  0.72913100  1
  O  O29  1  0.69613000  0.51337700  0.72913100  1
  O  O30  1  0.48662300  0.18275300  0.27086900  1
  O  O31  1  0.82608300  0.00000000  0.76540800  1
  O  O32  1  0.33333300  0.66666700  0.00000000  1
  O  O33  1  0.66666700  0.33333300  0.00000000  1
  O  O34  1  0.27010100  0.00000000  0.00000000  1
  O  O35  1  0.72989900  0.72989900  0.00000000  1
  O  O36  1  0.00000000  0.27010100  0.00000000  1
  O  O37  1  0.82608300  0.00000000  0.23459200  1
  O  O38  1  0.17391700  0.17391700  0.76540800  1
  O  O39  1  0.00000000  0.82608300  0.76540800  1
  O  O40  1  0.00000000  0.82608300  0.23459200  1
  O  O41  1  0.17391700  0.17391700  0.23459200  1
