# generated using pymatgen
data_KMoPO6
_symmetry_space_group_name_H-M   'P 1'
_cell_length_a   10.05813303
_cell_length_b   9.67728879
_cell_length_c   8.49597491
_cell_angle_alpha   66.84274205
_cell_angle_beta   62.20423180
_cell_angle_gamma   50.95302615
_symmetry_Int_Tables_number   1
_chemical_formula_structural   KMoPO6
_chemical_formula_sum   'K4 Mo4 P4 O24'
_cell_volume   562.14744284
_cell_formula_units_Z   4
loop_
 _symmetry_equiv_pos_site_id
 _symmetry_equiv_pos_as_xyz
  1  'x, y, z'
loop_
 _atom_site_type_symbol
 _atom_site_label
 _atom_site_symmetry_multiplicity
 _atom_site_fract_x
 _atom_site_fract_y
 _atom_site_fract_z
 _atom_site_occupancy
  K  K0  1  0.27989100  0.72010900  0.72010900  1
  K  K1  1  0.72010900  0.27989100  0.27989100  1
  K  K2  1  0.97010900  0.52989100  0.52989100  1
  K  K3  1  0.52989100  0.97010900  0.97010900  1
  Mo  Mo4  1  0.22077100  0.77922900  0.22077100  1
  Mo  Mo5  1  0.77922900  0.22077100  0.77922900  1
  Mo  Mo6  1  0.02922900  0.47077100  0.02922900  1
  Mo  Mo7  1  0.47077100  0.02922900  0.47077100  1
  P  P8  1  0.11514400  0.11514400  0.38485600  1
  P  P9  1  0.38485600  0.38485600  0.11514400  1
  P  P10  1  0.13485600  0.13485600  0.86514400  1
  P  P11  1  0.86514400  0.86514400  0.13485600  1
  O  O12  1  0.18260600  0.66110200  0.43354500  1
  O  O13  1  0.72274700  0.43354500  0.66110200  1
  O  O14  1  0.43354500  0.72274700  0.18260600  1
  O  O15  1  0.66110200  0.18260600  0.72274700  1
  O  O16  1  0.06739400  0.58889800  0.81645500  1
  O  O17  1  0.52725300  0.81645500  0.58889800  1
  O  O18  1  0.81645500  0.52725300  0.06739400  1
  O  O19  1  0.58889800  0.06739400  0.52725300  1
  O  O20  1  0.29958000  0.59222700  0.09001800  1
  O  O21  1  0.01817500  0.09001800  0.59222700  1
  O  O22  1  0.09001800  0.01817500  0.29958000  1
  O  O23  1  0.59222700  0.29958000  0.01817500  1
  O  O24  1  0.35786500  0.30592500  0.31452300  1
  O  O25  1  0.02168800  0.31452300  0.30592500  1
  O  O26  1  0.31452300  0.02168800  0.35786500  1
  O  O27  1  0.30592500  0.35786500  0.02168800  1
  O  O28  1  0.89213500  0.94407500  0.93547700  1
  O  O29  1  0.22831200  0.93547700  0.94407500  1
  O  O30  1  0.93547700  0.22831200  0.89213500  1
  O  O31  1  0.94407500  0.89213500  0.22831200  1
  O  O32  1  0.65777300  0.95042000  0.23182500  1
  O  O33  1  0.15998200  0.23182500  0.95042000  1
  O  O34  1  0.23182500  0.15998200  0.65777300  1
  O  O35  1  0.95042000  0.65777300  0.15998200  1
