# generated using pymatgen
data_KO3
_symmetry_space_group_name_H-M   'P 1'
_cell_length_a   7.21840627
_cell_length_b   7.21840627
_cell_length_c   7.21840627
_cell_angle_alpha   104.53834369
_cell_angle_beta   104.53834369
_cell_angle_gamma   119.86408822
_symmetry_Int_Tables_number   1
_chemical_formula_structural   KO3
_chemical_formula_sum   'K4 O12'
_cell_volume   282.28030867
_cell_formula_units_Z   4
loop_
 _symmetry_equiv_pos_site_id
 _symmetry_equiv_pos_as_xyz
  1  'x, y, z'
loop_
 _atom_site_type_symbol
 _atom_site_label
 _atom_site_symmetry_multiplicity
 _atom_site_fract_x
 _atom_site_fract_y
 _atom_site_fract_z
 _atom_site_occupancy
  K  K0  1  0.75000000  0.25000000  0.50000000  1
  K  K1  1  0.25000000  0.75000000  0.50000000  1
  K  K2  1  0.25000000  0.25000000  0.00000000  1
  K  K3  1  0.75000000  0.75000000  0.00000000  1
  O  O4  1  0.75067700  0.56634500  0.31702200  1
  O  O5  1  0.43365500  0.75067700  0.18433200  1
  O  O6  1  0.56634500  0.24932300  0.81566800  1
  O  O7  1  0.24932300  0.43365500  0.68297800  1
  O  O8  1  0.21850500  0.28149500  0.50000000  1
  O  O9  1  0.28149500  0.78149500  0.06298900  1
  O  O10  1  0.71850500  0.21850500  0.93701100  1
  O  O11  1  0.78149500  0.71850500  0.50000000  1
  O  O12  1  0.06634500  0.25067700  0.31702200  1
  O  O13  1  0.25067700  0.93365500  0.18433200  1
  O  O14  1  0.74932300  0.06634500  0.81566800  1
  O  O15  1  0.93365500  0.74932300  0.68297800  1
