# generated using pymatgen
data_Sm4FeSe6O
_symmetry_space_group_name_H-M   'P 1'
_cell_length_a   9.55723722
_cell_length_b   9.55723722
_cell_length_c   6.97184700
_cell_angle_alpha   90.00000000
_cell_angle_beta   90.00000000
_cell_angle_gamma   119.99999462
_symmetry_Int_Tables_number   1
_chemical_formula_structural   Sm4FeSe6O
_chemical_formula_sum   'Sm8 Fe2 Se12 O2'
_cell_volume   551.49710212
_cell_formula_units_Z   2
loop_
 _symmetry_equiv_pos_site_id
 _symmetry_equiv_pos_as_xyz
  1  'x, y, z'
loop_
 _atom_site_type_symbol
 _atom_site_label
 _atom_site_symmetry_multiplicity
 _atom_site_fract_x
 _atom_site_fract_y
 _atom_site_fract_z
 _atom_site_occupancy
  Sm  Sm0  1  0.66666700  0.33333300  0.70847100  1
  Sm  Sm1  1  0.33333300  0.66666700  0.20847100  1
  Sm  Sm2  1  0.20072900  0.79927100  0.65949300  1
  Sm  Sm3  1  0.40145900  0.20072900  0.15949300  1
  Sm  Sm4  1  0.79927100  0.59854100  0.15949300  1
  Sm  Sm5  1  0.20072900  0.40145900  0.65949300  1
  Sm  Sm6  1  0.59854100  0.79927100  0.65949300  1
  Sm  Sm7  1  0.79927100  0.20072900  0.15949300  1
  Fe  Fe8  1  0.00000000  0.00000000  0.49655700  1
  Fe  Fe9  1  0.00000000  0.00000000  0.99655700  1
  Se  Se10  1  0.53134000  0.06268100  0.44577100  1
  Se  Se11  1  0.46866000  0.93731900  0.94577100  1
  Se  Se12  1  0.06268100  0.53134000  0.94577100  1
  Se  Se13  1  0.53134000  0.46866000  0.44577100  1
  Se  Se14  1  0.93731900  0.46866000  0.44577100  1
  Se  Se15  1  0.46866000  0.53134000  0.94577100  1
  Se  Se16  1  0.12615500  0.87384500  0.26675100  1
  Se  Se17  1  0.25230900  0.12615500  0.76675100  1
  Se  Se18  1  0.87384500  0.74769100  0.76675100  1
  Se  Se19  1  0.12615500  0.25230900  0.26675100  1
  Se  Se20  1  0.74769100  0.87384500  0.26675100  1
  Se  Se21  1  0.87384500  0.12615500  0.76675100  1
  O  O22  1  0.66666700  0.33333300  0.04129600  1
  O  O23  1  0.33333300  0.66666700  0.54129600  1
