# generated using pymatgen
data_CsTiP2O7
_symmetry_space_group_name_H-M   'P 1'
_cell_length_a   10.40297400
_cell_length_b   7.87492000
_cell_length_c   8.44939582
_cell_angle_alpha   75.01815052
_cell_angle_beta   90.00000000
_cell_angle_gamma   90.00000000
_symmetry_Int_Tables_number   1
_chemical_formula_structural   CsTiP2O7
_chemical_formula_sum   'Cs4 Ti4 P8 O28'
_cell_volume   668.66707327
_cell_formula_units_Z   4
loop_
 _symmetry_equiv_pos_site_id
 _symmetry_equiv_pos_as_xyz
  1  'x, y, z'
loop_
 _atom_site_type_symbol
 _atom_site_label
 _atom_site_symmetry_multiplicity
 _atom_site_fract_x
 _atom_site_fract_y
 _atom_site_fract_z
 _atom_site_occupancy
  Cs  Cs0  1  0.30211900  0.19927400  0.45362900  1
  Cs  Cs1  1  0.80211900  0.80072600  0.04637100  1
  Cs  Cs2  1  0.69788100  0.80072600  0.54637100  1
  Cs  Cs3  1  0.19788100  0.19927400  0.95362900  1
  Ti  Ti4  1  0.89768300  0.24040900  0.24220600  1
  Ti  Ti5  1  0.39768300  0.75959100  0.25779400  1
  Ti  Ti6  1  0.10231700  0.75959100  0.75779400  1
  Ti  Ti7  1  0.60231700  0.24040900  0.74220600  1
  P  P8  1  0.62821600  0.42481000  0.31833400  1
  P  P9  1  0.12821600  0.57519000  0.18166600  1
  P  P10  1  0.37178400  0.57519000  0.68166600  1
  P  P11  1  0.87178400  0.42481000  0.81833400  1
  P  P12  1  0.59659000  0.13000000  0.16934800  1
  P  P13  1  0.09659000  0.87000000  0.33065200  1
  P  P14  1  0.40341000  0.87000000  0.83065200  1
  P  P15  1  0.90341000  0.13000000  0.66934800  1
  O  O16  1  0.56794400  0.60716500  0.27298800  1
  O  O17  1  0.06794400  0.39283500  0.22701200  1
  O  O18  1  0.43205600  0.39283500  0.72701200  1
  O  O19  1  0.93205600  0.60716500  0.77298800  1
  O  O20  1  0.77071900  0.43429500  0.27069700  1
  O  O21  1  0.27071900  0.56570500  0.22930300  1
  O  O22  1  0.22928100  0.56570500  0.72930300  1
  O  O23  1  0.72928100  0.43429500  0.77069700  1
  O  O24  1  0.60434500  0.32271400  0.49695200  1
  O  O25  1  0.10434500  0.67728600  0.00304800  1
  O  O26  1  0.39565500  0.67728600  0.50304800  1
  O  O27  1  0.89565500  0.32271400  0.99695200  1
  O  O28  1  0.55217200  0.31392200  0.20765600  1
  O  O29  1  0.05217200  0.68607800  0.29234400  1
  O  O30  1  0.44782800  0.68607800  0.79234400  1
  O  O31  1  0.94782800  0.31392200  0.70765600  1
  O  O32  1  0.49603000  0.01038200  0.73696300  1
  O  O33  1  0.99603000  0.98961800  0.76303700  1
  O  O34  1  0.50397000  0.98961800  0.26303700  1
  O  O35  1  0.00397000  0.01038200  0.23696300  1
  O  O36  1  0.76495500  0.09084400  0.73112800  1
  O  O37  1  0.26495500  0.90915600  0.76887200  1
  O  O38  1  0.23504500  0.90915600  0.26887200  1
  O  O39  1  0.73504500  0.09084400  0.23112700  1
  O  O40  1  0.58636600  0.16099700  0.98383600  1
  O  O41  1  0.08636600  0.83900300  0.51616400  1
  O  O42  1  0.41363400  0.83900300  0.01616400  1
  O  O43  1  0.91363400  0.16099700  0.48383600  1
