# generated using pymatgen
data_ErAg(WO4)2
_symmetry_space_group_name_H-M   'P 1'
_cell_length_a   7.37800970
_cell_length_b   7.37800970
_cell_length_c   7.27900416
_cell_angle_alpha   65.89552230
_cell_angle_beta   65.89552230
_cell_angle_gamma   94.60728295
_symmetry_Int_Tables_number   1
_chemical_formula_structural   ErAg(WO4)2
_chemical_formula_sum   'Er2 Ag2 W4 O16'
_cell_volume   315.28987464
_cell_formula_units_Z   2
loop_
 _symmetry_equiv_pos_site_id
 _symmetry_equiv_pos_as_xyz
  1  'x, y, z'
loop_
 _atom_site_type_symbol
 _atom_site_label
 _atom_site_symmetry_multiplicity
 _atom_site_fract_x
 _atom_site_fract_y
 _atom_site_fract_z
 _atom_site_occupancy
  Er  Er0  1  0.30096800  0.69903200  0.00000000  1
  Er  Er1  1  0.69903200  0.30096800  0.00000000  1
  Ag  Ag2  1  0.68137600  0.68137600  0.47811500  1
  Ag  Ag3  1  0.31862400  0.31862400  0.52188500  1
  W  W4  1  0.78743900  0.78743900  0.97189500  1
  W  W5  1  0.21256100  0.21256100  0.02810500  1
  W  W6  1  0.83647700  0.16352300  0.50000000  1
  W  W7  1  0.16352300  0.83647700  0.50000000  1
  O  O8  1  0.02186700  0.02186700  0.65905600  1
  O  O9  1  0.97813300  0.97813300  0.34094400  1
  O  O10  1  0.95971800  0.69952600  0.08936900  1
  O  O11  1  0.30047400  0.04028200  0.91063100  1
  O  O12  1  0.04028200  0.30047400  0.91063100  1
  O  O13  1  0.69952600  0.95971800  0.08936900  1
  O  O14  1  0.44688900  0.44688900  0.86039000  1
  O  O15  1  0.55311100  0.55311100  0.13961000  1
  O  O16  1  0.35546600  0.10366900  0.23970600  1
  O  O17  1  0.89633100  0.64453400  0.76029400  1
  O  O18  1  0.64453400  0.89633100  0.76029400  1
  O  O19  1  0.10366900  0.35546600  0.23970600  1
  O  O20  1  0.68802000  0.21702800  0.34788200  1
  O  O21  1  0.78297200  0.31198000  0.65211800  1
  O  O22  1  0.31198000  0.78297200  0.65211800  1
  O  O23  1  0.21702800  0.68802000  0.34788200  1
