# generated using pymatgen
data_TmCu(BO2)5
_symmetry_space_group_name_H-M   'P 1'
_cell_length_a   8.27216141
_cell_length_b   8.27216141
_cell_length_c   8.27216141
_cell_angle_alpha   135.18797815
_cell_angle_beta   117.75476213
_cell_angle_gamma   79.91488533
_symmetry_Int_Tables_number   1
_chemical_formula_structural   TmCu(BO2)5
_chemical_formula_sum   'Tm2 Cu2 B10 O20'
_cell_volume   341.93186916
_cell_formula_units_Z   2
loop_
 _symmetry_equiv_pos_site_id
 _symmetry_equiv_pos_as_xyz
  1  'x, y, z'
loop_
 _atom_site_type_symbol
 _atom_site_label
 _atom_site_symmetry_multiplicity
 _atom_site_fract_x
 _atom_site_fract_y
 _atom_site_fract_z
 _atom_site_occupancy
  Tm  Tm0  1  0.25000000  0.75000000  0.50000000  1
  Tm  Tm1  1  0.75000000  0.25000000  0.50000000  1
  Cu  Cu2  1  0.00000000  0.50000000  0.50000000  1
  Cu  Cu3  1  0.50000000  0.00000000  0.50000000  1
  B  B4  1  0.09241700  0.78471000  0.07563400  1
  B  B5  1  0.25000000  0.25000000  0.00000000  1
  B  B6  1  0.75000000  0.75000000  0.00000000  1
  B  B7  1  0.29092300  0.98321700  0.07563400  1
  B  B8  1  0.90758300  0.21529000  0.92436600  1
  B  B9  1  0.70907700  0.01678300  0.92436600  1
  B  B10  1  0.59241700  0.51678300  0.30770700  1
  B  B11  1  0.20907700  0.28471000  0.69229300  1
  B  B12  1  0.40758300  0.48321700  0.69229300  1
  B  B13  1  0.79092300  0.71529000  0.30770700  1
  O  O14  1  0.45644100  0.05196200  0.28264100  1
  O  O15  1  0.26932200  0.55196200  0.59552100  1
  O  O16  1  0.95644100  0.67380000  0.40447900  1
  O  O17  1  0.76932200  0.17380000  0.71735900  1
  O  O18  1  0.23067800  0.82620000  0.28264100  1
  O  O19  1  0.54355900  0.94803800  0.71735900  1
  O  O20  1  0.73067800  0.44803800  0.40447900  1
  O  O21  1  0.04355900  0.32620000  0.59552100  1
  O  O22  1  0.90803500  0.66423100  0.94428100  1
  O  O23  1  0.71994900  0.96375400  0.05571900  1
  O  O24  1  0.40803500  0.46375400  0.24380500  1
  O  O25  1  0.21994900  0.16423100  0.75619500  1
  O  O26  1  0.37389600  0.35224300  0.72613900  1
  O  O27  1  0.62610400  0.64775700  0.27386100  1
  O  O28  1  0.87389600  0.14775700  0.02165400  1
  O  O29  1  0.12610400  0.85224300  0.97834600  1
  O  O30  1  0.59196500  0.53624600  0.75619500  1
  O  O31  1  0.78005100  0.83576900  0.24380500  1
  O  O32  1  0.09196500  0.33576900  0.05571900  1
  O  O33  1  0.28005100  0.03624600  0.94428100  1
