# generated using pymatgen
data_TlFeC3NO4
_symmetry_space_group_name_H-M   'P 1'
_cell_length_a   9.13706000
_cell_length_b   9.13706000
_cell_length_c   9.13706000
_cell_angle_alpha   90.00000000
_cell_angle_beta   90.00000000
_cell_angle_gamma   90.00000000
_symmetry_Int_Tables_number   1
_chemical_formula_structural   TlFeC3NO4
_chemical_formula_sum   'Tl4 Fe4 C12 N4 O16'
_cell_volume   762.81536171
_cell_formula_units_Z   4
loop_
 _symmetry_equiv_pos_site_id
 _symmetry_equiv_pos_as_xyz
  1  'x, y, z'
loop_
 _atom_site_type_symbol
 _atom_site_label
 _atom_site_symmetry_multiplicity
 _atom_site_fract_x
 _atom_site_fract_y
 _atom_site_fract_z
 _atom_site_occupancy
  Tl  Tl0  1  0.94022600  0.55977400  0.44022600  1
  Tl  Tl1  1  0.55977400  0.44022600  0.94022600  1
  Tl  Tl2  1  0.44022600  0.94022600  0.55977400  1
  Tl  Tl3  1  0.05977400  0.05977400  0.05977400  1
  Fe  Fe4  1  0.44072800  0.05927200  0.94072800  1
  Fe  Fe5  1  0.05927200  0.94072800  0.44072800  1
  Fe  Fe6  1  0.94072800  0.44072800  0.05927200  1
  Fe  Fe7  1  0.55927200  0.55927200  0.55927200  1
  C  C8  1  0.06220500  0.91187000  0.63220000  1
  C  C9  1  0.91187000  0.63220000  0.06220500  1
  C  C10  1  0.41187000  0.86780000  0.93779500  1
  C  C11  1  0.08813000  0.13220000  0.43779500  1
  C  C12  1  0.86780000  0.93779500  0.41187000  1
  C  C13  1  0.43779500  0.08813000  0.13220000  1
  C  C14  1  0.93779500  0.41187000  0.86780000  1
  C  C15  1  0.58813000  0.36780000  0.56220500  1
  C  C16  1  0.13220000  0.43779500  0.08813000  1
  C  C17  1  0.56220500  0.58813000  0.36780000  1
  C  C18  1  0.36780000  0.56220500  0.58813000  1
  C  C19  1  0.63220000  0.06220500  0.91187000  1
  N  N20  1  0.33622000  0.16378000  0.83622000  1
  N  N21  1  0.16378000  0.83622000  0.33622000  1
  N  N22  1  0.83622000  0.33622000  0.16378000  1
  N  N23  1  0.66378000  0.66378000  0.66378000  1
  O  O24  1  0.26023900  0.23976100  0.76023900  1
  O  O25  1  0.23976100  0.76023900  0.26023900  1
  O  O26  1  0.76023900  0.26023900  0.23976100  1
  O  O27  1  0.73976100  0.73976100  0.73976100  1
  O  O28  1  0.89349600  0.75885900  0.06663800  1
  O  O29  1  0.06663800  0.89349600  0.75885900  1
  O  O30  1  0.75885900  0.06663800  0.89349600  1
  O  O31  1  0.93336200  0.39349600  0.74114100  1
  O  O32  1  0.43336200  0.10650400  0.25885900  1
  O  O33  1  0.74114100  0.93336200  0.39349600  1
  O  O34  1  0.10650400  0.25885900  0.43336200  1
  O  O35  1  0.39349600  0.74114100  0.93336200  1
  O  O36  1  0.60650400  0.24114100  0.56663800  1
  O  O37  1  0.56663800  0.60650400  0.24114100  1
  O  O38  1  0.24114100  0.56663800  0.60650400  1
  O  O39  1  0.25885900  0.43336200  0.10650400  1
