# generated using pymatgen
data_UF5
_symmetry_space_group_name_H-M   'P 1'
_cell_length_a   8.79197555
_cell_length_b   8.79197555
_cell_length_c   8.79197555
_cell_angle_alpha   96.69979497
_cell_angle_beta   96.69979497
_cell_angle_gamma   140.05540263
_symmetry_Int_Tables_number   1
_chemical_formula_structural   UF5
_chemical_formula_sum   'U4 F20'
_cell_volume   410.09845396
_cell_formula_units_Z   4
loop_
 _symmetry_equiv_pos_site_id
 _symmetry_equiv_pos_as_xyz
  1  'x, y, z'
loop_
 _atom_site_type_symbol
 _atom_site_label
 _atom_site_symmetry_multiplicity
 _atom_site_fract_x
 _atom_site_fract_y
 _atom_site_fract_z
 _atom_site_occupancy
  U  U0  1  0.19441800  0.37500000  0.31941800  1
  U  U1  1  0.12500000  0.80558200  0.18058200  1
  U  U2  1  0.62500000  0.94441800  0.81941800  1
  U  U3  1  0.05558200  0.87500000  0.68058200  1
  F  F4  1  0.84370200  0.23139900  0.73156000  1
  F  F5  1  0.49983800  0.11214100  0.26844000  1
  F  F6  1  0.76860100  0.50016200  0.61230300  1
  F  F7  1  0.88785900  0.15629800  0.38769700  1
  F  F8  1  0.88126400  0.87500000  0.50626400  1
  F  F9  1  0.62500000  0.11873600  0.99373600  1
  F  F10  1  0.12500000  0.63126400  0.00626400  1
  F  F11  1  0.36873600  0.37500000  0.49373600  1
  F  F12  1  0.82751900  0.88323200  0.78299000  1
  F  F13  1  0.95547100  0.17248100  0.05571300  1
  F  F14  1  0.11676800  0.89975800  0.94428700  1
  F  F15  1  0.10024200  0.04452900  0.21701000  1
  F  F16  1  0.42248100  0.70547100  0.55571300  1
  F  F17  1  0.14975800  0.86676800  0.44428700  1
  F  F18  1  0.13323200  0.57751900  0.28299000  1
  F  F19  1  0.29452900  0.85024200  0.71701000  1
  F  F20  1  0.36214100  0.24983800  0.76844000  1
  F  F21  1  0.40629800  0.63785900  0.88769700  1
  F  F22  1  0.75016200  0.51860100  0.11230300  1
  F  F23  1  0.48139900  0.59370200  0.23156000  1
