# generated using pymatgen
data_K3Na(WO4)2
_symmetry_space_group_name_H-M   'P 1'
_cell_length_a   6.21333916
_cell_length_b   6.21333916
_cell_length_c   15.62695708
_cell_angle_alpha   89.73252746
_cell_angle_beta   89.73252746
_cell_angle_gamma   59.57788138
_symmetry_Int_Tables_number   1
_chemical_formula_structural   K3Na(WO4)2
_chemical_formula_sum   'K6 Na2 W4 O16'
_cell_volume   520.21855389
_cell_formula_units_Z   2
loop_
 _symmetry_equiv_pos_site_id
 _symmetry_equiv_pos_as_xyz
  1  'x, y, z'
loop_
 _atom_site_type_symbol
 _atom_site_label
 _atom_site_symmetry_multiplicity
 _atom_site_fract_x
 _atom_site_fract_y
 _atom_site_fract_z
 _atom_site_occupancy
  K  K0  1  0.93846900  0.06153100  0.75000000  1
  K  K1  1  0.06153100  0.93846900  0.25000000  1
  K  K2  1  0.64793400  0.69484500  0.91123100  1
  K  K3  1  0.30515500  0.35206600  0.58876900  1
  K  K4  1  0.35206600  0.30515500  0.08876900  1
  K  K5  1  0.69484500  0.64793400  0.41123100  1
  Na  Na6  1  0.00000000  0.00000000  0.50000000  1
  Na  Na7  1  0.00000000  0.00000000  0.00000000  1
  W  W8  1  0.63798500  0.68340500  0.63625100  1
  W  W9  1  0.31659500  0.36201500  0.86374900  1
  W  W10  1  0.36201500  0.31659500  0.36374900  1
  W  W11  1  0.68340500  0.63798500  0.13625100  1
  O  O12  1  0.76935300  0.85821600  0.58943000  1
  O  O13  1  0.14178400  0.23064700  0.91057000  1
  O  O14  1  0.23064700  0.14178400  0.41057000  1
  O  O15  1  0.85821600  0.76935300  0.08943000  1
  O  O16  1  0.30328900  0.85578800  0.62282400  1
  O  O17  1  0.14421200  0.69671100  0.87717600  1
  O  O18  1  0.69671100  0.14421200  0.37717600  1
  O  O19  1  0.85578800  0.30328900  0.12282400  1
  O  O20  1  0.76315300  0.39597400  0.57661300  1
  O  O21  1  0.60402600  0.23684700  0.92338700  1
  O  O22  1  0.23684700  0.60402600  0.42338700  1
  O  O23  1  0.39597400  0.76315300  0.07661300  1
  O  O24  1  0.60624500  0.73026300  0.24597800  1
  O  O25  1  0.26973700  0.39375500  0.25402200  1
  O  O26  1  0.39375500  0.26973700  0.75402200  1
  O  O27  1  0.73026300  0.60624500  0.74597800  1
