# generated using pymatgen
data_RbNd(PO3)4
_symmetry_space_group_name_H-M   'P 1'
_cell_length_a   7.68878750
_cell_length_b   7.68878750
_cell_length_c   10.82154896
_cell_angle_alpha   79.09533697
_cell_angle_beta   79.09533697
_cell_angle_gamma   116.72402965
_symmetry_Int_Tables_number   1
_chemical_formula_structural   RbNd(PO3)4
_chemical_formula_sum   'Rb2 Nd2 P8 O24'
_cell_volume   532.95356136
_cell_formula_units_Z   2
loop_
 _symmetry_equiv_pos_site_id
 _symmetry_equiv_pos_as_xyz
  1  'x, y, z'
loop_
 _atom_site_type_symbol
 _atom_site_label
 _atom_site_symmetry_multiplicity
 _atom_site_fract_x
 _atom_site_fract_y
 _atom_site_fract_z
 _atom_site_occupancy
  Rb  Rb0  1  0.30748900  0.69251100  0.25000000  1
  Rb  Rb1  1  0.69251100  0.30748900  0.75000000  1
  Nd  Nd2  1  0.62279800  0.37720200  0.25000000  1
  Nd  Nd3  1  0.37720200  0.62279800  0.75000000  1
  P  P4  1  0.80548900  0.75195400  0.45050200  1
  P  P5  1  0.24804600  0.19451100  0.04949800  1
  P  P6  1  0.19451100  0.24804600  0.54949700  1
  P  P7  1  0.75195400  0.80548900  0.95050300  1
  P  P8  1  0.20676900  0.88067400  0.51101600  1
  P  P9  1  0.11932600  0.79323100  0.98898400  1
  P  P10  1  0.79323100  0.11932600  0.48898400  1
  P  P11  1  0.88067400  0.20676900  0.01101600  1
  O  O12  1  0.64080800  0.66407900  0.09061900  1
  O  O13  1  0.33592100  0.35919200  0.40938100  1
  O  O14  1  0.35919200  0.33592100  0.90938100  1
  O  O15  1  0.66407900  0.64080800  0.59061900  1
  O  O16  1  0.33030400  0.24846200  0.15933100  1
  O  O17  1  0.75153800  0.66969600  0.34066900  1
  O  O18  1  0.66969600  0.75153800  0.84066900  1
  O  O19  1  0.24846200  0.33030400  0.65933100  1
  O  O20  1  0.01118200  0.14240100  0.08977900  1
  O  O21  1  0.85759900  0.98881800  0.41022100  1
  O  O22  1  0.98881800  0.85759900  0.91022100  1
  O  O23  1  0.14240100  0.01118200  0.58977900  1
  O  O24  1  0.29501000  0.81087300  0.88812400  1
  O  O25  1  0.18912700  0.70499000  0.61187700  1
  O  O26  1  0.70499000  0.18912700  0.11187600  1
  O  O27  1  0.81087300  0.29501000  0.38812400  1
  O  O28  1  0.01416200  0.39921300  0.89559900  1
  O  O29  1  0.60078700  0.98583800  0.60440100  1
  O  O30  1  0.98583800  0.60078700  0.10440100  1
  O  O31  1  0.39921300  0.01416200  0.39559900  1
  O  O32  1  0.77860200  0.02738000  0.94492700  1
  O  O33  1  0.97262000  0.22139800  0.55507300  1
  O  O34  1  0.22139800  0.97262000  0.05507300  1
  O  O35  1  0.02738000  0.77860200  0.44492700  1
