# generated using pymatgen
data_Ba4Ir3O10
_symmetry_space_group_name_H-M   'P 1'
_cell_length_a   7.31173978
_cell_length_b   7.31173978
_cell_length_c   13.51752300
_cell_angle_alpha   90.00000000
_cell_angle_beta   90.00000000
_cell_angle_gamma   132.93657985
_symmetry_Int_Tables_number   1
_chemical_formula_structural   Ba4Ir3O10
_chemical_formula_sum   'Ba8 Ir6 O20'
_cell_volume   529.07082358
_cell_formula_units_Z   2
loop_
 _symmetry_equiv_pos_site_id
 _symmetry_equiv_pos_as_xyz
  1  'x, y, z'
loop_
 _atom_site_type_symbol
 _atom_site_label
 _atom_site_symmetry_multiplicity
 _atom_site_fract_x
 _atom_site_fract_y
 _atom_site_fract_z
 _atom_site_occupancy
  Ba  Ba0  1  0.24269800  0.75730200  0.87918400  1
  Ba  Ba1  1  0.75730200  0.24269800  0.12081600  1
  Ba  Ba2  1  0.25730200  0.74269800  0.37918400  1
  Ba  Ba3  1  0.74269800  0.25730200  0.62081600  1
  Ba  Ba4  1  0.53932700  0.46067300  0.86033000  1
  Ba  Ba5  1  0.46067300  0.53932700  0.13967000  1
  Ba  Ba6  1  0.03932700  0.96067300  0.63967000  1
  Ba  Ba7  1  0.96067300  0.03932700  0.36033000  1
  Ir  Ir8  1  0.00000000  0.00000000  0.00000000  1
  Ir  Ir9  1  0.50000000  0.50000000  0.50000000  1
  Ir  Ir10  1  0.87953800  0.12046200  0.85044700  1
  Ir  Ir11  1  0.12046200  0.87953800  0.14955300  1
  Ir  Ir12  1  0.62046200  0.37953800  0.35044700  1
  Ir  Ir13  1  0.37953800  0.62046200  0.64955300  1
  O  O14  1  0.14783700  0.35216300  0.75000000  1
  O  O15  1  0.35216300  0.14783700  0.25000000  1
  O  O16  1  0.85216300  0.64783700  0.25000000  1
  O  O17  1  0.64783700  0.85216300  0.75000000  1
  O  O18  1  0.23144300  0.76855700  0.66447800  1
  O  O19  1  0.76855700  0.23144300  0.33552200  1
  O  O20  1  0.26855700  0.73144300  0.16447800  1
  O  O21  1  0.73144300  0.26855700  0.83552200  1
  O  O22  1  0.38423900  0.15901400  0.46605800  1
  O  O23  1  0.15901400  0.38423900  0.53394200  1
  O  O24  1  0.11576100  0.34098600  0.96605800  1
  O  O25  1  0.34098600  0.11576100  0.03394200  1
  O  O26  1  0.61576100  0.84098600  0.53394200  1
  O  O27  1  0.84098600  0.61576100  0.46605800  1
  O  O28  1  0.04021000  0.95979000  0.85301000  1
  O  O29  1  0.95979000  0.04021000  0.14699000  1
  O  O30  1  0.45979000  0.54021000  0.35301000  1
  O  O31  1  0.54021000  0.45979000  0.64699000  1
  O  O32  1  0.65901400  0.88423900  0.96605800  1
  O  O33  1  0.88423900  0.65901400  0.03394200  1
