# generated using pymatgen
data_Sr3Sn2O7
_symmetry_space_group_name_H-M   'P 1'
_cell_length_a   10.76449157
_cell_length_b   10.76449157
_cell_length_c   5.80140300
_cell_angle_alpha   90.00000000
_cell_angle_beta   90.00000000
_cell_angle_gamma   148.25739542
_symmetry_Int_Tables_number   1
_chemical_formula_structural   Sr3Sn2O7
_chemical_formula_sum   'Sr6 Sn4 O14'
_cell_volume   353.66478243
_cell_formula_units_Z   2
loop_
 _symmetry_equiv_pos_site_id
 _symmetry_equiv_pos_as_xyz
  1  'x, y, z'
loop_
 _atom_site_type_symbol
 _atom_site_label
 _atom_site_symmetry_multiplicity
 _atom_site_fract_x
 _atom_site_fract_y
 _atom_site_fract_z
 _atom_site_occupancy
  Sr  Sr0  1  0.24294100  0.24294100  0.25000000  1
  Sr  Sr1  1  0.75705900  0.75705900  0.75000000  1
  Sr  Sr2  1  0.05017900  0.42466400  0.25000000  1
  Sr  Sr3  1  0.94982100  0.57533600  0.75000000  1
  Sr  Sr4  1  0.57533600  0.94982100  0.75000000  1
  Sr  Sr5  1  0.42466400  0.05017900  0.25000000  1
  Sn  Sn6  1  0.64949000  0.84705300  0.25000000  1
  Sn  Sn7  1  0.35051000  0.15294700  0.75000000  1
  Sn  Sn8  1  0.84705300  0.64949000  0.25000000  1
  Sn  Sn9  1  0.15294700  0.35051000  0.75000000  1
  O  O10  1  0.91753800  0.08246200  0.00000000  1
  O  O11  1  0.08246200  0.91753800  0.50000000  1
  O  O12  1  0.08246200  0.91753800  0.00000000  1
  O  O13  1  0.91753800  0.08246200  0.50000000  1
  O  O14  1  0.61339000  0.38661000  0.50000000  1
  O  O15  1  0.38661000  0.61339000  0.00000000  1
  O  O16  1  0.38661000  0.61339000  0.50000000  1
  O  O17  1  0.61339000  0.38661000  0.00000000  1
  O  O18  1  0.99188000  0.38638900  0.75000000  1
  O  O19  1  0.00812000  0.61361100  0.25000000  1
  O  O20  1  0.67361100  0.67361100  0.25000000  1
  O  O21  1  0.32638900  0.32638900  0.75000000  1
  O  O22  1  0.61361100  0.00812000  0.25000000  1
  O  O23  1  0.38638900  0.99188000  0.75000000  1
