# generated using pymatgen
data_Sr5Ge3
_symmetry_space_group_name_H-M   'P 1'
_cell_length_a   9.85454090
_cell_length_b   9.85454090
_cell_length_c   9.85454090
_cell_angle_alpha   130.99076733
_cell_angle_beta   130.99076733
_cell_angle_gamma   71.82774822
_symmetry_Int_Tables_number   1
_chemical_formula_structural   Sr5Ge3
_chemical_formula_sum   'Sr10 Ge6'
_cell_volume   533.34452650
_cell_formula_units_Z   2
loop_
 _symmetry_equiv_pos_site_id
 _symmetry_equiv_pos_as_xyz
  1  'x, y, z'
loop_
 _atom_site_type_symbol
 _atom_site_label
 _atom_site_symmetry_multiplicity
 _atom_site_fract_x
 _atom_site_fract_y
 _atom_site_fract_z
 _atom_site_occupancy
  Sr  Sr0  1  0.03752500  0.18089300  0.50000000  1
  Sr  Sr1  1  0.53752500  0.03752500  0.85663200  1
  Sr  Sr2  1  0.18089300  0.68089300  0.14336800  1
  Sr  Sr3  1  0.46247500  0.96247500  0.14336800  1
  Sr  Sr4  1  0.68089300  0.53752500  0.50000000  1
  Sr  Sr5  1  0.96247500  0.81910700  0.50000000  1
  Sr  Sr6  1  0.31910700  0.46247500  0.50000000  1
  Sr  Sr7  1  0.81910700  0.31910700  0.85663200  1
  Sr  Sr8  1  0.50000000  0.50000000  0.00000000  1
  Sr  Sr9  1  0.00000000  0.00000000  0.00000000  1
  Ge  Ge10  1  0.11372600  0.61372600  0.72745300  1
  Ge  Ge11  1  0.61372600  0.88627400  0.50000000  1
  Ge  Ge12  1  0.38627400  0.11372600  0.50000000  1
  Ge  Ge13  1  0.88627400  0.38627400  0.27254700  1
  Ge  Ge14  1  0.75000000  0.75000000  0.00000000  1
  Ge  Ge15  1  0.25000000  0.25000000  0.00000000  1
