# generated using pymatgen
data_Sn2Sb2S5
_symmetry_space_group_name_H-M   'P 1'
_cell_length_a   3.96887600
_cell_length_b   11.52423800
_cell_length_c   20.60156400
_cell_angle_alpha   90.00000000
_cell_angle_beta   90.00000000
_cell_angle_gamma   90.00000000
_symmetry_Int_Tables_number   1
_chemical_formula_structural   Sn2Sb2S5
_chemical_formula_sum   'Sn8 Sb8 S20'
_cell_volume   942.27992996
_cell_formula_units_Z   4
loop_
 _symmetry_equiv_pos_site_id
 _symmetry_equiv_pos_as_xyz
  1  'x, y, z'
loop_
 _atom_site_type_symbol
 _atom_site_label
 _atom_site_symmetry_multiplicity
 _atom_site_fract_x
 _atom_site_fract_y
 _atom_site_fract_z
 _atom_site_occupancy
  Sn  Sn0  1  0.25000000  0.16322100  0.20040600  1
  Sn  Sn1  1  0.75000000  0.83677900  0.79959400  1
  Sn  Sn2  1  0.75000000  0.66322100  0.29959400  1
  Sn  Sn3  1  0.25000000  0.33677900  0.70040600  1
  Sn  Sn4  1  0.25000000  0.49671000  0.08873400  1
  Sn  Sn5  1  0.75000000  0.50329000  0.91126600  1
  Sn  Sn6  1  0.75000000  0.99671000  0.41126600  1
  Sn  Sn7  1  0.25000000  0.00329000  0.58873400  1
  Sb  Sb8  1  0.25000000  0.37563900  0.36824800  1
  Sb  Sb9  1  0.75000000  0.62436100  0.63175200  1
  Sb  Sb10  1  0.75000000  0.87563900  0.13175200  1
  Sb  Sb11  1  0.25000000  0.12436100  0.86824800  1
  Sb  Sb12  1  0.25000000  0.70914500  0.47002600  1
  Sb  Sb13  1  0.75000000  0.29085500  0.52997400  1
  Sb  Sb14  1  0.75000000  0.20914500  0.02997400  1
  Sb  Sb15  1  0.25000000  0.79085500  0.97002600  1
  S  S16  1  0.25000000  0.42490700  0.57791500  1
  S  S17  1  0.75000000  0.57509300  0.42208500  1
  S  S18  1  0.75000000  0.92490700  0.92208500  1
  S  S19  1  0.25000000  0.07509300  0.07791500  1
  S  S20  1  0.25000000  0.36910700  0.98046700  1
  S  S21  1  0.75000000  0.63089300  0.01953300  1
  S  S22  1  0.75000000  0.86910700  0.51953300  1
  S  S23  1  0.25000000  0.13089300  0.48046700  1
  S  S24  1  0.25000000  0.74674800  0.67172000  1
  S  S25  1  0.75000000  0.25325200  0.32828000  1
  S  S26  1  0.75000000  0.24674800  0.82828000  1
  S  S27  1  0.25000000  0.75325200  0.17172000  1
  S  S28  1  0.25000000  0.82446100  0.37059900  1
  S  S29  1  0.75000000  0.17553900  0.62940100  1
  S  S30  1  0.75000000  0.32446100  0.12940100  1
  S  S31  1  0.25000000  0.67553900  0.87059900  1
  S  S32  1  0.25000000  0.50334900  0.27287600  1
  S  S33  1  0.75000000  0.49665100  0.72712400  1
  S  S34  1  0.75000000  0.00334900  0.22712400  1
  S  S35  1  0.25000000  0.99665100  0.77287600  1
