# generated using pymatgen
data_Tm3Sb
_symmetry_space_group_name_H-M   'P 1'
_cell_length_a   12.21396100
_cell_length_b   12.21396100
_cell_length_c   6.11243300
_cell_angle_alpha   90.00000000
_cell_angle_beta   90.00000000
_cell_angle_gamma   90.00000000
_symmetry_Int_Tables_number   1
_chemical_formula_structural   Tm3Sb
_chemical_formula_sum   'Tm24 Sb8'
_cell_volume   911.85790961
_cell_formula_units_Z   8
loop_
 _symmetry_equiv_pos_site_id
 _symmetry_equiv_pos_as_xyz
  1  'x, y, z'
loop_
 _atom_site_type_symbol
 _atom_site_label
 _atom_site_symmetry_multiplicity
 _atom_site_fract_x
 _atom_site_fract_y
 _atom_site_fract_z
 _atom_site_occupancy
  Tm  Tm0  1  0.28621100  0.17367600  0.01670900  1
  Tm  Tm1  1  0.67367600  0.21378900  0.51670900  1
  Tm  Tm2  1  0.32632400  0.78621100  0.51670900  1
  Tm  Tm3  1  0.71378900  0.82632400  0.01670900  1
  Tm  Tm4  1  0.21378900  0.32632400  0.48329100  1
  Tm  Tm5  1  0.82632400  0.28621100  0.98329100  1
  Tm  Tm6  1  0.17367600  0.71378900  0.98329100  1
  Tm  Tm7  1  0.78621100  0.67367600  0.48329100  1
  Tm  Tm8  1  0.03116200  0.14527700  0.71360500  1
  Tm  Tm9  1  0.64527700  0.46883800  0.21360500  1
  Tm  Tm10  1  0.35472300  0.53116200  0.21360500  1
  Tm  Tm11  1  0.96883800  0.85472300  0.71360500  1
  Tm  Tm12  1  0.46883800  0.35472300  0.78639500  1
  Tm  Tm13  1  0.85472300  0.03116200  0.28639500  1
  Tm  Tm14  1  0.14527700  0.96883800  0.28639500  1
  Tm  Tm15  1  0.53116200  0.64527700  0.78639500  1
  Tm  Tm16  1  0.60836300  0.91668400  0.53666000  1
  Tm  Tm17  1  0.41668400  0.89163700  0.03666000  1
  Tm  Tm18  1  0.58331600  0.10836300  0.03666000  1
  Tm  Tm19  1  0.39163700  0.08331600  0.53666000  1
  Tm  Tm20  1  0.89163700  0.58331600  0.96334000  1
  Tm  Tm21  1  0.08331600  0.60836300  0.46334000  1
  Tm  Tm22  1  0.91668400  0.39163700  0.46334000  1
  Tm  Tm23  1  0.10836300  0.41668400  0.96334000  1
  Sb  Sb24  1  0.80059200  0.04268700  0.79042100  1
  Sb  Sb25  1  0.54268700  0.69940800  0.29042100  1
  Sb  Sb26  1  0.45731300  0.30059200  0.29042100  1
  Sb  Sb27  1  0.19940800  0.95731300  0.79042100  1
  Sb  Sb28  1  0.69940800  0.45731300  0.70957900  1
  Sb  Sb29  1  0.95731300  0.80059200  0.20957900  1
  Sb  Sb30  1  0.04268700  0.19940800  0.20957900  1
  Sb  Sb31  1  0.30059200  0.54268700  0.70957900  1
