# generated using pymatgen
data_Na2SiF6
_symmetry_space_group_name_H-M   'P 1'
_cell_length_a   9.34512915
_cell_length_b   9.34512915
_cell_length_c   4.58200800
_cell_angle_alpha   90.00000000
_cell_angle_beta   90.00000000
_cell_angle_gamma   119.99999398
_symmetry_Int_Tables_number   1
_chemical_formula_structural   Na2SiF6
_chemical_formula_sum   'Na6 Si3 F18'
_cell_volume   346.54298870
_cell_formula_units_Z   3
loop_
 _symmetry_equiv_pos_site_id
 _symmetry_equiv_pos_as_xyz
  1  'x, y, z'
loop_
 _atom_site_type_symbol
 _atom_site_label
 _atom_site_symmetry_multiplicity
 _atom_site_fract_x
 _atom_site_fract_y
 _atom_site_fract_z
 _atom_site_occupancy
  Na  Na0  1  0.34317900  0.34317900  0.00000000  1
  Na  Na1  1  0.00000000  0.65682100  0.00000000  1
  Na  Na2  1  0.65682100  0.00000000  0.00000000  1
  Na  Na3  1  0.65682100  0.65682100  0.00000000  1
  Na  Na4  1  0.00000000  0.34317900  0.00000000  1
  Na  Na5  1  0.34317900  0.00000000  0.00000000  1
  Si  Si6  1  0.66666700  0.33333300  0.49994100  1
  Si  Si7  1  0.33333300  0.66666700  0.50005900  1
  Si  Si8  1  0.00000000  0.00000000  0.00000000  1
  F  F9  1  0.57918200  0.42081800  0.71611400  1
  F  F10  1  0.57918200  0.15836300  0.71611400  1
  F  F11  1  0.84163700  0.42081800  0.71611400  1
  F  F12  1  0.15836300  0.57918200  0.28388600  1
  F  F13  1  0.42081800  0.84163700  0.28388600  1
  F  F14  1  0.42081800  0.57918200  0.28388600  1
  F  F15  1  0.75413300  0.24586700  0.28566800  1
  F  F16  1  0.75413300  0.50826600  0.28566800  1
  F  F17  1  0.49173400  0.24586700  0.28566800  1
  F  F18  1  0.08826200  0.91173800  0.20935300  1
  F  F19  1  0.08826200  0.17652300  0.20935300  1
  F  F20  1  0.82347700  0.91173800  0.20935300  1
  F  F21  1  0.17652300  0.08826200  0.79064700  1
  F  F22  1  0.91173800  0.82347700  0.79064700  1
  F  F23  1  0.91173800  0.08826200  0.79064700  1
  F  F24  1  0.24586700  0.75413300  0.71433200  1
  F  F25  1  0.24586700  0.49173400  0.71433200  1
  F  F26  1  0.50826600  0.75413300  0.71433200  1
