# generated using pymatgen
data_NaMnPO4
_symmetry_space_group_name_H-M   'P 1'
_cell_length_a   5.17240100
_cell_length_b   6.98061600
_cell_length_c   9.21375900
_cell_angle_alpha   90.00000000
_cell_angle_beta   90.00000000
_cell_angle_gamma   90.00000000
_symmetry_Int_Tables_number   1
_chemical_formula_structural   NaMnPO4
_chemical_formula_sum   'Na4 Mn4 P4 O16'
_cell_volume   332.67700560
_cell_formula_units_Z   4
loop_
 _symmetry_equiv_pos_site_id
 _symmetry_equiv_pos_as_xyz
  1  'x, y, z'
loop_
 _atom_site_type_symbol
 _atom_site_label
 _atom_site_symmetry_multiplicity
 _atom_site_fract_x
 _atom_site_fract_y
 _atom_site_fract_z
 _atom_site_occupancy
  Na  Na0  1  0.02715400  0.25000000  0.34985100  1
  Na  Na1  1  0.52715400  0.75000000  0.15014900  1
  Na  Na2  1  0.97284600  0.75000000  0.65014900  1
  Na  Na3  1  0.47284600  0.25000000  0.84985100  1
  Mn  Mn4  1  0.50000000  0.00000000  0.50000000  1
  Mn  Mn5  1  0.00000000  0.00000000  0.00000000  1
  Mn  Mn6  1  0.50000000  0.50000000  0.50000000  1
  Mn  Mn7  1  0.00000000  0.50000000  0.00000000  1
  P  P8  1  0.02945200  0.75000000  0.32401400  1
  P  P9  1  0.52945200  0.25000000  0.17598600  1
  P  P10  1  0.97054800  0.25000000  0.67598600  1
  P  P11  1  0.47054800  0.75000000  0.82401400  1
  O  O12  1  0.04242600  0.75000000  0.15285500  1
  O  O13  1  0.54242600  0.25000000  0.34714500  1
  O  O14  1  0.95757400  0.25000000  0.84714500  1
  O  O15  1  0.45757400  0.75000000  0.65285500  1
  O  O16  1  0.75634500  0.75000000  0.87982100  1
  O  O17  1  0.25634500  0.25000000  0.62017900  1
  O  O18  1  0.24365500  0.25000000  0.12017900  1
  O  O19  1  0.74365500  0.75000000  0.37982100  1
  O  O20  1  0.82966000  0.06869100  0.62164400  1
  O  O21  1  0.32966000  0.93130900  0.87835600  1
  O  O22  1  0.17034000  0.56869100  0.37835600  1
  O  O23  1  0.67034000  0.43130900  0.12164400  1
  O  O24  1  0.17034000  0.93130900  0.37835600  1
  O  O25  1  0.67034000  0.06869100  0.12164400  1
  O  O26  1  0.82966000  0.43130900  0.62164400  1
  O  O27  1  0.32966000  0.56869100  0.87835600  1
