# generated using pymatgen
data_Ba3V2S4O3
_symmetry_space_group_name_H-M   'P 1'
_cell_length_a   6.07151694
_cell_length_b   10.33111552
_cell_length_c   10.30433217
_cell_angle_alpha   59.92823092
_cell_angle_beta   89.97596320
_cell_angle_gamma   89.76263431
_symmetry_Int_Tables_number   1
_chemical_formula_structural   Ba3V2S4O3
_chemical_formula_sum   'Ba6 V4 S8 O6'
_cell_volume   559.33997077
_cell_formula_units_Z   2
loop_
 _symmetry_equiv_pos_site_id
 _symmetry_equiv_pos_as_xyz
  1  'x, y, z'
loop_
 _atom_site_type_symbol
 _atom_site_label
 _atom_site_symmetry_multiplicity
 _atom_site_fract_x
 _atom_site_fract_y
 _atom_site_fract_z
 _atom_site_occupancy
  Ba  Ba0  1  0.17124300  0.93168900  0.69071000  1
  Ba  Ba1  1  0.67154700  0.30919900  0.62289500  1
  Ba  Ba2  1  0.67112300  0.62197300  0.06822200  1
  Ba  Ba3  1  0.17167900  0.37763200  0.93188900  1
  Ba  Ba4  1  0.17169200  0.69111500  0.37709500  1
  Ba  Ba5  1  0.67120300  0.06855100  0.30915500  1
  V  V6  1  0.80760600  0.66660700  0.66669700  1
  V  V7  1  0.43959400  0.00032900  0.99986700  1
  V  V8  1  0.30758300  0.33349400  0.33325200  1
  V  V9  1  0.93974700  0.99985000  0.99996500  1
  S  S10  1  0.94037100  0.33318900  0.33339900  1
  S  S11  1  0.44039000  0.66680800  0.66664400  1
  S  S12  1  0.18877200  0.78892700  0.03607700  1
  S  S13  1  0.68844300  0.96386600  0.82572000  1
  S  S14  1  0.69165500  0.21108200  0.96383900  1
  S  S15  1  0.19160000  0.03604500  0.17445900  1
  S  S16  1  0.19322800  0.17394300  0.79013400  1
  S  S17  1  0.68652700  0.82615000  0.20974600  1
  O  O18  1  0.40813800  0.37603200  0.15919500  1
  O  O19  1  0.90783900  0.84027600  0.53511400  1
  O  O20  1  0.90853000  0.53531200  0.62430300  1
  O  O21  1  0.40774500  0.46438200  0.37596800  1
  O  O22  1  0.40829300  0.15950000  0.46483100  1
  O  O23  1  0.90807200  0.62404800  0.84082300  1
