# generated using pymatgen
data_Li9Mn2Co5O16
_symmetry_space_group_name_H-M   'P 1'
_cell_length_a   5.89747857
_cell_length_b   10.13106200
_cell_length_c   5.92951496
_cell_angle_alpha   88.81796600
_cell_angle_beta   120.28949172
_cell_angle_gamma   107.56974944
_symmetry_Int_Tables_number   1
_chemical_formula_structural   Li9Mn2Co5O16
_chemical_formula_sum   'Li9 Mn2 Co5 O16'
_cell_volume   287.88942654
_cell_formula_units_Z   1
loop_
 _symmetry_equiv_pos_site_id
 _symmetry_equiv_pos_as_xyz
  1  'x, y, z'
loop_
 _atom_site_type_symbol
 _atom_site_label
 _atom_site_symmetry_multiplicity
 _atom_site_fract_x
 _atom_site_fract_y
 _atom_site_fract_z
 _atom_site_occupancy
  Li  Li0  1  0.00018900  0.99692900  0.50155100  1
  Li  Li1  1  0.00103900  0.25946500  0.25916900  1
  Li  Li2  1  0.99847500  0.50222800  0.99384900  1
  Li  Li3  1  0.50079500  0.99780300  0.99701600  1
  Li  Li4  1  0.50199000  0.25593500  0.75795700  1
  Li  Li5  1  0.50630800  0.50457600  0.50168300  1
  Li  Li6  1  0.49816300  0.74578900  0.24232800  1
  Li  Li7  1  0.99037700  0.74071800  0.73750200  1
  Li  Li8  1  0.99345500  0.49786300  0.49848400  1
  Mn  Mn9  1  0.00390200  0.00041700  0.99791200  1
  Mn  Mn10  1  0.99965900  0.25405500  0.75106300  1
  Co  Co11  1  0.00238100  0.74029100  0.25053400  1
  Co  Co12  1  0.49201400  0.99516900  0.49973900  1
  Co  Co13  1  0.50674400  0.25552900  0.25937300  1
  Co  Co14  1  0.50781700  0.50153700  0.00426600  1
  Co  Co15  1  0.48881100  0.74051800  0.74924900  1
  O  O16  1  0.78084000  0.87903600  0.12060900  1
  O  O17  1  0.77089500  0.11982100  0.87239400  1
  O  O18  1  0.76395000  0.36318500  0.64250600  1
  O  O19  1  0.26384900  0.88063800  0.61503800  1
  O  O20  1  0.25232200  0.12242900  0.34252300  1
  O  O21  1  0.24653400  0.36278200  0.10716800  1
  O  O22  1  0.27188300  0.63401200  0.86983900  1
  O  O23  1  0.73639500  0.62263600  0.34705800  1
  O  O24  1  0.21793400  0.12339100  0.86694900  1
  O  O25  1  0.24122700  0.37033200  0.64919600  1
  O  O26  1  0.24747500  0.63822400  0.37158800  1
  O  O27  1  0.74736000  0.13520900  0.40229100  1
  O  O28  1  0.71808800  0.36502500  0.13339700  1
  O  O29  1  0.74680300  0.62395200  0.87932900  1
  O  O30  1  0.75576000  0.88116500  0.65358900  1
  O  O31  1  0.24656900  0.88934300  0.12485100  1
