# generated using pymatgen
data_SrCrP2O7
_symmetry_space_group_name_H-M   'P 1'
_cell_length_a   8.49790600
_cell_length_b   5.47572900
_cell_length_c   13.97272120
_cell_angle_alpha   67.23665303
_cell_angle_beta   90.00000000
_cell_angle_gamma   90.00000000
_symmetry_Int_Tables_number   1
_chemical_formula_structural   SrCrP2O7
_chemical_formula_sum   'Sr4 Cr4 P8 O28'
_cell_volume   599.53977532
_cell_formula_units_Z   4
loop_
 _symmetry_equiv_pos_site_id
 _symmetry_equiv_pos_as_xyz
  1  'x, y, z'
loop_
 _atom_site_type_symbol
 _atom_site_label
 _atom_site_symmetry_multiplicity
 _atom_site_fract_x
 _atom_site_fract_y
 _atom_site_fract_z
 _atom_site_occupancy
  Sr  Sr0  1  0.17102100  0.48605400  0.22542000  1
  Sr  Sr1  1  0.67102100  0.51394600  0.27458000  1
  Sr  Sr2  1  0.82897900  0.51394600  0.77458000  1
  Sr  Sr3  1  0.32897900  0.48605400  0.72542000  1
  Cr  Cr4  1  0.13839200  0.80957500  0.89571200  1
  Cr  Cr5  1  0.86160800  0.19042500  0.10428800  1
  Cr  Cr6  1  0.63839200  0.19042500  0.60428800  1
  Cr  Cr7  1  0.36160800  0.80957500  0.39571200  1
  P  P8  1  0.28804800  0.16856600  0.51908900  1
  P  P9  1  0.78804800  0.83143400  0.98091100  1
  P  P10  1  0.71195200  0.83143400  0.48091100  1
  P  P11  1  0.21195200  0.16856600  0.01908900  1
  P  P12  1  0.97119600  0.91753300  0.32789200  1
  P  P13  1  0.52880400  0.91753300  0.82789200  1
  P  P14  1  0.02880400  0.08246700  0.67210800  1
  P  P15  1  0.47119600  0.08246700  0.17210800  1
  O  O16  1  0.29023100  0.37161300  0.40798900  1
  O  O17  1  0.79023100  0.62838700  0.09201100  1
  O  O18  1  0.70976900  0.62838700  0.59201100  1
  O  O19  1  0.20976900  0.37161300  0.90798900  1
  O  O20  1  0.17331600  0.88154100  0.03201500  1
  O  O21  1  0.67331600  0.11845900  0.46798500  1
  O  O22  1  0.82668400  0.11845900  0.96798500  1
  O  O23  1  0.32668400  0.88154100  0.53201500  1
  O  O24  1  0.44237700  0.30434700  0.21055900  1
  O  O25  1  0.94237700  0.69565300  0.28944100  1
  O  O26  1  0.55762300  0.69565300  0.78944100  1
  O  O27  1  0.05762300  0.30434700  0.71055900  1
  O  O28  1  0.39198000  0.16913900  0.05772500  1
  O  O29  1  0.89198000  0.83086100  0.44227500  1
  O  O30  1  0.60802000  0.83086100  0.94227500  1
  O  O31  1  0.10802000  0.16913900  0.55772500  1
  O  O32  1  0.35598300  0.96522300  0.84432000  1
  O  O33  1  0.85598300  0.03477700  0.65568000  1
  O  O34  1  0.64401700  0.03477700  0.15568000  1
  O  O35  1  0.14401700  0.96522300  0.34432000  1
  O  O36  1  0.39276000  0.25241700  0.59181000  1
  O  O37  1  0.89276000  0.74758300  0.90819000  1
  O  O38  1  0.39916600  0.81748100  0.24270800  1
  O  O39  1  0.10724000  0.25241700  0.09181000  1
  O  O40  1  0.10083400  0.81748100  0.74270800  1
  O  O41  1  0.60083400  0.18251900  0.75729200  1
  O  O42  1  0.89916600  0.18251900  0.25729200  1
  O  O43  1  0.60724000  0.74758300  0.40819000  1
