# generated using pymatgen
data_Na5VO5
_symmetry_space_group_name_H-M   'P 1'
_cell_length_a   5.85936500
_cell_length_b   6.67406600
_cell_length_c   16.29542900
_cell_angle_alpha   90.00000000
_cell_angle_beta   90.00000000
_cell_angle_gamma   90.00000000
_symmetry_Int_Tables_number   1
_chemical_formula_structural   Na5VO5
_chemical_formula_sum   'Na20 V4 O20'
_cell_volume   637.24560371
_cell_formula_units_Z   4
loop_
 _symmetry_equiv_pos_site_id
 _symmetry_equiv_pos_as_xyz
  1  'x, y, z'
loop_
 _atom_site_type_symbol
 _atom_site_label
 _atom_site_symmetry_multiplicity
 _atom_site_fract_x
 _atom_site_fract_y
 _atom_site_fract_z
 _atom_site_occupancy
  Na  Na0  1  0.51126000  0.00000000  0.25000000  1
  Na  Na1  1  0.48874000  0.50000000  0.75000000  1
  Na  Na2  1  0.51126000  0.50000000  0.25000000  1
  Na  Na3  1  0.48874000  0.00000000  0.75000000  1
  Na  Na4  1  0.21001200  0.98606000  0.08276700  1
  Na  Na5  1  0.21001200  0.01394000  0.41723300  1
  Na  Na6  1  0.78998800  0.48606000  0.91723300  1
  Na  Na7  1  0.78998800  0.51394000  0.58276700  1
  Na  Na8  1  0.78998800  0.01394000  0.91723300  1
  Na  Na9  1  0.78998800  0.98606000  0.58276700  1
  Na  Na10  1  0.21001200  0.51394000  0.08276700  1
  Na  Na11  1  0.21001200  0.48606000  0.41723300  1
  Na  Na12  1  0.99999000  0.75000000  0.23101800  1
  Na  Na13  1  0.99999000  0.25000000  0.26898200  1
  Na  Na14  1  0.00001000  0.25000000  0.76898200  1
  Na  Na15  1  0.00001000  0.75000000  0.73101800  1
  Na  Na16  1  0.66510900  0.75000000  0.08456200  1
  Na  Na17  1  0.66510900  0.25000000  0.41543800  1
  Na  Na18  1  0.33489100  0.25000000  0.91543800  1
  Na  Na19  1  0.33489100  0.75000000  0.58456200  1
  V  V20  1  0.22271300  0.25000000  0.59341700  1
  V  V21  1  0.22271300  0.75000000  0.90658300  1
  V  V22  1  0.77728700  0.75000000  0.40658300  1
  V  V23  1  0.77728700  0.25000000  0.09341700  1
  O  O24  1  0.64961900  0.25000000  0.82705200  1
  O  O25  1  0.64961900  0.75000000  0.67294800  1
  O  O26  1  0.35038100  0.25000000  0.32705200  1
  O  O27  1  0.35038100  0.75000000  0.17294800  1
  O  O28  1  0.83581700  0.46172900  0.15354500  1
  O  O29  1  0.83581700  0.53827100  0.34645500  1
  O  O30  1  0.16418300  0.96172900  0.84645500  1
  O  O31  1  0.16418300  0.03827100  0.65354500  1
  O  O32  1  0.16418300  0.53827100  0.84645500  1
  O  O33  1  0.16418300  0.46172900  0.65354500  1
  O  O34  1  0.83581700  0.03827100  0.15354500  1
  O  O35  1  0.83581700  0.96172900  0.34645500  1
  O  O36  1  0.97020400  0.25000000  0.01185700  1
  O  O37  1  0.97020400  0.75000000  0.48814300  1
  O  O38  1  0.02979600  0.75000000  0.98814300  1
  O  O39  1  0.02979600  0.25000000  0.51185700  1
  O  O40  1  0.49767900  0.25000000  0.05575500  1
  O  O41  1  0.49767900  0.75000000  0.44424500  1
  O  O42  1  0.50232100  0.75000000  0.94424500  1
  O  O43  1  0.50232100  0.25000000  0.55575500  1
