# generated using pymatgen
data_BaSiO3
_symmetry_space_group_name_H-M   'P 1'
_cell_length_a   5.51827359
_cell_length_b   5.51827359
_cell_length_c   13.28025100
_cell_angle_alpha   90.00000000
_cell_angle_beta   90.00000000
_cell_angle_gamma   119.99999513
_symmetry_Int_Tables_number   1
_chemical_formula_structural   BaSiO3
_chemical_formula_sum   'Ba6 Si6 O18'
_cell_volume   350.22197599
_cell_formula_units_Z   6
loop_
 _symmetry_equiv_pos_site_id
 _symmetry_equiv_pos_as_xyz
  1  'x, y, z'
loop_
 _atom_site_type_symbol
 _atom_site_label
 _atom_site_symmetry_multiplicity
 _atom_site_fract_x
 _atom_site_fract_y
 _atom_site_fract_z
 _atom_site_occupancy
  Ba  Ba0  1  0.33333300  0.66666700  0.40481900  1
  Ba  Ba1  1  0.66666700  0.33333300  0.90481900  1
  Ba  Ba2  1  0.66666700  0.33333300  0.59518100  1
  Ba  Ba3  1  0.33333300  0.66666700  0.09518100  1
  Ba  Ba4  1  0.00000000  0.00000000  0.75000000  1
  Ba  Ba5  1  0.00000000  0.00000000  0.25000000  1
  Si  Si6  1  0.33333300  0.66666700  0.65623600  1
  Si  Si7  1  0.66666700  0.33333300  0.15623600  1
  Si  Si8  1  0.66666700  0.33333300  0.34376400  1
  Si  Si9  1  0.33333300  0.66666700  0.84376400  1
  Si  Si10  1  0.00000000  0.00000000  0.50000000  1
  Si  Si11  1  0.00000000  0.00000000  0.00000000  1
  O  O12  1  0.83340800  0.16659200  0.41994100  1
  O  O13  1  0.83340800  0.66681700  0.41994100  1
  O  O14  1  0.33318300  0.16659200  0.41994100  1
  O  O15  1  0.66681700  0.83340800  0.91994100  1
  O  O16  1  0.16659200  0.33318300  0.58005900  1
  O  O17  1  0.16659200  0.83340800  0.91994100  1
  O  O18  1  0.16659200  0.33318300  0.91994100  1
  O  O19  1  0.83340800  0.16659200  0.08005900  1
  O  O20  1  0.33318300  0.16659200  0.08005900  1
  O  O21  1  0.66681700  0.83340800  0.58005900  1
  O  O22  1  0.16659200  0.83340800  0.58005900  1
  O  O23  1  0.83340800  0.66681700  0.08005900  1
  O  O24  1  0.52481800  0.04963600  0.25000000  1
  O  O25  1  0.47518200  0.52481800  0.75000000  1
  O  O26  1  0.04963600  0.52481800  0.75000000  1
  O  O27  1  0.95036400  0.47518200  0.25000000  1
  O  O28  1  0.52481800  0.47518200  0.25000000  1
  O  O29  1  0.47518200  0.95036400  0.75000000  1
