# generated using pymatgen
data_Nd2WO6
_symmetry_space_group_name_H-M   'P 1'
_cell_length_a   10.38730939
_cell_length_b   10.38730939
_cell_length_c   5.70467595
_cell_angle_alpha   74.99441483
_cell_angle_beta   74.99441483
_cell_angle_gamma   68.91594509
_symmetry_Int_Tables_number   1
_chemical_formula_structural   Nd2WO6
_chemical_formula_sum   'Nd8 W4 O24'
_cell_volume   545.25815231
_cell_formula_units_Z   4
loop_
 _symmetry_equiv_pos_site_id
 _symmetry_equiv_pos_as_xyz
  1  'x, y, z'
loop_
 _atom_site_type_symbol
 _atom_site_label
 _atom_site_symmetry_multiplicity
 _atom_site_fract_x
 _atom_site_fract_y
 _atom_site_fract_z
 _atom_site_occupancy
  Nd  Nd0  1  0.10829200  0.89170800  0.75000000  1
  Nd  Nd1  1  0.89170800  0.10829200  0.25000000  1
  Nd  Nd2  1  0.06358900  0.29090200  0.61780900  1
  Nd  Nd3  1  0.70909800  0.93641100  0.88219100  1
  Nd  Nd4  1  0.93641100  0.70909800  0.38219100  1
  Nd  Nd5  1  0.29090200  0.06358900  0.11780900  1
  Nd  Nd6  1  0.62982000  0.37018000  0.75000000  1
  Nd  Nd7  1  0.37018000  0.62982000  0.25000000  1
  W  W8  1  0.50268600  0.79799400  0.55595700  1
  W  W9  1  0.20200600  0.49731400  0.94404300  1
  W  W10  1  0.49731400  0.20200600  0.44404300  1
  W  W11  1  0.79799400  0.50268600  0.05595700  1
  O  O12  1  0.61248300  0.17604900  0.14147400  1
  O  O13  1  0.82395100  0.38751700  0.35852600  1
  O  O14  1  0.38751700  0.82395100  0.85852600  1
  O  O15  1  0.17604900  0.61248300  0.64147400  1
  O  O16  1  0.47440300  0.06952300  0.73176400  1
  O  O17  1  0.93047700  0.52559700  0.76823600  1
  O  O18  1  0.52559700  0.93047700  0.26823600  1
  O  O19  1  0.06952300  0.47440300  0.23176400  1
  O  O20  1  0.32858900  0.21512700  0.37370300  1
  O  O21  1  0.78487300  0.67141100  0.12629700  1
  O  O22  1  0.67141100  0.78487300  0.62629700  1
  O  O23  1  0.21512700  0.32858900  0.87370300  1
  O  O24  1  0.89108400  0.92189800  0.07314400  1
  O  O25  1  0.07810200  0.10891600  0.42685600  1
  O  O26  1  0.10891600  0.07810200  0.92685600  1
  O  O27  1  0.92189800  0.89108400  0.57314400  1
  O  O28  1  0.16306400  0.68079800  0.07892900  1
  O  O29  1  0.31920200  0.83693600  0.42107100  1
  O  O30  1  0.83693600  0.31920200  0.92107100  1
  O  O31  1  0.68079800  0.16306400  0.57892900  1
  O  O32  1  0.38229700  0.45777300  0.98279700  1
  O  O33  1  0.54222700  0.61770300  0.51720300  1
  O  O34  1  0.61770300  0.54222700  0.01720300  1
  O  O35  1  0.45777300  0.38229700  0.48279700  1
