# generated using pymatgen
data_Na4Fe2(PO4)3
_symmetry_space_group_name_H-M   'P 1'
_cell_length_a   8.85728725
_cell_length_b   8.85728725
_cell_length_c   8.85728804
_cell_angle_alpha   61.52862671
_cell_angle_beta   61.52862671
_cell_angle_gamma   61.52862386
_symmetry_Int_Tables_number   1
_chemical_formula_structural   Na4Fe2(PO4)3
_chemical_formula_sum   'Na8 Fe4 P6 O24'
_cell_volume   508.20229954
_cell_formula_units_Z   2
loop_
 _symmetry_equiv_pos_site_id
 _symmetry_equiv_pos_as_xyz
  1  'x, y, z'
loop_
 _atom_site_type_symbol
 _atom_site_label
 _atom_site_symmetry_multiplicity
 _atom_site_fract_x
 _atom_site_fract_y
 _atom_site_fract_z
 _atom_site_occupancy
  Na  Na0  1  0.38505800  0.11494200  0.75000000  1
  Na  Na1  1  0.75000000  0.38505800  0.11494200  1
  Na  Na2  1  0.11494200  0.75000000  0.38505800  1
  Na  Na3  1  0.61494200  0.88505800  0.25000000  1
  Na  Na4  1  0.25000000  0.61494200  0.88505800  1
  Na  Na5  1  0.88505800  0.25000000  0.61494200  1
  Na  Na6  1  0.00000000  0.00000000  0.00000000  1
  Na  Na7  1  0.50000000  0.50000000  0.50000000  1
  Fe  Fe8  1  0.14890800  0.14890800  0.14890800  1
  Fe  Fe9  1  0.35109200  0.35109200  0.35109200  1
  Fe  Fe10  1  0.85109200  0.85109200  0.85109200  1
  Fe  Fe11  1  0.64890800  0.64890800  0.64890800  1
  P  P12  1  0.04761200  0.45238800  0.75000000  1
  P  P13  1  0.75000000  0.04761200  0.45238800  1
  P  P14  1  0.45238800  0.75000000  0.04761200  1
  P  P15  1  0.95238800  0.54761200  0.25000000  1
  P  P16  1  0.25000000  0.95238800  0.54761200  1
  P  P17  1  0.54761200  0.25000000  0.95238800  1
  O  O18  1  0.06651300  0.27204900  0.91204900  1
  O  O19  1  0.91204900  0.06651300  0.27204900  1
  O  O20  1  0.27204900  0.91204900  0.06651300  1
  O  O21  1  0.43348700  0.58795100  0.22795100  1
  O  O22  1  0.22795100  0.43348700  0.58795100  1
  O  O23  1  0.58795100  0.22795100  0.43348700  1
  O  O24  1  0.93348700  0.72795100  0.08795100  1
  O  O25  1  0.08795100  0.93348700  0.72795100  1
  O  O26  1  0.72795100  0.08795100  0.93348700  1
  O  O27  1  0.56651300  0.41204900  0.77204900  1
  O  O28  1  0.77204900  0.56651300  0.41204900  1
  O  O29  1  0.41204900  0.77204900  0.56651300  1
  O  O30  1  0.98466600  0.38495900  0.20312900  1
  O  O31  1  0.20312900  0.98466600  0.38495900  1
  O  O32  1  0.38495900  0.20312900  0.98466600  1
  O  O33  1  0.51533400  0.29687100  0.11504100  1
  O  O34  1  0.11504100  0.51533400  0.29687100  1
  O  O35  1  0.29687100  0.11504100  0.51533400  1
  O  O36  1  0.70312900  0.88495900  0.48466600  1
  O  O37  1  0.88495900  0.48466600  0.70312900  1
  O  O38  1  0.48466600  0.70312900  0.88495900  1
  O  O39  1  0.61504100  0.79687100  0.01533400  1
  O  O40  1  0.79687100  0.01533400  0.61504100  1
  O  O41  1  0.01533400  0.61504100  0.79687100  1
