# generated using pymatgen
data_Tm8S11
_symmetry_space_group_name_H-M   'P 1'
_cell_length_a   6.61402500
_cell_length_b   6.61402500
_cell_length_c   35.08501300
_cell_angle_alpha   90.00000000
_cell_angle_beta   90.00000000
_cell_angle_gamma   147.03725041
_symmetry_Int_Tables_number   1
_chemical_formula_structural   Tm8S11
_chemical_formula_sum   'Tm16 S22'
_cell_volume   835.07786992
_cell_formula_units_Z   2
loop_
 _symmetry_equiv_pos_site_id
 _symmetry_equiv_pos_as_xyz
  1  'x, y, z'
loop_
 _atom_site_type_symbol
 _atom_site_label
 _atom_site_symmetry_multiplicity
 _atom_site_fract_x
 _atom_site_fract_y
 _atom_site_fract_z
 _atom_site_occupancy
  Tm  Tm0  1  0.98097400  0.01902600  0.63283400  1
  Tm  Tm1  1  0.01902600  0.98097400  0.36716600  1
  Tm  Tm2  1  0.01902600  0.98097400  0.13283400  1
  Tm  Tm3  1  0.98097400  0.01902600  0.86716600  1
  Tm  Tm4  1  0.75982600  0.24017400  0.18295400  1
  Tm  Tm5  1  0.24017400  0.75982600  0.81704600  1
  Tm  Tm6  1  0.24017400  0.75982600  0.68295400  1
  Tm  Tm7  1  0.75982600  0.24017400  0.31704600  1
  Tm  Tm8  1  0.74294700  0.25705300  0.55796800  1
  Tm  Tm9  1  0.25705300  0.74294700  0.44203200  1
  Tm  Tm10  1  0.25705300  0.74294700  0.05796800  1
  Tm  Tm11  1  0.74294700  0.25705300  0.94203200  1
  Tm  Tm12  1  0.51057800  0.48942200  0.25000000  1
  Tm  Tm13  1  0.48942200  0.51057800  0.75000000  1
  Tm  Tm14  1  0.00000000  0.00000000  0.50000000  1
  Tm  Tm15  1  0.00000000  0.00000000  0.00000000  1
  S  S16  1  0.60311100  0.39688900  0.83710900  1
  S  S17  1  0.39688900  0.60311100  0.16289100  1
  S  S18  1  0.39688900  0.60311100  0.33710900  1
  S  S19  1  0.60311100  0.39688900  0.66289100  1
  S  S20  1  0.66499100  0.33500900  0.11162900  1
  S  S21  1  0.33500900  0.66499100  0.88837100  1
  S  S22  1  0.33500900  0.66499100  0.61162900  1
  S  S23  1  0.66499100  0.33500900  0.38837100  1
  S  S24  1  0.64689500  0.35310500  0.01604700  1
  S  S25  1  0.35310500  0.64689500  0.98395300  1
  S  S26  1  0.35310500  0.64689500  0.51604700  1
  S  S27  1  0.64689500  0.35310500  0.48395300  1
  S  S28  1  0.88538700  0.11461300  0.79666400  1
  S  S29  1  0.11461300  0.88538700  0.20333600  1
  S  S30  1  0.11461300  0.88538700  0.29666400  1
  S  S31  1  0.88538700  0.11461300  0.70333600  1
  S  S32  1  0.14253900  0.85746100  0.75000000  1
  S  S33  1  0.85746100  0.14253900  0.25000000  1
  S  S34  1  0.90982000  0.09018000  0.43157600  1
  S  S35  1  0.09018000  0.90982000  0.56842400  1
  S  S36  1  0.09018000  0.90982000  0.93157600  1
  S  S37  1  0.90982000  0.09018000  0.06842400  1
