# generated using pymatgen
data_Ba2Co(BO2)6
_symmetry_space_group_name_H-M   'P 1'
_cell_length_a   7.02990300
_cell_length_b   12.31985169
_cell_length_c   7.03546327
_cell_angle_alpha   91.09971956
_cell_angle_beta   61.09893608
_cell_angle_gamma   74.00416919
_symmetry_Int_Tables_number   1
_chemical_formula_structural   Ba2Co(BO2)6
_chemical_formula_sum   'Ba4 Co2 B12 O24'
_cell_volume   504.30610202
_cell_formula_units_Z   2
loop_
 _symmetry_equiv_pos_site_id
 _symmetry_equiv_pos_as_xyz
  1  'x, y, z'
loop_
 _atom_site_type_symbol
 _atom_site_label
 _atom_site_symmetry_multiplicity
 _atom_site_fract_x
 _atom_site_fract_y
 _atom_site_fract_z
 _atom_site_occupancy
  Ba  Ba0  1  0.20897300  0.10407600  0.31217300  1
  Ba  Ba1  1  0.20849500  0.60408400  0.81279600  1
  Ba  Ba2  1  0.79150400  0.39591700  0.18720400  1
  Ba  Ba3  1  0.79102500  0.89592400  0.68782700  1
  Co  Co4  1  0.00000000  0.50000000  0.50000000  1
  Co  Co5  1  0.00000000  0.00000000  0.99999900  1
  B  B6  1  0.75686600  0.32233800  0.68780300  1
  B  B7  1  0.75657800  0.82254900  0.18751700  1
  B  B8  1  0.24342200  0.17745100  0.81248200  1
  B  B9  1  0.24313400  0.67766200  0.31219700  1
  B  B10  1  0.35446400  0.31722100  0.56145400  1
  B  B11  1  0.35490200  0.81720900  0.06087800  1
  B  B12  1  0.64509800  0.18279100  0.93912200  1
  B  B13  1  0.64553600  0.68277900  0.43854600  1
  B  B14  1  0.63391900  0.12196600  0.47716600  1
  B  B15  1  0.63443600  0.62180700  0.97703200  1
  B  B16  1  0.36556400  0.37819300  0.02296800  1
  B  B17  1  0.36608100  0.87803500  0.52283400  1
  O  O18  1  0.80451200  0.21355300  0.74941300  1
  O  O19  1  0.80455100  0.71385200  0.24914300  1
  O  O20  1  0.19545100  0.28614900  0.75085700  1
  O  O21  1  0.19548700  0.78644600  0.25058700  1
  O  O22  1  0.53639200  0.40188700  0.82919700  1
  O  O23  1  0.53619700  0.90210800  0.32923500  1
  O  O24  1  0.46380300  0.09789200  0.67076500  1
  O  O25  1  0.46360700  0.59811300  0.17080300  1
  O  O26  1  0.42763900  0.26807100  0.07195600  1
  O  O27  1  0.42799800  0.76791800  0.57162300  1
  O  O28  1  0.57200100  0.23208200  0.42837800  1
  O  O29  1  0.57236100  0.73192900  0.92804400  1
  O  O30  1  0.08458100  0.15696700  0.99793000  1
  O  O31  1  0.08462300  0.65689000  0.49747600  1
  O  O32  1  0.31342000  0.42011300  0.50579100  1
  O  O33  1  0.31452100  0.92014000  0.00480800  1
  O  O34  1  0.84016900  0.04288000  0.35626800  1
  O  O35  1  0.84034300  0.54233600  0.85714000  1
  O  O36  1  0.68547900  0.07986000  0.99519200  1
  O  O37  1  0.68658000  0.57988800  0.49420900  1
  O  O38  1  0.91537600  0.34311100  0.50252500  1
  O  O39  1  0.91541900  0.84303200  0.00207000  1
  O  O40  1  0.15965800  0.45766400  0.14286000  1
  O  O41  1  0.15983100  0.95712000  0.64373200  1
