# generated using pymatgen
data_BaEr2CoO5
_symmetry_space_group_name_H-M   'P 1'
_cell_length_a   3.76780751
_cell_length_b   5.79234211
_cell_length_c   6.70253204
_cell_angle_alpha   115.62635734
_cell_angle_beta   106.32342739
_cell_angle_gamma   89.99847323
_symmetry_Int_Tables_number   1
_chemical_formula_structural   BaEr2CoO5
_chemical_formula_sum   'Ba1 Er2 Co1 O5'
_cell_volume   125.31892916
_cell_formula_units_Z   1
loop_
 _symmetry_equiv_pos_site_id
 _symmetry_equiv_pos_as_xyz
  1  'x, y, z'
loop_
 _atom_site_type_symbol
 _atom_site_label
 _atom_site_symmetry_multiplicity
 _atom_site_fract_x
 _atom_site_fract_y
 _atom_site_fract_z
 _atom_site_occupancy
  Ba  Ba0  1  0.00000000  0.99999900  0.99999900  1
  Er  Er1  1  0.79637100  0.29641500  0.59273700  1
  Er  Er2  1  0.20362600  0.70358500  0.40726300  1
  Co  Co3  1  0.50000100  0.50000000  0.00000000  1
  O  O4  1  0.34767900  0.58865400  0.69541800  1
  O  O5  1  0.65232000  0.41134600  0.30458300  1
  O  O6  1  0.65228900  0.89312900  0.30449900  1
  O  O7  1  0.34771100  0.10687000  0.69550000  1
  O  O8  1  0.00000000  0.50000000  0.00000000  1
