# generated using pymatgen
data_CaCoP2O7
_symmetry_space_group_name_H-M   'P 1'
_cell_length_a   6.35010079
_cell_length_b   6.58636924
_cell_length_c   7.01151553
_cell_angle_alpha   83.79806491
_cell_angle_beta   90.18376196
_cell_angle_gamma   67.82028957
_symmetry_Int_Tables_number   1
_chemical_formula_structural   CaCoP2O7
_chemical_formula_sum   'Ca2 Co2 P4 O14'
_cell_volume   269.65341817
_cell_formula_units_Z   2
loop_
 _symmetry_equiv_pos_site_id
 _symmetry_equiv_pos_as_xyz
  1  'x, y, z'
loop_
 _atom_site_type_symbol
 _atom_site_label
 _atom_site_symmetry_multiplicity
 _atom_site_fract_x
 _atom_site_fract_y
 _atom_site_fract_z
 _atom_site_occupancy
  Ca  Ca0  1  0.29629700  0.73407600  0.61787400  1
  Ca  Ca1  1  0.70370700  0.26592200  0.38212800  1
  Co  Co2  1  0.24370900  0.13384100  0.19433100  1
  Co  Co3  1  0.75628800  0.86616000  0.80566700  1
  P  P4  1  0.16386200  0.65943200  0.12277700  1
  P  P5  1  0.83614100  0.34057000  0.87722000  1
  P  P6  1  0.24531600  0.22229400  0.63040500  1
  P  P7  1  0.75468300  0.77770600  0.36959700  1
  O  O8  1  0.08460300  0.75216000  0.91149200  1
  O  O9  1  0.91539200  0.24784600  0.08850800  1
  O  O10  1  0.23924600  0.81035700  0.23142600  1
  O  O11  1  0.76075600  0.18964100  0.76857700  1
  O  O12  1  0.32829500  0.41709000  0.14393600  1
  O  O13  1  0.67170400  0.58291100  0.85606000  1
  O  O14  1  0.64790400  0.61765100  0.44817200  1
  O  O15  1  0.35209500  0.38234900  0.55182900  1
  O  O16  1  0.11837700  0.15564700  0.47424600  1
  O  O17  1  0.88162400  0.84435000  0.52575300  1
  O  O18  1  0.06684800  0.35020900  0.77848000  1
  O  O19  1  0.58671200  0.99388800  0.25865900  1
  O  O20  1  0.41328900  0.00611000  0.74134200  1
  O  O21  1  0.93315400  0.64978900  0.22152100  1
