# generated using pymatgen
data_Na2Zn3Se4
_symmetry_space_group_name_H-M   'P 1'
_cell_length_a   9.11929781
_cell_length_b   9.11929781
_cell_length_c   9.11929781
_cell_angle_alpha   141.29929256
_cell_angle_beta   108.40234324
_cell_angle_gamma   84.48475899
_symmetry_Int_Tables_number   1
_chemical_formula_structural   Na2Zn3Se4
_chemical_formula_sum   'Na4 Zn6 Se8'
_cell_volume   435.25846884
_cell_formula_units_Z   2
loop_
 _symmetry_equiv_pos_site_id
 _symmetry_equiv_pos_as_xyz
  1  'x, y, z'
loop_
 _atom_site_type_symbol
 _atom_site_label
 _atom_site_symmetry_multiplicity
 _atom_site_fract_x
 _atom_site_fract_y
 _atom_site_fract_z
 _atom_site_occupancy
  Na  Na0  1  0.62514600  0.73540200  0.36054800  1
  Na  Na1  1  0.37485400  0.26459800  0.63945200  1
  Na  Na2  1  0.12514600  0.76459800  0.88974500  1
  Na  Na3  1  0.87485400  0.23540200  0.11025500  1
  Zn  Zn4  1  0.75000000  0.25000000  0.50000000  1
  Zn  Zn5  1  0.25000000  0.75000000  0.50000000  1
  Zn  Zn6  1  0.97222100  0.75000000  0.22222100  1
  Zn  Zn7  1  0.52777900  0.75000000  0.77777900  1
  Zn  Zn8  1  0.02777900  0.25000000  0.77777900  1
  Zn  Zn9  1  0.47222100  0.25000000  0.22222100  1
  Se  Se10  1  0.00618200  0.86673900  0.60038600  1
  Se  Se11  1  0.26635300  0.40579600  0.39961400  1
  Se  Se12  1  0.23364700  0.63326100  0.13944300  1
  Se  Se13  1  0.49381800  0.09420400  0.86055700  1
  Se  Se14  1  0.99381800  0.13326100  0.39961400  1
  Se  Se15  1  0.73364700  0.59420400  0.60038600  1
  Se  Se16  1  0.76635300  0.36673900  0.86055700  1
  Se  Se17  1  0.50618200  0.90579600  0.13944300  1
