# generated using pymatgen
data_NdFe3(BO3)4
_symmetry_space_group_name_H-M   'P 1'
_cell_length_a   6.15805061
_cell_length_b   6.15805061
_cell_length_c   6.15805056
_cell_angle_alpha   103.75290635
_cell_angle_beta   103.75290635
_cell_angle_gamma   103.75291528
_symmetry_Int_Tables_number   1
_chemical_formula_structural   NdFe3(BO3)4
_chemical_formula_sum   'Nd1 Fe3 B4 O12'
_cell_volume   209.33531181
_cell_formula_units_Z   1
loop_
 _symmetry_equiv_pos_site_id
 _symmetry_equiv_pos_as_xyz
  1  'x, y, z'
loop_
 _atom_site_type_symbol
 _atom_site_label
 _atom_site_symmetry_multiplicity
 _atom_site_fract_x
 _atom_site_fract_y
 _atom_site_fract_z
 _atom_site_occupancy
  Nd  Nd0  1  0.00000000  0.00000000  0.00000000  1
  Fe  Fe1  1  0.00000000  0.44926000  0.55074000  1
  Fe  Fe2  1  0.55074000  0.00000000  0.44926000  1
  Fe  Fe3  1  0.44926000  0.55074000  0.00000000  1
  B  B4  1  0.50000000  0.05343900  0.94656100  1
  B  B5  1  0.94656100  0.50000000  0.05343900  1
  B  B6  1  0.05343900  0.94656100  0.50000000  1
  B  B7  1  0.50000000  0.50000000  0.50000000  1
  O  O8  1  0.37362700  0.21004600  0.97081900  1
  O  O9  1  0.02918100  0.78995400  0.62637300  1
  O  O10  1  0.78995400  0.62637300  0.02918100  1
  O  O11  1  0.62637300  0.02918100  0.78995400  1
  O  O12  1  0.64340600  0.35659400  0.50000000  1
  O  O13  1  0.35659400  0.50000000  0.64340600  1
  O  O14  1  0.50000000  0.64340600  0.35659400  1
  O  O15  1  0.90999000  0.09001000  0.50000000  1
  O  O16  1  0.09001000  0.50000000  0.90999000  1
  O  O17  1  0.50000000  0.90999000  0.09001000  1
  O  O18  1  0.21004600  0.97081900  0.37362700  1
  O  O19  1  0.97081900  0.37362700  0.21004600  1
