# generated using pymatgen
data_Sr4Mn3O10
_symmetry_space_group_name_H-M   'P 1'
_cell_length_a   6.86346515
_cell_length_b   6.86346515
_cell_length_c   12.89237400
_cell_angle_alpha   90.00000000
_cell_angle_beta   90.00000000
_cell_angle_gamma   132.30849152
_symmetry_Int_Tables_number   1
_chemical_formula_structural   Sr4Mn3O10
_chemical_formula_sum   'Sr8 Mn6 O20'
_cell_volume   449.13442775
_cell_formula_units_Z   2
loop_
 _symmetry_equiv_pos_site_id
 _symmetry_equiv_pos_as_xyz
  1  'x, y, z'
loop_
 _atom_site_type_symbol
 _atom_site_label
 _atom_site_symmetry_multiplicity
 _atom_site_fract_x
 _atom_site_fract_y
 _atom_site_fract_z
 _atom_site_occupancy
  Sr  Sr0  1  0.76282400  0.23717600  0.88845600  1
  Sr  Sr1  1  0.26282400  0.73717600  0.61154400  1
  Sr  Sr2  1  0.73717600  0.26282400  0.38845600  1
  Sr  Sr3  1  0.02923400  0.97076600  0.35579900  1
  Sr  Sr4  1  0.23717600  0.76282400  0.11154400  1
  Sr  Sr5  1  0.47076600  0.52923400  0.85579900  1
  Sr  Sr6  1  0.97076600  0.02923400  0.64420100  1
  Sr  Sr7  1  0.52923400  0.47076600  0.14420100  1
  Mn  Mn8  1  0.00000000  0.00000000  0.00000000  1
  Mn  Mn9  1  0.13253600  0.86746400  0.84764300  1
  Mn  Mn10  1  0.86746400  0.13253600  0.15235700  1
  Mn  Mn11  1  0.36746400  0.63253600  0.34764300  1
  Mn  Mn12  1  0.50000000  0.50000000  0.50000000  1
  Mn  Mn13  1  0.63253600  0.36746400  0.65235700  1
  O  O14  1  0.77734100  0.22265900  0.65305500  1
  O  O15  1  0.22265900  0.77734100  0.34694500  1
  O  O16  1  0.38025100  0.16132100  0.53766300  1
  O  O17  1  0.33867900  0.11974900  0.96233700  1
  O  O18  1  0.27734100  0.72265900  0.84694500  1
  O  O19  1  0.16132100  0.38025100  0.46233700  1
  O  O20  1  0.66132100  0.88025100  0.03766300  1
  O  O21  1  0.83867900  0.61974900  0.53766300  1
  O  O22  1  0.63379800  0.86620200  0.25000000  1
  O  O23  1  0.03690800  0.96309200  0.14501100  1
  O  O24  1  0.88025100  0.66132100  0.96233700  1
  O  O25  1  0.11974900  0.33867900  0.03766300  1
  O  O26  1  0.72265900  0.27734100  0.15305500  1
  O  O27  1  0.36620200  0.13379800  0.75000000  1
  O  O28  1  0.46309200  0.53690800  0.64501100  1
  O  O29  1  0.96309200  0.03690800  0.85498900  1
  O  O30  1  0.13379800  0.36620200  0.25000000  1
  O  O31  1  0.53690800  0.46309200  0.35498900  1
  O  O32  1  0.61974900  0.83867900  0.46233700  1
  O  O33  1  0.86620200  0.63379800  0.75000000  1
