# generated using pymatgen
data_SrMnO3
_symmetry_space_group_name_H-M   'P 1'
_cell_length_a   5.52375708
_cell_length_b   9.24944400
_cell_length_c   5.52375500
_cell_angle_alpha   90.00000000
_cell_angle_beta   119.99992648
_cell_angle_gamma   90.00000000
_symmetry_Int_Tables_number   1
_chemical_formula_structural   SrMnO3
_chemical_formula_sum   'Sr4 Mn4 O12'
_cell_volume   244.40808021
_cell_formula_units_Z   4
loop_
 _symmetry_equiv_pos_site_id
 _symmetry_equiv_pos_as_xyz
  1  'x, y, z'
loop_
 _atom_site_type_symbol
 _atom_site_label
 _atom_site_symmetry_multiplicity
 _atom_site_fract_x
 _atom_site_fract_y
 _atom_site_fract_z
 _atom_site_occupancy
  Sr  Sr0  1  0.33333300  0.75000200  0.66666700  1
  Sr  Sr1  1  0.66666700  0.25000200  0.33333300  1
  Sr  Sr2  1  0.00000000  0.50000200  0.00000000  1
  Sr  Sr3  1  0.00000000  0.00000200  0.00000000  1
  Mn  Mn4  1  0.33333300  0.11308000  0.66666400  1
  Mn  Mn5  1  0.66666500  0.61308500  0.33333600  1
  Mn  Mn6  1  0.66667000  0.88690500  0.33333500  1
  Mn  Mn7  1  0.33333200  0.38690400  0.66666600  1
  O  O8  1  0.18107900  0.25000200  0.81892100  1
  O  O9  1  0.81892100  0.75000200  0.63784100  1
  O  O10  1  0.36215900  0.75000200  0.18107900  1
  O  O11  1  0.63784200  0.25000200  0.81892100  1
  O  O12  1  0.18107900  0.25000200  0.36215800  1
  O  O13  1  0.81892100  0.75000200  0.18107900  1
  O  O14  1  0.00000300  0.50000100  0.50000100  1
  O  O15  1  0.50000200  0.00000100  0.49999800  1
  O  O16  1  0.99999700  0.00000100  0.49999800  1
  O  O17  1  0.49999800  0.50000100  0.50000100  1
  O  O18  1  0.49999900  0.50000100  0.99999700  1
  O  O19  1  0.50000200  0.00000100  0.00000300  1
