# generated using pymatgen
data_Na5CoSO2
_symmetry_space_group_name_H-M   'P 1'
_cell_length_a   6.51968221
_cell_length_b   6.51967938
_cell_length_c   8.13028300
_cell_angle_alpha   90.00001875
_cell_angle_beta   90.00001875
_cell_angle_gamma   90.00006214
_symmetry_Int_Tables_number   1
_chemical_formula_structural   Na5CoSO2
_chemical_formula_sum   'Na10 Co2 S2 O4'
_cell_volume   345.58774131
_cell_formula_units_Z   2
loop_
 _symmetry_equiv_pos_site_id
 _symmetry_equiv_pos_as_xyz
  1  'x, y, z'
loop_
 _atom_site_type_symbol
 _atom_site_label
 _atom_site_symmetry_multiplicity
 _atom_site_fract_x
 _atom_site_fract_y
 _atom_site_fract_z
 _atom_site_occupancy
  Na  Na0  1  0.00000000  0.00000000  0.50000000  1
  Na  Na1  1  0.50000000  0.50000000  0.50000000  1
  Na  Na2  1  0.25000300  0.25000300  0.25398700  1
  Na  Na3  1  0.74999600  0.74999600  0.25398700  1
  Na  Na4  1  0.25000300  0.74999600  0.25399900  1
  Na  Na5  1  0.74999600  0.25000300  0.25399900  1
  Na  Na6  1  0.25000400  0.25000400  0.74599800  1
  Na  Na7  1  0.74999700  0.74999700  0.74599800  1
  Na  Na8  1  0.25000400  0.74999700  0.74601600  1
  Na  Na9  1  0.74999700  0.25000400  0.74601600  1
  Co  Co10  1  0.50000000  0.50000000  0.00000000  1
  Co  Co11  1  0.00000000  0.00000000  0.00000000  1
  S  S12  1  0.50000000  0.00000000  0.50000000  1
  S  S13  1  0.00000000  0.50000000  0.50000000  1
  O  O14  1  0.00000000  0.00000000  0.78192900  1
  O  O15  1  0.50000000  0.50000000  0.78194100  1
  O  O16  1  0.00000000  0.00000000  0.21807100  1
  O  O17  1  0.50000000  0.50000000  0.21805900  1
