# generated using pymatgen
data_BaCo2(PO4)2
_symmetry_space_group_name_H-M   'P 1'
_cell_length_a   4.90011523
_cell_length_b   16.19299974
_cell_length_c   4.90203421
_cell_angle_alpha   90.09413600
_cell_angle_beta   59.92178019
_cell_angle_gamma   81.25218700
_symmetry_Int_Tables_number   1
_chemical_formula_structural   BaCo2(PO4)2
_chemical_formula_sum   'Ba2 Co4 P4 O16'
_cell_volume   331.29033235
_cell_formula_units_Z   2
loop_
 _symmetry_equiv_pos_site_id
 _symmetry_equiv_pos_as_xyz
  1  'x, y, z'
loop_
 _atom_site_type_symbol
 _atom_site_label
 _atom_site_symmetry_multiplicity
 _atom_site_fract_x
 _atom_site_fract_y
 _atom_site_fract_z
 _atom_site_occupancy
  Ba  Ba0  1  0.99990800  0.50011400  0.50006900  1
  Ba  Ba1  1  0.99977600  0.99976900  0.00025700  1
  Co  Co2  1  0.83051100  0.75475700  0.58489600  1
  Co  Co3  1  0.16884400  0.24555400  0.41491500  1
  Co  Co4  1  0.83218300  0.25409600  0.08599800  1
  Co  Co5  1  0.16956100  0.74523100  0.91502200  1
  P  P6  1  0.42658500  0.85939500  0.28696000  1
  P  P7  1  0.42688000  0.35967400  0.78654100  1
  P  P8  1  0.57342100  0.64064600  0.21300100  1
  P  P9  1  0.57320000  0.14039200  0.71367000  1
  O  O10  1  0.36240100  0.95542900  0.31880500  1
  O  O11  1  0.36288000  0.45571600  0.81753100  1
  O  O12  1  0.63696200  0.54462700  0.18146800  1
  O  O13  1  0.63590000  0.04434100  0.68238700  1
  O  O14  1  0.56236300  0.67261000  0.52224200  1
  O  O15  1  0.56358800  0.17260000  0.02145400  1
  O  O16  1  0.24335600  0.67247900  0.23366100  1
  O  O17  1  0.24260300  0.17241500  0.73482400  1
  O  O18  1  0.43785200  0.82746000  0.97757500  1
  O  O19  1  0.43877000  0.32754200  0.47637000  1
  O  O20  1  0.14857900  0.82791600  0.58575400  1
  O  O21  1  0.14892400  0.32814400  0.08441100  1
  O  O22  1  0.85162900  0.67204400  0.91415600  1
  O  O23  1  0.85089400  0.17166700  0.41475600  1
  O  O24  1  0.75674200  0.82769600  0.26619700  1
  O  O25  1  0.75568800  0.32768500  0.76708400  1
