# generated using pymatgen
data_La4V5(Si2O11)2
_symmetry_space_group_name_H-M   'P 1'
_cell_length_a   5.73083100
_cell_length_b   7.39188203
_cell_length_c   11.23628247
_cell_angle_alpha   99.77409423
_cell_angle_beta   90.00000000
_cell_angle_gamma   112.80795857
_symmetry_Int_Tables_number   1
_chemical_formula_structural   La4V5(Si2O11)2
_chemical_formula_sum   'La4 V5 Si4 O22'
_cell_volume   431.26453223
_cell_formula_units_Z   1
loop_
 _symmetry_equiv_pos_site_id
 _symmetry_equiv_pos_as_xyz
  1  'x, y, z'
loop_
 _atom_site_type_symbol
 _atom_site_label
 _atom_site_symmetry_multiplicity
 _atom_site_fract_x
 _atom_site_fract_y
 _atom_site_fract_z
 _atom_site_occupancy
  La  La0  1  0.92717700  0.85435600  0.75218600  1
  La  La1  1  0.07282200  0.14564500  0.24781500  1
  La  La2  1  0.64348000  0.28696100  0.75733300  1
  La  La3  1  0.35652000  0.71303900  0.24266800  1
  V  V4  1  0.49999900  0.00000000  0.00000000  1
  V  V5  1  0.49999900  0.49999900  0.50000000  1
  V  V6  1  0.50000000  0.00000000  0.50000000  1
  V  V7  1  0.00000000  0.00000000  0.50000000  1
  V  V8  1  0.00000000  0.49999900  0.50000000  1
  Si  Si9  1  0.13823100  0.27646100  0.95697400  1
  Si  Si10  1  0.86176800  0.72353800  0.04302600  1
  Si  Si11  1  0.29580500  0.59160900  0.77045800  1
  Si  Si12  1  0.70419400  0.40839000  0.22954200  1
  O  O13  1  0.21757500  0.43515100  0.86358800  1
  O  O14  1  0.78242400  0.56484800  0.13641200  1
  O  O15  1  0.69498300  0.86011800  0.08602600  1
  O  O16  1  0.83486500  0.13988200  0.91397400  1
  O  O17  1  0.30501800  0.13988200  0.91397400  1
  O  O18  1  0.16513500  0.86011800  0.08602600  1
  O  O19  1  0.81110300  0.62220700  0.90212000  1
  O  O20  1  0.18889700  0.37779300  0.09788000  1
  O  O21  1  0.41073000  0.82146000  0.83950800  1
  O  O22  1  0.58926900  0.17853900  0.16049200  1
  O  O23  1  0.48855700  0.45130900  0.31173700  1
  O  O24  1  0.03724900  0.54869200  0.68826400  1
  O  O25  1  0.51144300  0.54869200  0.68826400  1
  O  O26  1  0.34970200  0.69940300  0.48524800  1
  O  O27  1  0.65029700  0.30059500  0.51475200  1
  O  O28  1  0.14261100  0.28522200  0.47544700  1
  O  O29  1  0.85738900  0.71477800  0.52455200  1
  O  O30  1  0.96275100  0.45130900  0.31173700  1
  O  O31  1  0.78181400  0.04471800  0.62941400  1
  O  O32  1  0.26290300  0.04471800  0.62941400  1
  O  O33  1  0.21818500  0.95528100  0.37058600  1
  O  O34  1  0.73709600  0.95528100  0.37058600  1
