# generated using pymatgen
data_HoCrO4
_symmetry_space_group_name_H-M   'P 1'
_cell_length_a   6.68862599
_cell_length_b   6.68862599
_cell_length_c   6.68862599
_cell_angle_alpha   135.72936318
_cell_angle_beta   135.72936318
_cell_angle_gamma   64.39902259
_symmetry_Int_Tables_number   1
_chemical_formula_structural   HoCrO4
_chemical_formula_sum   'Ho2 Cr2 O8'
_cell_volume   143.79824435
_cell_formula_units_Z   2
loop_
 _symmetry_equiv_pos_site_id
 _symmetry_equiv_pos_as_xyz
  1  'x, y, z'
loop_
 _atom_site_type_symbol
 _atom_site_label
 _atom_site_symmetry_multiplicity
 _atom_site_fract_x
 _atom_site_fract_y
 _atom_site_fract_z
 _atom_site_occupancy
  Ho  Ho0  1  0.50000000  0.50000000  0.00000000  1
  Ho  Ho1  1  0.25000000  0.75000000  0.50000000  1
  Cr  Cr2  1  0.00000000  0.00000000  0.00000000  1
  Cr  Cr3  1  0.75000000  0.25000000  0.50000000  1
  O  O4  1  0.66262200  0.06809000  0.88618500  1
  O  O5  1  0.81809000  0.43190500  0.90546800  1
  O  O6  1  0.52643700  0.91262200  0.09453200  1
  O  O7  1  0.18190500  0.77643700  0.11381500  1
  O  O8  1  0.56809500  0.47356300  0.38618500  1
  O  O9  1  0.22356300  0.33737800  0.40546800  1
  O  O10  1  0.93191000  0.81809500  0.59453200  1
  O  O11  1  0.08737800  0.18191000  0.61381500  1
