# generated using pymatgen
data_Co2SiO4
_symmetry_space_group_name_H-M   'P 1'
_cell_length_a   5.80591519
_cell_length_b   5.80591519
_cell_length_c   5.80591519
_cell_angle_alpha   60.00000000
_cell_angle_beta   60.00000000
_cell_angle_gamma   60.00000000
_symmetry_Int_Tables_number   1
_chemical_formula_structural   Co2SiO4
_chemical_formula_sum   'Co4 Si2 O8'
_cell_volume   138.38756390
_cell_formula_units_Z   2
loop_
 _symmetry_equiv_pos_site_id
 _symmetry_equiv_pos_as_xyz
  1  'x, y, z'
loop_
 _atom_site_type_symbol
 _atom_site_label
 _atom_site_symmetry_multiplicity
 _atom_site_fract_x
 _atom_site_fract_y
 _atom_site_fract_z
 _atom_site_occupancy
  Co  Co0  1  0.62500000  0.62500000  0.12500000  1
  Co  Co1  1  0.62500000  0.62500000  0.62500000  1
  Co  Co2  1  0.62500000  0.12500000  0.62500000  1
  Co  Co3  1  0.12500000  0.62500000  0.62500000  1
  Si  Si4  1  0.00000000  0.00000000  0.00000000  1
  Si  Si5  1  0.25000000  0.25000000  0.25000000  1
  O  O6  1  0.88280100  0.88280100  0.88280100  1
  O  O7  1  0.35159700  0.88280100  0.88280100  1
  O  O8  1  0.36719900  0.36719900  0.36719900  1
  O  O9  1  0.88280100  0.88280100  0.35159700  1
  O  O10  1  0.89840300  0.36719900  0.36719900  1
  O  O11  1  0.88280100  0.35159700  0.88280100  1
  O  O12  1  0.36719900  0.36719900  0.89840300  1
  O  O13  1  0.36719900  0.89840300  0.36719900  1
