# generated using pymatgen
data_NiAgO2
_symmetry_space_group_name_H-M   'P 1'
_cell_length_a   6.39879126
_cell_length_b   6.39877754
_cell_length_c   6.39880580
_cell_angle_alpha   27.13921977
_cell_angle_beta   27.13864330
_cell_angle_gamma   27.13957840
_symmetry_Int_Tables_number   1
_chemical_formula_structural   NiAgO2
_chemical_formula_sum   'Ni1 Ag1 O2'
_cell_volume   48.09311136
_cell_formula_units_Z   1
loop_
 _symmetry_equiv_pos_site_id
 _symmetry_equiv_pos_as_xyz
  1  'x, y, z'
loop_
 _atom_site_type_symbol
 _atom_site_label
 _atom_site_symmetry_multiplicity
 _atom_site_fract_x
 _atom_site_fract_y
 _atom_site_fract_z
 _atom_site_occupancy
  Ni  Ni0  1  0.49999700  0.50000400  0.50000300  1
  Ag  Ag1  1  0.00000200  0.99999900  0.99999900  1
  O  O2  1  0.88808600  0.88809500  0.88808100  1
  O  O3  1  0.11191700  0.11190200  0.11191600  1
