# generated using pymatgen
data_Sr2Mn3(AsO)2
_symmetry_space_group_name_H-M   'P 1'
_cell_length_a   4.24379600
_cell_length_b   4.24379601
_cell_length_c   10.12752281
_cell_angle_alpha   102.09410325
_cell_angle_beta   102.09410407
_cell_angle_gamma   89.99999614
_symmetry_Int_Tables_number   1
_chemical_formula_structural   Sr2Mn3(AsO)2
_chemical_formula_sum   'Sr2 Mn3 As2 O2'
_cell_volume   174.20408223
_cell_formula_units_Z   1
loop_
 _symmetry_equiv_pos_site_id
 _symmetry_equiv_pos_as_xyz
  1  'x, y, z'
loop_
 _atom_site_type_symbol
 _atom_site_label
 _atom_site_symmetry_multiplicity
 _atom_site_fract_x
 _atom_site_fract_y
 _atom_site_fract_z
 _atom_site_occupancy
  Sr  Sr0  1  0.58458200  0.58458200  0.16916300  1
  Sr  Sr1  1  0.41541800  0.41541900  0.83083700  1
  Mn  Mn2  1  0.00000000  0.00000000  0.00000000  1
  Mn  Mn3  1  0.75000000  0.24999900  0.50000000  1
  Mn  Mn4  1  0.24999900  0.74999900  0.50000000  1
  As  As5  1  0.16504000  0.16504100  0.33008100  1
  As  As6  1  0.83496000  0.83496000  0.66991900  1
  O  O7  1  0.00000100  0.50000000  0.00000000  1
  O  O8  1  0.49999900  0.00000000  0.00000000  1
