# generated using pymatgen
data_TiFeO3
_symmetry_space_group_name_H-M   'P 1'
_cell_length_a   2.92056600
_cell_length_b   5.01185859
_cell_length_c   7.25684500
_cell_angle_alpha   90.00000000
_cell_angle_beta   90.00000000
_cell_angle_gamma   106.93972797
_symmetry_Int_Tables_number   1
_chemical_formula_structural   TiFeO3
_chemical_formula_sum   'Ti2 Fe2 O6'
_cell_volume   101.61303157
_cell_formula_units_Z   2
loop_
 _symmetry_equiv_pos_site_id
 _symmetry_equiv_pos_as_xyz
  1  'x, y, z'
loop_
 _atom_site_type_symbol
 _atom_site_label
 _atom_site_symmetry_multiplicity
 _atom_site_fract_x
 _atom_site_fract_y
 _atom_site_fract_z
 _atom_site_occupancy
  Ti  Ti0  1  0.00000000  0.00000000  0.00000000  1
  Ti  Ti1  1  0.00000000  0.00000000  0.50000000  1
  Fe  Fe2  1  0.74696500  0.49393300  0.25000000  1
  Fe  Fe3  1  0.25303300  0.50606700  0.75000000  1
  O  O4  1  0.36931300  0.73862500  0.43487700  1
  O  O5  1  0.36931300  0.73862500  0.06512200  1
  O  O6  1  0.91578100  0.83156400  0.75000000  1
  O  O7  1  0.63068600  0.26137400  0.93487700  1
  O  O8  1  0.63068600  0.26137400  0.56512200  1
  O  O9  1  0.08421800  0.16843500  0.25000000  1
