# generated using pymatgen
data_MgCrO4
_symmetry_space_group_name_H-M   'P 1'
_cell_length_a   5.06723850
_cell_length_b   5.06723850
_cell_length_c   6.48492500
_cell_angle_alpha   90.00000000
_cell_angle_beta   90.00000000
_cell_angle_gamma   113.54408682
_symmetry_Int_Tables_number   1
_chemical_formula_structural   MgCrO4
_chemical_formula_sum   'Mg2 Cr2 O8'
_cell_volume   152.65111473
_cell_formula_units_Z   2
loop_
 _symmetry_equiv_pos_site_id
 _symmetry_equiv_pos_as_xyz
  1  'x, y, z'
loop_
 _atom_site_type_symbol
 _atom_site_label
 _atom_site_symmetry_multiplicity
 _atom_site_fract_x
 _atom_site_fract_y
 _atom_site_fract_z
 _atom_site_occupancy
  Mg  Mg0  1  0.00000000  0.00000000  0.00000000  1
  Mg  Mg1  1  0.00000000  0.00000000  0.50000000  1
  Cr  Cr2  1  0.35689800  0.64310200  0.75000000  1
  Cr  Cr3  1  0.64310200  0.35689800  0.25000000  1
  O  O4  1  0.72378600  0.78334200  0.75000000  1
  O  O5  1  0.27621400  0.21665800  0.25000000  1
  O  O6  1  0.78334200  0.72378600  0.25000000  1
  O  O7  1  0.21665800  0.27621400  0.75000000  1
  O  O8  1  0.24432900  0.75567100  0.95429300  1
  O  O9  1  0.75567100  0.24432900  0.45429300  1
  O  O10  1  0.75567100  0.24432900  0.04570700  1
  O  O11  1  0.24432900  0.75567100  0.54570700  1
