# generated using pymatgen
data_VO
_symmetry_space_group_name_H-M   'P 1'
_cell_length_a   4.40566989
_cell_length_b   4.40566359
_cell_length_c   5.37987805
_cell_angle_alpha   113.79481861
_cell_angle_beta   66.20553698
_cell_angle_gamma   89.49765098
_symmetry_Int_Tables_number   1
_chemical_formula_structural   VO
_chemical_formula_sum   'V4 O4'
_cell_volume   85.57003921
_cell_formula_units_Z   4
loop_
 _symmetry_equiv_pos_site_id
 _symmetry_equiv_pos_as_xyz
  1  'x, y, z'
loop_
 _atom_site_type_symbol
 _atom_site_label
 _atom_site_symmetry_multiplicity
 _atom_site_fract_x
 _atom_site_fract_y
 _atom_site_fract_z
 _atom_site_occupancy
  V  V0  1  0.49897000  0.49897000  0.00000000  1
  V  V1  1  0.75103000  0.75102900  0.50000000  1
  V  V2  1  0.99896700  0.99896800  0.00000000  1
  V  V3  1  0.25103300  0.25103300  0.50000000  1
  O  O4  1  0.75133300  0.25132700  0.49999300  1
  O  O5  1  0.99867300  0.49866700  0.99999300  1
  O  O6  1  0.25132700  0.75133300  0.50000700  1
  O  O7  1  0.49866700  0.99867200  0.00000700  1
