# generated using pymatgen
data_CaFe3O5
_symmetry_space_group_name_H-M   'P 1'
_cell_length_a   3.05341400
_cell_length_b   5.36785325
_cell_length_c   12.74636700
_cell_angle_alpha   90.00000000
_cell_angle_beta   90.00000000
_cell_angle_gamma   106.52398392
_symmetry_Int_Tables_number   1
_chemical_formula_structural   CaFe3O5
_chemical_formula_sum   'Ca2 Fe6 O10'
_cell_volume   200.28840960
_cell_formula_units_Z   2
loop_
 _symmetry_equiv_pos_site_id
 _symmetry_equiv_pos_as_xyz
  1  'x, y, z'
loop_
 _atom_site_type_symbol
 _atom_site_label
 _atom_site_symmetry_multiplicity
 _atom_site_fract_x
 _atom_site_fract_y
 _atom_site_fract_z
 _atom_site_occupancy
  Ca  Ca0  1  0.52127300  0.04254500  0.75000000  1
  Ca  Ca1  1  0.47872800  0.95745500  0.25000000  1
  Fe  Fe2  1  0.00000000  0.00000000  0.50000000  1
  Fe  Fe3  1  0.26797800  0.53595700  0.89058500  1
  Fe  Fe4  1  0.73202200  0.46404200  0.10941500  1
  Fe  Fe5  1  0.00000000  0.00000000  0.00000000  1
  Fe  Fe6  1  0.73202200  0.46404200  0.39058600  1
  Fe  Fe7  1  0.26797800  0.53595700  0.60941400  1
  O  O8  1  0.90061600  0.80123000  0.63718300  1
  O  O9  1  0.09938500  0.19877000  0.36281700  1
  O  O10  1  0.09938500  0.19877000  0.13718300  1
  O  O11  1  0.90061600  0.80123000  0.86281700  1
  O  O12  1  0.65119600  0.30238900  0.94918500  1
  O  O13  1  0.34880500  0.69760900  0.05081500  1
  O  O14  1  0.34880500  0.69760900  0.44918500  1
  O  O15  1  0.65119600  0.30238900  0.55081500  1
  O  O16  1  0.18885400  0.37770800  0.75000000  1
  O  O17  1  0.81114600  0.62229100  0.25000000  1
