# generated using pymatgen
data_Ba3CrO5
_symmetry_space_group_name_H-M   'P 1'
_cell_length_a   7.39904301
_cell_length_b   7.39904235
_cell_length_c   7.90031075
_cell_angle_alpha   117.92240350
_cell_angle_beta   117.92240227
_cell_angle_gamma   90.00000370
_symmetry_Int_Tables_number   1
_chemical_formula_structural   Ba3CrO5
_chemical_formula_sum   'Ba6 Cr2 O10'
_cell_volume   324.07499229
_cell_formula_units_Z   2
loop_
 _symmetry_equiv_pos_site_id
 _symmetry_equiv_pos_as_xyz
  1  'x, y, z'
loop_
 _atom_site_type_symbol
 _atom_site_label
 _atom_site_symmetry_multiplicity
 _atom_site_fract_x
 _atom_site_fract_y
 _atom_site_fract_z
 _atom_site_occupancy
  Ba  Ba0  1  0.75000100  0.75000000  0.50000000  1
  Ba  Ba1  1  0.25000100  0.25000000  0.50000000  1
  Ba  Ba2  1  0.18079800  0.31919700  0.99999500  1
  Ba  Ba3  1  0.81919700  0.68079900  0.99999500  1
  Ba  Ba4  1  0.68080200  0.18080300  0.00000500  1
  Ba  Ba5  1  0.31920300  0.81920100  0.00000500  1
  Cr  Cr6  1  0.25000000  0.75000000  0.50000000  1
  Cr  Cr7  1  0.74999900  0.25000000  0.50000000  1
  O  O8  1  0.00000000  0.00000000  0.00000000  1
  O  O9  1  0.50000000  0.50000000  0.00000000  1
  O  O10  1  0.02094500  0.52094600  0.31353400  1
  O  O11  1  0.70740600  0.20740600  0.68646400  1
  O  O12  1  0.97905800  0.47905700  0.68646400  1
  O  O13  1  0.20741100  0.97905300  0.68646500  1
  O  O14  1  0.47905400  0.70741200  0.68646600  1
  O  O15  1  0.79259400  0.02094200  0.31353700  1
  O  O16  1  0.52094200  0.29259400  0.31353700  1
  O  O17  1  0.29258800  0.79258800  0.31353400  1
