# generated using pymatgen
data_Sr2Mn3(SbO)2
_symmetry_space_group_name_H-M   'P 1'
_cell_length_a   4.34505277
_cell_length_b   4.34505234
_cell_length_c   10.73211514
_cell_angle_alpha   101.67922382
_cell_angle_beta   101.67922592
_cell_angle_gamma   89.99999534
_symmetry_Int_Tables_number   1
_chemical_formula_structural   Sr2Mn3(SbO)2
_chemical_formula_sum   'Sr2 Mn3 Sb2 O2'
_cell_volume   194.13630555
_cell_formula_units_Z   1
loop_
 _symmetry_equiv_pos_site_id
 _symmetry_equiv_pos_as_xyz
  1  'x, y, z'
loop_
 _atom_site_type_symbol
 _atom_site_label
 _atom_site_symmetry_multiplicity
 _atom_site_fract_x
 _atom_site_fract_y
 _atom_site_fract_z
 _atom_site_occupancy
  Sr  Sr0  1  0.42160900  0.42160900  0.84321800  1
  Sr  Sr1  1  0.57839200  0.57839200  0.15678300  1
  Mn  Mn2  1  0.00000000  0.00000000  0.00000000  1
  Mn  Mn3  1  0.75000000  0.25000100  0.50000000  1
  Mn  Mn4  1  0.25000100  0.75000000  0.50000000  1
  Sb  Sb5  1  0.83911600  0.83911600  0.67823200  1
  Sb  Sb6  1  0.16088300  0.16088300  0.32176700  1
  O  O7  1  0.99999900  0.49999900  0.00000000  1
  O  O8  1  0.50000100  0.00000000  0.00000000  1
