# generated using pymatgen
data_CoO
_symmetry_space_group_name_H-M   'P 1'
_cell_length_a   4.21412297
_cell_length_b   4.50177138
_cell_length_c   5.21252646
_cell_angle_alpha   64.38006027
_cell_angle_beta   113.87672901
_cell_angle_gamma   90.07736036
_symmetry_Int_Tables_number   1
_chemical_formula_structural   CoO
_chemical_formula_sum   'Co4 O4'
_cell_volume   79.70449348
_cell_formula_units_Z   4
loop_
 _symmetry_equiv_pos_site_id
 _symmetry_equiv_pos_as_xyz
  1  'x, y, z'
loop_
 _atom_site_type_symbol
 _atom_site_label
 _atom_site_symmetry_multiplicity
 _atom_site_fract_x
 _atom_site_fract_y
 _atom_site_fract_z
 _atom_site_occupancy
  Co  Co0  1  0.25097900  0.24900800  0.50198400  1
  Co  Co1  1  0.49901400  0.50099900  0.99800100  1
  Co  Co2  1  0.75094800  0.74905100  0.50190200  1
  Co  Co3  1  0.99905800  0.00094300  0.99810800  1
  O  O4  1  0.74968800  0.25028400  0.49937700  1
  O  O5  1  0.24969200  0.75032100  0.49939300  1
  O  O6  1  0.50031500  0.99967200  0.00062400  1
  O  O7  1  0.00030500  0.49972200  0.00061000  1
