# generated using pymatgen
data_LuVO4
_symmetry_space_group_name_H-M   'P 1'
_cell_length_a   6.56302003
_cell_length_b   6.56302003
_cell_length_c   6.56302003
_cell_angle_alpha   135.05674776
_cell_angle_beta   135.05674776
_cell_angle_gamma   65.44203907
_symmetry_Int_Tables_number   1
_chemical_formula_structural   LuVO4
_chemical_formula_sum   'Lu2 V2 O8'
_cell_volume   138.98523963
_cell_formula_units_Z   2
loop_
 _symmetry_equiv_pos_site_id
 _symmetry_equiv_pos_as_xyz
  1  'x, y, z'
loop_
 _atom_site_type_symbol
 _atom_site_label
 _atom_site_symmetry_multiplicity
 _atom_site_fract_x
 _atom_site_fract_y
 _atom_site_fract_z
 _atom_site_occupancy
  Lu  Lu0  1  0.50000000  0.50000000  0.00000000  1
  Lu  Lu1  1  0.25000000  0.75000000  0.50000000  1
  V  V2  1  0.00000000  0.00000000  0.00000000  1
  V  V3  1  0.75000000  0.25000000  0.50000000  1
  O  O4  1  0.65941300  0.76472200  0.58773700  1
  O  O5  1  0.82167600  0.90941300  0.39469100  1
  O  O6  1  0.51472200  0.42698500  0.60530900  1
  O  O7  1  0.17698500  0.07167600  0.41226300  1
  O  O8  1  0.57301500  0.17832400  0.08773700  1
  O  O9  1  0.23527800  0.82301500  0.89469100  1
  O  O10  1  0.92832400  0.34058700  0.10530900  1
  O  O11  1  0.09058700  0.48527800  0.91226300  1
