# generated using pymatgen
data_SrVSi2O7
_symmetry_space_group_name_H-M   'P 1'
_cell_length_a   7.89161455
_cell_length_b   7.89161455
_cell_length_c   7.11380100
_cell_angle_alpha   90.00000000
_cell_angle_beta   90.00000000
_cell_angle_gamma   140.11998404
_symmetry_Int_Tables_number   1
_chemical_formula_structural   SrVSi2O7
_chemical_formula_sum   'Sr2 V2 Si4 O14'
_cell_volume   284.06306849
_cell_formula_units_Z   2
loop_
 _symmetry_equiv_pos_site_id
 _symmetry_equiv_pos_as_xyz
  1  'x, y, z'
loop_
 _atom_site_type_symbol
 _atom_site_label
 _atom_site_symmetry_multiplicity
 _atom_site_fract_x
 _atom_site_fract_y
 _atom_site_fract_z
 _atom_site_occupancy
  Sr  Sr0  1  0.20416300  0.79583700  0.75000000  1
  Sr  Sr1  1  0.79583700  0.20416300  0.25000000  1
  V  V2  1  0.89209800  0.10790200  0.75000000  1
  V  V3  1  0.10790200  0.89209800  0.25000000  1
  Si  Si4  1  0.39217000  0.60782900  0.47598600  1
  Si  Si5  1  0.60783000  0.39217000  0.52401400  1
  Si  Si6  1  0.60783000  0.39217000  0.97598600  1
  Si  Si7  1  0.39217000  0.60782900  0.02401400  1
  O  O8  1  0.63729300  0.36270700  0.75000000  1
  O  O9  1  0.36270700  0.63729300  0.25000000  1
  O  O10  1  0.50000000  0.50000000  0.50000000  1
  O  O11  1  0.50000000  0.50000000  0.00000000  1
  O  O12  1  0.59829400  0.90460700  0.56072900  1
  O  O13  1  0.90460700  0.59829400  0.43927100  1
  O  O14  1  0.40170600  0.09539300  0.06072900  1
  O  O15  1  0.09539300  0.40170600  0.93927100  1
  O  O16  1  0.99696500  0.00303500  0.25000000  1
  O  O17  1  0.00303500  0.99696500  0.75000000  1
  O  O18  1  0.90460700  0.59829400  0.06072900  1
  O  O19  1  0.59829400  0.90460700  0.93927100  1
  O  O20  1  0.09539300  0.40170600  0.56072900  1
  O  O21  1  0.40170600  0.09539300  0.43927100  1
