# generated using pymatgen
data_Na6MnO4
_symmetry_space_group_name_H-M   'P 1'
_cell_length_a   5.96988100
_cell_length_b   7.77295700
_cell_length_c   13.46315700
_cell_angle_alpha   90.00000000
_cell_angle_beta   90.00000000
_cell_angle_gamma   90.00000000
_symmetry_Int_Tables_number   1
_chemical_formula_structural   Na6MnO4
_chemical_formula_sum   'Na24 Mn4 O16'
_cell_volume   624.73933328
_cell_formula_units_Z   4
loop_
 _symmetry_equiv_pos_site_id
 _symmetry_equiv_pos_as_xyz
  1  'x, y, z'
loop_
 _atom_site_type_symbol
 _atom_site_label
 _atom_site_symmetry_multiplicity
 _atom_site_fract_x
 _atom_site_fract_y
 _atom_site_fract_z
 _atom_site_occupancy
  Na  Na0  1  0.14252700  0.50000000  0.03925700  1
  Na  Na1  1  0.14252700  0.00000000  0.53925700  1
  Na  Na2  1  0.64252700  0.19111500  0.26962800  1
  Na  Na3  1  0.64252700  0.69111500  0.76962800  1
  Na  Na4  1  0.14252700  0.69111500  0.23037200  1
  Na  Na5  1  0.14252700  0.19111500  0.73037200  1
  Na  Na6  1  0.14252700  0.30888500  0.23037200  1
  Na  Na7  1  0.14252700  0.80888500  0.73037200  1
  Na  Na8  1  0.64252700  0.80888500  0.26962800  1
  Na  Na9  1  0.64252700  0.30888500  0.76962800  1
  Na  Na10  1  0.64252700  0.00000000  0.46074300  1
  Na  Na11  1  0.64252700  0.50000000  0.96074300  1
  Na  Na12  1  0.97469200  0.70936300  0.43021200  1
  Na  Na13  1  0.97469200  0.20936300  0.93021200  1
  Na  Na14  1  0.47469200  0.20936300  0.06978800  1
  Na  Na15  1  0.47469200  0.70936300  0.56978800  1
  Na  Na16  1  0.47469200  0.50000000  0.36042500  1
  Na  Na17  1  0.47469200  0.00000000  0.86042500  1
  Na  Na18  1  0.47469200  0.79063700  0.06978800  1
  Na  Na19  1  0.47469200  0.29063700  0.56978800  1
  Na  Na20  1  0.97469200  0.29063700  0.43021200  1
  Na  Na21  1  0.97469200  0.79063700  0.93021200  1
  Na  Na22  1  0.97469200  0.00000000  0.13957500  1
  Na  Na23  1  0.97469200  0.50000000  0.63957500  1
  Mn  Mn24  1  0.74618700  0.00000000  0.66666700  1
  Mn  Mn25  1  0.24618700  0.50000000  0.83333300  1
  Mn  Mn26  1  0.74618700  0.50000000  0.16666700  1
  Mn  Mn27  1  0.24618700  0.00000000  0.33333300  1
  O  O28  1  0.40351900  0.50000000  0.16666700  1
  O  O29  1  0.40351900  0.00000000  0.66666700  1
  O  O30  1  0.90351900  0.00000000  0.33333300  1
  O  O31  1  0.90351900  0.50000000  0.83333300  1
  O  O32  1  0.36430500  0.78058100  0.40647300  1
  O  O33  1  0.36430500  0.28058100  0.90647300  1
  O  O34  1  0.86430500  0.28058100  0.09352700  1
  O  O35  1  0.86430500  0.78058100  0.59352700  1
  O  O36  1  0.86430500  0.50000000  0.31294600  1
  O  O37  1  0.86430500  0.00000000  0.81294600  1
  O  O38  1  0.36430500  0.00000000  0.18705400  1
  O  O39  1  0.36430500  0.50000000  0.68705400  1
  O  O40  1  0.36430500  0.21941900  0.40647300  1
  O  O41  1  0.36430500  0.71941900  0.90647300  1
  O  O42  1  0.86430500  0.71941900  0.09352700  1
  O  O43  1  0.86430500  0.21941900  0.59352700  1
