# generated using pymatgen
data_Li2NiO2
_symmetry_space_group_name_H-M   'P 1'
_cell_length_a   3.12765100
_cell_length_b   3.12765056
_cell_length_c   10.17274700
_cell_angle_alpha   90.00000000
_cell_angle_beta   90.00000000
_cell_angle_gamma   119.99999408
_symmetry_Int_Tables_number   1
_chemical_formula_structural   Li2NiO2
_chemical_formula_sum   'Li4 Ni2 O4'
_cell_volume   86.17978620
_cell_formula_units_Z   2
loop_
 _symmetry_equiv_pos_site_id
 _symmetry_equiv_pos_as_xyz
  1  'x, y, z'
loop_
 _atom_site_type_symbol
 _atom_site_label
 _atom_site_symmetry_multiplicity
 _atom_site_fract_x
 _atom_site_fract_y
 _atom_site_fract_z
 _atom_site_occupancy
  Li  Li0  1  0.66666500  0.33333200  0.17915600  1
  Li  Li1  1  0.33333400  0.66666700  0.82084400  1
  Li  Li2  1  0.33333400  0.66666700  0.32084500  1
  Li  Li3  1  0.66666500  0.33333200  0.67915600  1
  Ni  Ni4  1  0.00000000  0.00000000  0.50000000  1
  Ni  Ni5  1  0.00000000  0.00000000  0.00000000  1
  O  O6  1  0.33333400  0.66666700  0.61696900  1
  O  O7  1  0.66666500  0.33333200  0.88303100  1
  O  O8  1  0.33333400  0.66666700  0.11696900  1
  O  O9  1  0.66666500  0.33333200  0.38303100  1
