# generated using pymatgen
data_Be3Fe4Si3SO12
_symmetry_space_group_name_H-M   'P 1'
_cell_length_a   8.27655100
_cell_length_b   8.27655100
_cell_length_c   8.27655100
_cell_angle_alpha   90.00000000
_cell_angle_beta   90.00000000
_cell_angle_gamma   90.00000000
_symmetry_Int_Tables_number   1
_chemical_formula_structural   Be3Fe4Si3SO12
_chemical_formula_sum   'Be6 Fe8 Si6 S2 O24'
_cell_volume   566.95447368
_cell_formula_units_Z   2
loop_
 _symmetry_equiv_pos_site_id
 _symmetry_equiv_pos_as_xyz
  1  'x, y, z'
loop_
 _atom_site_type_symbol
 _atom_site_label
 _atom_site_symmetry_multiplicity
 _atom_site_fract_x
 _atom_site_fract_y
 _atom_site_fract_z
 _atom_site_occupancy
  Be  Be0  1  0.25000000  0.50000000  0.00000000  1
  Be  Be1  1  0.50000000  0.00000000  0.75000000  1
  Be  Be2  1  0.50000000  0.00000000  0.25000000  1
  Be  Be3  1  0.00000000  0.25000000  0.50000000  1
  Be  Be4  1  0.00000000  0.75000000  0.50000000  1
  Be  Be5  1  0.75000000  0.50000000  0.00000000  1
  Fe  Fe6  1  0.33316400  0.66683600  0.33316400  1
  Fe  Fe7  1  0.66683600  0.33316400  0.33316400  1
  Fe  Fe8  1  0.83316400  0.83316400  0.16683600  1
  Fe  Fe9  1  0.16683600  0.83316400  0.83316400  1
  Fe  Fe10  1  0.83316400  0.16683600  0.83316400  1
  Fe  Fe11  1  0.66683600  0.66683600  0.66683600  1
  Fe  Fe12  1  0.16683600  0.16683600  0.16683600  1
  Fe  Fe13  1  0.33316400  0.33316400  0.66683600  1
  Si  Si14  1  0.75000000  0.00000000  0.50000000  1
  Si  Si15  1  0.50000000  0.75000000  0.00000000  1
  Si  Si16  1  0.50000000  0.25000000  0.00000000  1
  Si  Si17  1  0.25000000  0.00000000  0.50000000  1
  Si  Si18  1  0.00000000  0.50000000  0.75000000  1
  Si  Si19  1  0.00000000  0.50000000  0.25000000  1
  S  S20  1  0.00000000  0.00000000  0.00000000  1
  S  S21  1  0.50000000  0.50000000  0.50000000  1
  O  O22  1  0.14008900  0.58809700  0.86014900  1
  O  O23  1  0.85991100  0.58809700  0.13985100  1
  O  O24  1  0.41190300  0.86014900  0.85991100  1
  O  O25  1  0.58809700  0.86014900  0.14008900  1
  O  O26  1  0.86014900  0.85991100  0.41190300  1
  O  O27  1  0.13985100  0.14008900  0.41190300  1
  O  O28  1  0.35991100  0.36014900  0.91190300  1
  O  O29  1  0.14008900  0.41190300  0.13985100  1
  O  O30  1  0.85991100  0.41190300  0.86014900  1
  O  O31  1  0.58809700  0.13985100  0.85991100  1
  O  O32  1  0.41190300  0.13985100  0.14008900  1
  O  O33  1  0.86014900  0.14008900  0.58809700  1
  O  O34  1  0.13985100  0.85991100  0.58809700  1
  O  O35  1  0.91190300  0.35991100  0.36014900  1
  O  O36  1  0.36014900  0.91190300  0.35991100  1
  O  O37  1  0.63985100  0.08809700  0.35991100  1
  O  O38  1  0.91190300  0.64008900  0.63985100  1
  O  O39  1  0.64008900  0.63985100  0.91190300  1
  O  O40  1  0.08809700  0.64008900  0.36014900  1
  O  O41  1  0.08809700  0.35991100  0.63985100  1
  O  O42  1  0.36014900  0.08809700  0.64008900  1
  O  O43  1  0.35991100  0.63985100  0.08809700  1
  O  O44  1  0.64008900  0.36014900  0.08809700  1
  O  O45  1  0.63985100  0.91190300  0.64008900  1
