# generated using pymatgen
data_Na3VS3O
_symmetry_space_group_name_H-M   'P 1'
_cell_length_a   7.74594436
_cell_length_b   7.74594436
_cell_length_c   5.97305200
_cell_angle_alpha   90.00000000
_cell_angle_beta   90.00000000
_cell_angle_gamma   101.86778518
_symmetry_Int_Tables_number   1
_chemical_formula_structural   Na3VS3O
_chemical_formula_sum   'Na6 V2 S6 O2'
_cell_volume   350.72057550
_cell_formula_units_Z   2
loop_
 _symmetry_equiv_pos_site_id
 _symmetry_equiv_pos_as_xyz
  1  'x, y, z'
loop_
 _atom_site_type_symbol
 _atom_site_label
 _atom_site_symmetry_multiplicity
 _atom_site_fract_x
 _atom_site_fract_y
 _atom_site_fract_z
 _atom_site_occupancy
  Na  Na0  1  0.88110000  0.11890000  0.46310600  1
  Na  Na1  1  0.82598200  0.58591000  0.48309300  1
  Na  Na2  1  0.41409000  0.17401800  0.48309300  1
  Na  Na3  1  0.58591000  0.82598200  0.98309300  1
  Na  Na4  1  0.11890000  0.88110000  0.96310600  1
  Na  Na5  1  0.17401800  0.41409000  0.98309300  1
  V  V6  1  0.29627100  0.70372900  0.38505300  1
  V  V7  1  0.70372900  0.29627100  0.88505300  1
  S  S8  1  0.56486500  0.81252700  0.50014900  1
  S  S9  1  0.88123100  0.11876900  0.98289400  1
  S  S10  1  0.18747300  0.43513500  0.50014900  1
  S  S11  1  0.81252700  0.56486500  0.00014900  1
  S  S12  1  0.43513500  0.18747300  0.00014900  1
  S  S13  1  0.11876900  0.88123100  0.48289400  1
  O  O14  1  0.69898400  0.30101600  0.60102300  1
  O  O15  1  0.30101600  0.69898400  0.10102300  1
