# generated using pymatgen
data_Na7(CoO3)2
_symmetry_space_group_name_H-M   'P 1'
_cell_length_a   7.89902550
_cell_length_b   7.89902550
_cell_length_c   10.64175307
_cell_angle_alpha   76.06213896
_cell_angle_beta   76.06213896
_cell_angle_gamma   43.38885112
_symmetry_Int_Tables_number   1
_chemical_formula_structural   Na7(CoO3)2
_chemical_formula_sum   'Na14 Co4 O12'
_cell_volume   440.53149873
_cell_formula_units_Z   2
loop_
 _symmetry_equiv_pos_site_id
 _symmetry_equiv_pos_as_xyz
  1  'x, y, z'
loop_
 _atom_site_type_symbol
 _atom_site_label
 _atom_site_symmetry_multiplicity
 _atom_site_fract_x
 _atom_site_fract_y
 _atom_site_fract_z
 _atom_site_occupancy
  Na  Na0  1  0.42702300  0.23882400  0.90532700  1
  Na  Na1  1  0.18987900  0.25778800  0.19400100  1
  Na  Na2  1  0.69720300  0.42316400  0.34922600  1
  Na  Na3  1  0.57297700  0.76117600  0.09467300  1
  Na  Na4  1  0.42316400  0.69720300  0.84922600  1
  Na  Na5  1  0.07141400  0.92858600  0.25000000  1
  Na  Na6  1  0.81012100  0.74221200  0.80599900  1
  Na  Na7  1  0.74221200  0.81012100  0.30599900  1
  Na  Na8  1  0.92858600  0.07141400  0.75000000  1
  Na  Na9  1  0.76117600  0.57297700  0.59467300  1
  Na  Na10  1  0.25778800  0.18987900  0.69400100  1
  Na  Na11  1  0.57683600  0.30279700  0.15077400  1
  Na  Na12  1  0.30279700  0.57683600  0.65077400  1
  Na  Na13  1  0.23882400  0.42702300  0.40532700  1
  Co  Co14  1  0.24038600  0.00782000  0.46073500  1
  Co  Co15  1  0.00782000  0.24038600  0.96073500  1
  Co  Co16  1  0.99218000  0.75961400  0.03926500  1
  Co  Co17  1  0.75961400  0.99218000  0.53926500  1
  O  O18  1  0.15291500  0.60582800  0.18735400  1
  O  O19  1  0.13638800  0.67217100  0.87602300  1
  O  O20  1  0.84708500  0.39417200  0.81264600  1
  O  O21  1  0.99618100  0.65701900  0.58077700  1
  O  O22  1  0.60582800  0.15291500  0.68735400  1
  O  O23  1  0.32782900  0.86361200  0.62397700  1
  O  O24  1  0.67217100  0.13638800  0.37602300  1
  O  O25  1  0.86361200  0.32782900  0.12397700  1
  O  O26  1  0.39417200  0.84708500  0.31264600  1
  O  O27  1  0.00381900  0.34298100  0.41922300  1
  O  O28  1  0.65701900  0.99618100  0.08077700  1
  O  O29  1  0.34298100  0.00381900  0.91922300  1
