# generated using pymatgen
data_CoMoO4
_symmetry_space_group_name_H-M   'P 1'
_cell_length_a   5.49573200
_cell_length_b   4.49050700
_cell_length_c   4.99155416
_cell_angle_alpha   89.68766724
_cell_angle_beta   90.00000000
_cell_angle_gamma   90.00000000
_symmetry_Int_Tables_number   1
_chemical_formula_structural   CoMoO4
_chemical_formula_sum   'Co2 Mo2 O8'
_cell_volume   123.18285321
_cell_formula_units_Z   2
loop_
 _symmetry_equiv_pos_site_id
 _symmetry_equiv_pos_as_xyz
  1  'x, y, z'
loop_
 _atom_site_type_symbol
 _atom_site_label
 _atom_site_symmetry_multiplicity
 _atom_site_fract_x
 _atom_site_fract_y
 _atom_site_fract_z
 _atom_site_occupancy
  Co  Co0  1  0.36167900  0.50000000  0.25000000  1
  Co  Co1  1  0.63832100  0.50000000  0.75000000  1
  Mo  Mo2  1  0.16592800  0.00000000  0.75000000  1
  Mo  Mo3  1  0.83407200  0.00000000  0.25000000  1
  O  O4  1  0.87704900  0.23714200  0.58715300  1
  O  O5  1  0.87704900  0.76285800  0.91284700  1
  O  O6  1  0.38760300  0.27617300  0.58140500  1
  O  O7  1  0.12295100  0.76285800  0.41284700  1
  O  O8  1  0.12295100  0.23714200  0.08715300  1
  O  O9  1  0.38760300  0.72382700  0.91859500  1
  O  O10  1  0.61239700  0.27617300  0.08140500  1
  O  O11  1  0.61239700  0.72382700  0.41859500  1
