# generated using pymatgen
data_Cu3As
_symmetry_space_group_name_H-M   'P 1'
_cell_length_a   8.35458518
_cell_length_b   8.35458518
_cell_length_c   8.35458518
_cell_angle_alpha   109.47122063
_cell_angle_beta   109.47122063
_cell_angle_gamma   109.47122063
_symmetry_Int_Tables_number   1
_chemical_formula_structural   Cu3As
_chemical_formula_sum   'Cu24 As8'
_cell_volume   448.90328380
_cell_formula_units_Z   8
loop_
 _symmetry_equiv_pos_site_id
 _symmetry_equiv_pos_as_xyz
  1  'x, y, z'
loop_
 _atom_site_type_symbol
 _atom_site_label
 _atom_site_symmetry_multiplicity
 _atom_site_fract_x
 _atom_site_fract_y
 _atom_site_fract_z
 _atom_site_occupancy
  Cu  Cu0  1  0.35215000  0.78421200  0.69489900  1
  Cu  Cu1  1  0.84274900  0.43206200  0.14785000  1
  Cu  Cu2  1  0.06793800  0.91068700  0.71578800  1
  Cu  Cu3  1  0.58931300  0.65725100  0.80510100  1
  Cu  Cu4  1  0.65725100  0.80510100  0.58931300  1
  Cu  Cu5  1  0.80510100  0.58931300  0.65725100  1
  Cu  Cu6  1  0.28421200  0.85215000  0.19489900  1
  Cu  Cu7  1  0.34274900  0.64785000  0.93206200  1
  Cu  Cu8  1  0.15725100  0.08931300  0.30510100  1
  Cu  Cu9  1  0.43206200  0.14785000  0.84274900  1
  Cu  Cu10  1  0.69489900  0.35215000  0.78421200  1
  Cu  Cu11  1  0.78421200  0.69489900  0.35215000  1
  Cu  Cu12  1  0.71578800  0.06793800  0.91068700  1
  Cu  Cu13  1  0.91068700  0.71578800  0.06793800  1
  Cu  Cu14  1  0.14785000  0.84274900  0.43206200  1
  Cu  Cu15  1  0.41068700  0.56793800  0.21578800  1
  Cu  Cu16  1  0.93206200  0.34274900  0.64785000  1
  Cu  Cu17  1  0.85215000  0.19489900  0.28421200  1
  Cu  Cu18  1  0.56793800  0.21578800  0.41068700  1
  Cu  Cu19  1  0.64785000  0.93206200  0.34274900  1
  Cu  Cu20  1  0.19489900  0.28421200  0.85215000  1
  Cu  Cu21  1  0.30510100  0.15725100  0.08931300  1
  Cu  Cu22  1  0.08931300  0.30510100  0.15725100  1
  Cu  Cu23  1  0.21578800  0.41068700  0.56793800  1
  As  As24  1  0.43725600  0.43725600  0.43725600  1
  As  As25  1  0.50000000  0.00000000  0.56274400  1
  As  As26  1  0.00000000  0.56274400  0.50000000  1
  As  As27  1  0.56274400  0.50000000  0.00000000  1
  As  As28  1  0.00000000  0.06274400  0.50000000  1
  As  As29  1  0.06274400  0.50000000  0.00000000  1
  As  As30  1  0.50000000  0.00000000  0.06274400  1
  As  As31  1  0.93725600  0.93725600  0.93725600  1
