# generated using pymatgen
data_ErMnSi
_symmetry_space_group_name_H-M   'P 1'
_cell_length_a   4.05984400
_cell_length_b   6.89999200
_cell_length_c   7.57484600
_cell_angle_alpha   90.00000000
_cell_angle_beta   90.00000000
_cell_angle_gamma   90.00000000
_symmetry_Int_Tables_number   1
_chemical_formula_structural   ErMnSi
_chemical_formula_sum   'Er4 Mn4 Si4'
_cell_volume   212.19333626
_cell_formula_units_Z   4
loop_
 _symmetry_equiv_pos_site_id
 _symmetry_equiv_pos_as_xyz
  1  'x, y, z'
loop_
 _atom_site_type_symbol
 _atom_site_label
 _atom_site_symmetry_multiplicity
 _atom_site_fract_x
 _atom_site_fract_y
 _atom_site_fract_z
 _atom_site_occupancy
  Er  Er0  1  0.25000000  0.01211700  0.81404900  1
  Er  Er1  1  0.75000000  0.98788300  0.18595100  1
  Er  Er2  1  0.25000000  0.51211700  0.68595100  1
  Er  Er3  1  0.75000000  0.48788300  0.31404900  1
  Mn  Mn4  1  0.75000000  0.86057600  0.55903100  1
  Mn  Mn5  1  0.25000000  0.13942400  0.44096900  1
  Mn  Mn6  1  0.75000000  0.36057600  0.94096900  1
  Mn  Mn7  1  0.25000000  0.63942400  0.05903100  1
  Si  Si8  1  0.25000000  0.28642900  0.11139400  1
  Si  Si9  1  0.75000000  0.71357100  0.88860600  1
  Si  Si10  1  0.25000000  0.78642900  0.38860600  1
  Si  Si11  1  0.75000000  0.21357100  0.61139400  1
