# generated using pymatgen
data_NdMnAsO
_symmetry_space_group_name_H-M   'P 1'
_cell_length_a   4.15859100
_cell_length_b   4.15859100
_cell_length_c   9.15914600
_cell_angle_alpha   90.00000000
_cell_angle_beta   90.00000000
_cell_angle_gamma   90.00000000
_symmetry_Int_Tables_number   1
_chemical_formula_structural   NdMnAsO
_chemical_formula_sum   'Nd2 Mn2 As2 O2'
_cell_volume   158.39716363
_cell_formula_units_Z   2
loop_
 _symmetry_equiv_pos_site_id
 _symmetry_equiv_pos_as_xyz
  1  'x, y, z'
loop_
 _atom_site_type_symbol
 _atom_site_label
 _atom_site_symmetry_multiplicity
 _atom_site_fract_x
 _atom_site_fract_y
 _atom_site_fract_z
 _atom_site_occupancy
  Nd  Nd0  1  0.75000100  0.75000100  0.87617600  1
  Nd  Nd1  1  0.25000000  0.25000000  0.12382400  1
  Mn  Mn2  1  0.25000000  0.75000100  0.50000100  1
  Mn  Mn3  1  0.75000100  0.25000000  0.50000100  1
  As  As4  1  0.75000100  0.75000100  0.31858800  1
  As  As5  1  0.25000000  0.25000000  0.68141200  1
  O  O6  1  0.25000000  0.75000100  0.00000000  1
  O  O7  1  0.75000100  0.25000000  0.00000000  1
