# generated using pymatgen
data_As2PbS4
_symmetry_space_group_name_H-M   'P 1'
_cell_length_a   3.76709800
_cell_length_b   9.46676400
_cell_length_c   18.62956300
_cell_angle_alpha   90.00000000
_cell_angle_beta   90.00000000
_cell_angle_gamma   90.00000000
_symmetry_Int_Tables_number   1
_chemical_formula_structural   As2PbS4
_chemical_formula_sum   'As8 Pb4 S16'
_cell_volume   664.37171823
_cell_formula_units_Z   4
loop_
 _symmetry_equiv_pos_site_id
 _symmetry_equiv_pos_as_xyz
  1  'x, y, z'
loop_
 _atom_site_type_symbol
 _atom_site_label
 _atom_site_symmetry_multiplicity
 _atom_site_fract_x
 _atom_site_fract_y
 _atom_site_fract_z
 _atom_site_occupancy
  As  As0  1  0.25000000  0.83734400  0.99381700  1
  As  As1  1  0.25000000  0.33734400  0.50618300  1
  As  As2  1  0.75000000  0.16265600  0.00618300  1
  As  As3  1  0.75000000  0.66265600  0.49381700  1
  As  As4  1  0.75000000  0.50006500  0.88162700  1
  As  As5  1  0.75000000  0.00006500  0.61837300  1
  As  As6  1  0.25000000  0.49993500  0.11837300  1
  As  As7  1  0.25000000  0.99993500  0.38162700  1
  Pb  Pb8  1  0.25000000  0.15669300  0.81433300  1
  Pb  Pb9  1  0.25000000  0.65669300  0.68566700  1
  Pb  Pb10  1  0.75000000  0.84330700  0.18566700  1
  Pb  Pb11  1  0.75000000  0.34330700  0.31433300  1
  S  S12  1  0.25000000  0.30527300  0.95392300  1
  S  S13  1  0.25000000  0.80527300  0.54607700  1
  S  S14  1  0.75000000  0.69472700  0.04607700  1
  S  S15  1  0.75000000  0.19472700  0.45392300  1
  S  S16  1  0.75000000  0.99074300  0.91901600  1
  S  S17  1  0.75000000  0.49074300  0.58098400  1
  S  S18  1  0.25000000  0.00925700  0.08098400  1
  S  S19  1  0.25000000  0.50925700  0.41901600  1
  S  S20  1  0.25000000  0.65178400  0.85250800  1
  S  S21  1  0.25000000  0.15178400  0.64749200  1
  S  S22  1  0.75000000  0.34821600  0.14749200  1
  S  S23  1  0.75000000  0.84821600  0.35250800  1
  S  S24  1  0.25000000  0.12699000  0.27790500  1
  S  S25  1  0.25000000  0.62699000  0.22209500  1
  S  S26  1  0.75000000  0.87301000  0.72209500  1
  S  S27  1  0.75000000  0.37301000  0.77790500  1
