# generated using pymatgen
data_GePt2
_symmetry_space_group_name_H-M   'P 1'
_cell_length_a   6.78576536
_cell_length_b   6.78576536
_cell_length_c   3.57498000
_cell_angle_alpha   90.00000000
_cell_angle_beta   90.00000000
_cell_angle_gamma   119.99999375
_symmetry_Int_Tables_number   1
_chemical_formula_structural   GePt2
_chemical_formula_sum   'Ge3 Pt6'
_cell_volume   142.56140021
_cell_formula_units_Z   3
loop_
 _symmetry_equiv_pos_site_id
 _symmetry_equiv_pos_as_xyz
  1  'x, y, z'
loop_
 _atom_site_type_symbol
 _atom_site_label
 _atom_site_symmetry_multiplicity
 _atom_site_fract_x
 _atom_site_fract_y
 _atom_site_fract_z
 _atom_site_occupancy
  Ge  Ge0  1  0.66666700  0.33333300  0.00000000  1
  Ge  Ge1  1  0.33333300  0.66666700  0.00000000  1
  Ge  Ge2  1  0.00000000  0.00000000  0.50000000  1
  Pt  Pt3  1  0.61923800  0.00000000  0.50000000  1
  Pt  Pt4  1  0.38076200  0.38076200  0.50000000  1
  Pt  Pt5  1  0.00000000  0.61923800  0.50000000  1
  Pt  Pt6  1  0.00000000  0.28055800  0.00000000  1
  Pt  Pt7  1  0.71944200  0.71944200  0.00000000  1
  Pt  Pt8  1  0.28055800  0.00000000  0.00000000  1
