# generated using pymatgen
data_Zr2Ni2Sn
_symmetry_space_group_name_H-M   'P 1'
_cell_length_a   7.13211400
_cell_length_b   7.13211400
_cell_length_c   3.43447500
_cell_angle_alpha   90.00000000
_cell_angle_beta   90.00000000
_cell_angle_gamma   90.00000000
_symmetry_Int_Tables_number   1
_chemical_formula_structural   Zr2Ni2Sn
_chemical_formula_sum   'Zr4 Ni4 Sn2'
_cell_volume   174.70161192
_cell_formula_units_Z   2
loop_
 _symmetry_equiv_pos_site_id
 _symmetry_equiv_pos_as_xyz
  1  'x, y, z'
loop_
 _atom_site_type_symbol
 _atom_site_label
 _atom_site_symmetry_multiplicity
 _atom_site_fract_x
 _atom_site_fract_y
 _atom_site_fract_z
 _atom_site_occupancy
  Zr  Zr0  1  0.83060700  0.66939300  0.50000000  1
  Zr  Zr1  1  0.33060700  0.83060700  0.50000000  1
  Zr  Zr2  1  0.66939300  0.16939300  0.50000000  1
  Zr  Zr3  1  0.16939300  0.33060700  0.50000000  1
  Ni  Ni4  1  0.12469200  0.62469200  0.00000000  1
  Ni  Ni5  1  0.62469200  0.87530800  0.00000000  1
  Ni  Ni6  1  0.87530800  0.37530800  0.00000000  1
  Ni  Ni7  1  0.37530800  0.12469200  0.00000000  1
  Sn  Sn8  1  0.50000000  0.50000000  0.00000000  1
  Sn  Sn9  1  0.00000000  0.00000000  0.00000000  1
