# generated using pymatgen
data_UVO5
_symmetry_space_group_name_H-M   'P 1'
_cell_length_a   4.11861200
_cell_length_b   7.26547200
_cell_length_c   12.64032300
_cell_angle_alpha   90.00000000
_cell_angle_beta   90.00000000
_cell_angle_gamma   90.00000000
_symmetry_Int_Tables_number   1
_chemical_formula_structural   UVO5
_chemical_formula_sum   'U4 V4 O20'
_cell_volume   378.24472983
_cell_formula_units_Z   4
loop_
 _symmetry_equiv_pos_site_id
 _symmetry_equiv_pos_as_xyz
  1  'x, y, z'
loop_
 _atom_site_type_symbol
 _atom_site_label
 _atom_site_symmetry_multiplicity
 _atom_site_fract_x
 _atom_site_fract_y
 _atom_site_fract_z
 _atom_site_occupancy
  U  U0  1  0.99159100  0.75000000  0.52768000  1
  U  U1  1  0.99159100  0.25000000  0.97232000  1
  U  U2  1  0.00840900  0.25000000  0.47232000  1
  U  U3  1  0.00840900  0.75000000  0.02768000  1
  V  V4  1  0.90112700  0.50000000  0.25000000  1
  V  V5  1  0.09887300  0.00000000  0.75000000  1
  V  V6  1  0.09887300  0.50000000  0.75000000  1
  V  V7  1  0.90112700  0.00000000  0.25000000  1
  O  O8  1  0.01295500  0.44814400  0.59557900  1
  O  O9  1  0.01295500  0.55185600  0.90442100  1
  O  O10  1  0.98704500  0.94814400  0.40442100  1
  O  O11  1  0.98704500  0.05185600  0.09557900  1
  O  O12  1  0.98704500  0.55185600  0.40442100  1
  O  O13  1  0.98704500  0.44814400  0.09557900  1
  O  O14  1  0.01295500  0.05185600  0.59557900  1
  O  O15  1  0.01295500  0.94814400  0.90442100  1
  O  O16  1  0.50830900  0.75000000  0.02684100  1
  O  O17  1  0.50830900  0.25000000  0.47315900  1
  O  O18  1  0.49169100  0.25000000  0.97315900  1
  O  O19  1  0.49169100  0.75000000  0.52684100  1
  O  O20  1  0.49974100  0.00000000  0.25000000  1
  O  O21  1  0.50025900  0.50000000  0.75000000  1
  O  O22  1  0.50025900  0.00000000  0.75000000  1
  O  O23  1  0.49974100  0.50000000  0.25000000  1
  O  O24  1  0.99576400  0.75000000  0.19750900  1
  O  O25  1  0.99576400  0.25000000  0.30249100  1
  O  O26  1  0.00423600  0.25000000  0.80249100  1
  O  O27  1  0.00423600  0.75000000  0.69750900  1
