# generated using pymatgen
data_TaTe4
_symmetry_space_group_name_H-M   'P 1'
_cell_length_a   9.37401800
_cell_length_b   9.37401800
_cell_length_c   20.90990600
_cell_angle_alpha   90.00000000
_cell_angle_beta   90.00000000
_cell_angle_gamma   90.00000000
_symmetry_Int_Tables_number   1
_chemical_formula_structural   TaTe4
_chemical_formula_sum   'Ta12 Te48'
_cell_volume   1837.39972355
_cell_formula_units_Z   12
loop_
 _symmetry_equiv_pos_site_id
 _symmetry_equiv_pos_as_xyz
  1  'x, y, z'
loop_
 _atom_site_type_symbol
 _atom_site_label
 _atom_site_symmetry_multiplicity
 _atom_site_fract_x
 _atom_site_fract_y
 _atom_site_fract_z
 _atom_site_occupancy
  Ta  Ta0  1  0.50000000  0.00000000  0.93121600  1
  Ta  Ta1  1  0.00000000  0.50000000  0.56878400  1
  Ta  Ta2  1  0.00000000  0.50000000  0.06878400  1
  Ta  Ta3  1  0.50000000  0.00000000  0.43121600  1
  Ta  Ta4  1  0.50000000  0.00000000  0.23634600  1
  Ta  Ta5  1  0.00000000  0.50000000  0.26365400  1
  Ta  Ta6  1  0.00000000  0.50000000  0.76365400  1
  Ta  Ta7  1  0.50000000  0.00000000  0.73634600  1
  Ta  Ta8  1  0.50000000  0.00000000  0.08448000  1
  Ta  Ta9  1  0.00000000  0.50000000  0.41552000  1
  Ta  Ta10  1  0.00000000  0.50000000  0.91552000  1
  Ta  Ta11  1  0.50000000  0.00000000  0.58448000  1
  Te  Te12  1  0.73709100  0.90823500  0.00334800  1
  Te  Te13  1  0.26290900  0.09176500  0.00334800  1
  Te  Te14  1  0.90823500  0.73709100  0.49665200  1
  Te  Te15  1  0.40823500  0.76290900  0.00334800  1
  Te  Te16  1  0.59176500  0.23709100  0.00334800  1
  Te  Te17  1  0.76290900  0.40823500  0.49665200  1
  Te  Te18  1  0.23709100  0.59176500  0.49665200  1
  Te  Te19  1  0.09176500  0.26290900  0.49665200  1
  Te  Te20  1  0.76290900  0.59176500  0.99665200  1
  Te  Te21  1  0.23709100  0.40823500  0.99665200  1
  Te  Te22  1  0.59176500  0.76290900  0.50334800  1
  Te  Te23  1  0.09176500  0.73709100  0.99665200  1
  Te  Te24  1  0.25902300  0.08453800  0.66443200  1
  Te  Te25  1  0.41546200  0.75902300  0.66443200  1
  Te  Te26  1  0.58453800  0.24097700  0.66443200  1
  Te  Te27  1  0.75902300  0.41546200  0.83556800  1
  Te  Te28  1  0.24097700  0.58453800  0.83556800  1
  Te  Te29  1  0.74097700  0.91546200  0.66443200  1
  Te  Te30  1  0.08453800  0.25902300  0.83556800  1
  Te  Te31  1  0.91546200  0.74097700  0.83556800  1
  Te  Te32  1  0.24097700  0.41546200  0.33556800  1
  Te  Te33  1  0.08453800  0.74097700  0.33556800  1
  Te  Te34  1  0.91546200  0.25902300  0.33556800  1
  Te  Te35  1  0.74097700  0.08453800  0.16443200  1
  Te  Te36  1  0.25902300  0.91546200  0.16443200  1
  Te  Te37  1  0.75902300  0.58453800  0.33556800  1
  Te  Te38  1  0.41546200  0.24097700  0.16443200  1
  Te  Te39  1  0.58453800  0.75902300  0.16443200  1
  Te  Te40  1  0.71324600  0.09589400  0.83393000  1
  Te  Te41  1  0.40410600  0.21324600  0.83393000  1
  Te  Te42  1  0.59589400  0.78675400  0.83393000  1
  Te  Te43  1  0.21324600  0.40410600  0.66607000  1
  Te  Te44  1  0.78675400  0.59589400  0.66607000  1
  Te  Te45  1  0.28675400  0.90410600  0.83393000  1
  Te  Te46  1  0.09589400  0.71324600  0.66607000  1
  Te  Te47  1  0.90410600  0.28675400  0.66607000  1
  Te  Te48  1  0.78675400  0.40410600  0.16607000  1
  Te  Te49  1  0.09589400  0.28675400  0.16607000  1
  Te  Te50  1  0.90410600  0.71324600  0.16607000  1
  Te  Te51  1  0.28675400  0.09589400  0.33393000  1
  Te  Te52  1  0.71324600  0.90410600  0.33393000  1
  Te  Te53  1  0.21324600  0.59589400  0.16607000  1
  Te  Te54  1  0.40410600  0.78675400  0.33393000  1
  Te  Te55  1  0.59589400  0.21324600  0.33393000  1
  Te  Te56  1  0.40823500  0.23709100  0.50334800  1
  Te  Te57  1  0.26290900  0.90823500  0.50334800  1
  Te  Te58  1  0.73709100  0.09176500  0.50334800  1
  Te  Te59  1  0.90823500  0.26290900  0.99665200  1
