# generated using pymatgen
data_SrYb2O4
_symmetry_space_group_name_H-M   'P 1'
_cell_length_a   3.47209700
_cell_length_b   9.81279100
_cell_length_c   11.94805300
_cell_angle_alpha   90.00000000
_cell_angle_beta   90.00000000
_cell_angle_gamma   90.00000000
_symmetry_Int_Tables_number   1
_chemical_formula_structural   SrYb2O4
_chemical_formula_sum   'Sr4 Yb8 O16'
_cell_volume   407.08166204
_cell_formula_units_Z   4
loop_
 _symmetry_equiv_pos_site_id
 _symmetry_equiv_pos_as_xyz
  1  'x, y, z'
loop_
 _atom_site_type_symbol
 _atom_site_label
 _atom_site_symmetry_multiplicity
 _atom_site_fract_x
 _atom_site_fract_y
 _atom_site_fract_z
 _atom_site_occupancy
  Sr  Sr0  1  0.75000000  0.25032000  0.84290700  1
  Sr  Sr1  1  0.25000000  0.74968000  0.15709300  1
  Sr  Sr2  1  0.75000000  0.75032000  0.65709300  1
  Sr  Sr3  1  0.25000000  0.24968000  0.34290700  1
  Yb  Yb4  1  0.25000000  0.57614000  0.89126900  1
  Yb  Yb5  1  0.75000000  0.42386000  0.10873100  1
  Yb  Yb6  1  0.25000000  0.07614000  0.60873100  1
  Yb  Yb7  1  0.75000000  0.92386000  0.39126900  1
  Yb  Yb8  1  0.75000000  0.91489700  0.89478400  1
  Yb  Yb9  1  0.25000000  0.08510300  0.10521600  1
  Yb  Yb10  1  0.75000000  0.41489700  0.60521600  1
  Yb  Yb11  1  0.25000000  0.58510300  0.39478400  1
  O  O12  1  0.25000000  0.57744600  0.58485000  1
  O  O13  1  0.75000000  0.42255400  0.41515000  1
  O  O14  1  0.25000000  0.07744600  0.91515000  1
  O  O15  1  0.75000000  0.92255400  0.08485000  1
  O  O16  1  0.25000000  0.48934000  0.22231000  1
  O  O17  1  0.75000000  0.51066000  0.77769000  1
  O  O18  1  0.25000000  0.98934000  0.27769000  1
  O  O19  1  0.75000000  0.01066000  0.72231000  1
  O  O20  1  0.25000000  0.86766600  0.51994200  1
  O  O21  1  0.75000000  0.13233400  0.48005800  1
  O  O22  1  0.25000000  0.36766600  0.98005800  1
  O  O23  1  0.75000000  0.63233400  0.01994200  1
  O  O24  1  0.75000000  0.71411500  0.31825600  1
  O  O25  1  0.25000000  0.28588500  0.68174400  1
  O  O26  1  0.75000000  0.21411500  0.18174400  1
  O  O27  1  0.25000000  0.78588500  0.81825600  1
