# generated using pymatgen
data_U2F9
_symmetry_space_group_name_H-M   'P 1'
_cell_length_a   7.38829308
_cell_length_b   7.38829308
_cell_length_c   7.38829308
_cell_angle_alpha   109.47122063
_cell_angle_beta   109.47122063
_cell_angle_gamma   109.47122063
_symmetry_Int_Tables_number   1
_chemical_formula_structural   U2F9
_chemical_formula_sum   'U4 F18'
_cell_volume   310.46343196
_cell_formula_units_Z   2
loop_
 _symmetry_equiv_pos_site_id
 _symmetry_equiv_pos_as_xyz
  1  'x, y, z'
loop_
 _atom_site_type_symbol
 _atom_site_label
 _atom_site_symmetry_multiplicity
 _atom_site_fract_x
 _atom_site_fract_y
 _atom_site_fract_z
 _atom_site_occupancy
  U  U0  1  0.62568600  0.62568600  0.62568600  1
  U  U1  1  0.00000000  0.37431400  0.00000000  1
  U  U2  1  0.37431400  0.00000000  0.00000000  1
  U  U3  1  0.00000000  0.00000000  0.37431400  1
  F  F4  1  0.00000000  0.77230700  0.77230700  1
  F  F5  1  0.00000000  0.22769300  0.22769300  1
  F  F6  1  0.22769300  0.00000000  0.22769300  1
  F  F7  1  0.77230700  0.00000000  0.77230700  1
  F  F8  1  0.76682000  0.76682000  0.41130000  1
  F  F9  1  0.64448000  0.23318000  0.00000000  1
  F  F10  1  0.23318000  0.64448000  0.00000000  1
  F  F11  1  0.35552000  0.58870000  0.35552000  1
  F  F12  1  0.64448000  0.00000000  0.23318000  1
  F  F13  1  0.00000000  0.64448000  0.23318000  1
  F  F14  1  0.58870000  0.35552000  0.35552000  1
  F  F15  1  0.41130000  0.76682000  0.76682000  1
  F  F16  1  0.76682000  0.41130000  0.76682000  1
  F  F17  1  0.23318000  0.00000000  0.64448000  1
  F  F18  1  0.00000000  0.23318000  0.64448000  1
  F  F19  1  0.35552000  0.35552000  0.58870000  1
  F  F20  1  0.77230700  0.77230700  0.00000000  1
  F  F21  1  0.22769300  0.22769300  0.00000000  1
