# generated using pymatgen
data_HoMnSi
_symmetry_space_group_name_H-M   'P 1'
_cell_length_a   4.07901700
_cell_length_b   6.94807900
_cell_length_c   7.58667700
_cell_angle_alpha   90.00000000
_cell_angle_beta   90.00000000
_cell_angle_gamma   90.00000000
_symmetry_Int_Tables_number   1
_chemical_formula_structural   HoMnSi
_chemical_formula_sum   'Ho4 Mn4 Si4'
_cell_volume   215.01653435
_cell_formula_units_Z   4
loop_
 _symmetry_equiv_pos_site_id
 _symmetry_equiv_pos_as_xyz
  1  'x, y, z'
loop_
 _atom_site_type_symbol
 _atom_site_label
 _atom_site_symmetry_multiplicity
 _atom_site_fract_x
 _atom_site_fract_y
 _atom_site_fract_z
 _atom_site_occupancy
  Ho  Ho0  1  0.25000000  0.51149200  0.18470800  1
  Ho  Ho1  1  0.75000000  0.48850800  0.81529200  1
  Ho  Ho2  1  0.25000000  0.01149200  0.31529200  1
  Ho  Ho3  1  0.75000000  0.98850800  0.68470800  1
  Mn  Mn4  1  0.75000000  0.86220200  0.05742300  1
  Mn  Mn5  1  0.25000000  0.13779800  0.94257700  1
  Mn  Mn6  1  0.75000000  0.36220200  0.44257700  1
  Mn  Mn7  1  0.25000000  0.63779800  0.55742300  1
  Si  Si8  1  0.25000000  0.78698400  0.88748700  1
  Si  Si9  1  0.75000000  0.21301600  0.11251300  1
  Si  Si10  1  0.25000000  0.28698400  0.61251300  1
  Si  Si11  1  0.75000000  0.71301600  0.38748700  1
