# generated using pymatgen
data_LaScSi
_symmetry_space_group_name_H-M   'P 1'
_cell_length_a   8.66613595
_cell_length_b   8.66613595
_cell_length_c   8.66613595
_cell_angle_alpha   150.93564117
_cell_angle_beta   150.93564117
_cell_angle_gamma   41.56969394
_symmetry_Int_Tables_number   1
_chemical_formula_structural   LaScSi
_chemical_formula_sum   'La2 Sc2 Si2'
_cell_volume   153.24776053
_cell_formula_units_Z   2
loop_
 _symmetry_equiv_pos_site_id
 _symmetry_equiv_pos_as_xyz
  1  'x, y, z'
loop_
 _atom_site_type_symbol
 _atom_site_label
 _atom_site_symmetry_multiplicity
 _atom_site_fract_x
 _atom_site_fract_y
 _atom_site_fract_z
 _atom_site_occupancy
  La  La0  1  0.32356900  0.32356900  0.00000000  1
  La  La1  1  0.67643100  0.67643100  0.00000000  1
  Sc  Sc2  1  0.50000000  0.00000000  0.50000000  1
  Sc  Sc3  1  0.00000000  0.50000000  0.50000000  1
  Si  Si4  1  0.11811500  0.11811500  0.00000000  1
  Si  Si5  1  0.88188500  0.88188500  0.00000000  1
