# generated using pymatgen
data_Sr3NiPbO6
_symmetry_space_group_name_H-M   'P 1'
_cell_length_a   9.52352087
_cell_length_b   9.52352088
_cell_length_c   9.52352059
_cell_angle_alpha   118.00287258
_cell_angle_beta   61.99712501
_cell_angle_gamma   118.00287379
_symmetry_Int_Tables_number   1
_chemical_formula_structural   Sr3NiPbO6
_chemical_formula_sum   'Sr12 Ni4 Pb4 O24'
_cell_volume   638.05404955
_cell_formula_units_Z   4
loop_
 _symmetry_equiv_pos_site_id
 _symmetry_equiv_pos_as_xyz
  1  'x, y, z'
loop_
 _atom_site_type_symbol
 _atom_site_label
 _atom_site_symmetry_multiplicity
 _atom_site_fract_x
 _atom_site_fract_y
 _atom_site_fract_z
 _atom_site_occupancy
  Sr  Sr0  1  0.24632500  0.12500000  0.50367500  1
  Sr  Sr1  1  0.74632500  0.62500000  0.00367500  1
  Sr  Sr2  1  0.99632500  0.74632500  0.62500000  1
  Sr  Sr3  1  0.49632500  0.24632500  0.12500000  1
  Sr  Sr4  1  0.62500000  0.00367500  0.25367500  1
  Sr  Sr5  1  0.12500000  0.50367500  0.75367500  1
  Sr  Sr6  1  0.25367500  0.37500000  0.99632500  1
  Sr  Sr7  1  0.75367500  0.87500000  0.49632500  1
  Sr  Sr8  1  0.50367500  0.75367500  0.87500000  1
  Sr  Sr9  1  0.00367500  0.25367500  0.37500000  1
  Sr  Sr10  1  0.87500000  0.49632500  0.24632500  1
  Sr  Sr11  1  0.37500000  0.99632500  0.74632500  1
  Ni  Ni12  1  0.75000000  0.25000000  0.75000000  1
  Ni  Ni13  1  0.50000000  0.50000000  0.50000000  1
  Ni  Ni14  1  0.25000000  0.75000000  0.25000000  1
  Ni  Ni15  1  0.00000000  0.00000000  0.00000000  1
  Pb  Pb16  1  0.37500000  0.62500000  0.37500000  1
  Pb  Pb17  1  0.87500000  0.12500000  0.87500000  1
  Pb  Pb18  1  0.12500000  0.87500000  0.12500000  1
  Pb  Pb19  1  0.62500000  0.37500000  0.62500000  1
  O  O20  1  0.13087500  0.53477700  0.32786100  1
  O  O21  1  0.63087500  0.03477700  0.82786100  1
  O  O22  1  0.32786100  0.86912500  0.46522300  1
  O  O23  1  0.82786100  0.36912500  0.96522300  1
  O  O24  1  0.46522300  0.67213900  0.13087500  1
  O  O25  1  0.96522300  0.17213900  0.63087500  1
  O  O26  1  0.78477700  0.88087500  0.92213900  1
  O  O27  1  0.28477700  0.38087500  0.42213900  1
  O  O28  1  0.92213900  0.21522300  0.11912500  1
  O  O29  1  0.42213900  0.71522300  0.61912500  1
  O  O30  1  0.11912500  0.07786100  0.78477700  1
  O  O31  1  0.61912500  0.57786100  0.28477700  1
  O  O32  1  0.36912500  0.96522300  0.17213900  1
  O  O33  1  0.86912500  0.46522300  0.67213900  1
  O  O34  1  0.17213900  0.63087500  0.03477700  1
  O  O35  1  0.67213900  0.13087500  0.53477700  1
  O  O36  1  0.03477700  0.82786100  0.36912500  1
  O  O37  1  0.53477700  0.32786100  0.86912500  1
  O  O38  1  0.71522300  0.61912500  0.57786100  1
  O  O39  1  0.21522300  0.11912500  0.07786100  1
  O  O40  1  0.38087500  0.42213900  0.71522300  1
  O  O41  1  0.88087500  0.92213900  0.21522300  1
  O  O42  1  0.57786100  0.28477700  0.38087500  1
  O  O43  1  0.07786100  0.78477700  0.88087500  1
