# generated using pymatgen
data_Na5Mn2P2(CO7)2
_symmetry_space_group_name_H-M   'P 1'
_cell_length_a   8.46864200
_cell_length_b   8.51089487
_cell_length_c   9.05787932
_cell_angle_alpha   90.20159527
_cell_angle_beta   90.64818967
_cell_angle_gamma   103.41835344
_symmetry_Int_Tables_number   1
_chemical_formula_structural   Na5Mn2P2(CO7)2
_chemical_formula_sum   'Na10 Mn4 P4 C4 O28'
_cell_volume   634.97803298
_cell_formula_units_Z   2
loop_
 _symmetry_equiv_pos_site_id
 _symmetry_equiv_pos_as_xyz
  1  'x, y, z'
loop_
 _atom_site_type_symbol
 _atom_site_label
 _atom_site_symmetry_multiplicity
 _atom_site_fract_x
 _atom_site_fract_y
 _atom_site_fract_z
 _atom_site_occupancy
  Na  Na0  1  0.25233200  0.51255300  0.92899300  1
  Na  Na1  1  0.62683500  0.63492200  0.74493900  1
  Na  Na2  1  0.86340000  0.35458600  0.74758400  1
  Na  Na3  1  0.39449900  0.88564000  0.74290400  1
  Na  Na4  1  0.11170700  0.12094600  0.74571000  1
  Na  Na5  1  0.88108200  0.87111300  0.25459600  1
  Na  Na6  1  0.62276900  0.11982800  0.24897000  1
  Na  Na7  1  0.37831100  0.37814500  0.25875400  1
  Na  Na8  1  0.24020000  0.97877700  0.08392500  1
  Na  Na9  1  0.75677700  0.49494300  0.08504200  1
  Mn  Mn10  1  0.51055500  0.26430000  0.64590900  1
  Mn  Mn11  1  0.01637000  0.76342900  0.63926300  1
  Mn  Mn12  1  0.47558400  0.73367500  0.35368300  1
  Mn  Mn13  1  0.98857600  0.24367100  0.35229900  1
  P  P14  1  0.72922200  0.97450900  0.57498500  1
  P  P15  1  0.22356100  0.47682500  0.58264700  1
  P  P16  1  0.77295300  0.52427900  0.42299400  1
  P  P17  1  0.27471000  0.02795300  0.41573900  1
  C  C18  1  0.98609100  0.74002300  0.92814200  1
  C  C19  1  0.48938600  0.23994600  0.94081300  1
  C  C20  1  0.51101100  0.75635800  0.06579900  1
  C  C21  1  0.01651100  0.26381600  0.06675600  1
  O  O22  1  0.50144000  0.75220400  0.92385900  1
  O  O23  1  0.01736500  0.26776800  0.92519600  1
  O  O24  1  0.60088500  0.35127100  0.87871800  1
  O  O25  1  0.09620100  0.84394000  0.85094900  1
  O  O26  1  0.88444200  0.63059900  0.85266200  1
  O  O27  1  0.38802800  0.13794000  0.85593200  1
  O  O28  1  0.86248400  0.91210400  0.66375300  1
  O  O29  1  0.34664000  0.42341900  0.68847000  1
  O  O30  1  0.67553600  0.10361500  0.66923200  1
  O  O31  1  0.16221400  0.60885100  0.67294500  1
  O  O32  1  0.57897400  0.82714700  0.55161100  1
  O  O33  1  0.70507800  0.45959200  0.57397900  1
  O  O34  1  0.21340500  0.95901800  0.56868100  1
  O  O35  1  0.07545400  0.32845800  0.55528700  1
  O  O36  1  0.91966200  0.67327700  0.45128600  1
  O  O37  1  0.79395100  0.04086800  0.42324300  1
  O  O38  1  0.29748700  0.53965100  0.43523300  1
  O  O39  1  0.41595700  0.18060900  0.43877900  1
  O  O40  1  0.82709700  0.39342000  0.32863400  1
  O  O41  1  0.64638200  0.58171200  0.32373300  1
  O  O42  1  0.33799600  0.90477900  0.31960400  1
  O  O43  1  0.13667300  0.07519000  0.32281800  1
  O  O44  1  0.61368600  0.86142500  0.14274300  1
  O  O45  1  0.12659700  0.36038000  0.14549600  1
  O  O46  1  0.90269400  0.16336300  0.13988700  1
  O  O47  1  0.40621400  0.64573400  0.13941900  1
  O  O48  1  0.98725600  0.74898300  0.06817400  1
  O  O49  1  0.47738500  0.23197100  0.08250600  1
