# generated using pymatgen
data_CaTi4(FeO4)3
_symmetry_space_group_name_H-M   'P 1'
_cell_length_a   7.54909617
_cell_length_b   7.54909573
_cell_length_c   7.54909515
_cell_angle_alpha   89.99998762
_cell_angle_beta   90.00000359
_cell_angle_gamma   89.99999921
_symmetry_Int_Tables_number   1
_chemical_formula_structural   CaTi4(FeO4)3
_chemical_formula_sum   'Ca2 Ti8 Fe6 O24'
_cell_volume   430.21424826
_cell_formula_units_Z   2
loop_
 _symmetry_equiv_pos_site_id
 _symmetry_equiv_pos_as_xyz
  1  'x, y, z'
loop_
 _atom_site_type_symbol
 _atom_site_label
 _atom_site_symmetry_multiplicity
 _atom_site_fract_x
 _atom_site_fract_y
 _atom_site_fract_z
 _atom_site_occupancy
  Ca  Ca0  1  0.00000000  0.00000000  0.00000000  1
  Ca  Ca1  1  0.50000000  0.50000000  0.50000000  1
  Ti  Ti2  1  0.25000100  0.25000100  0.25000100  1
  Ti  Ti3  1  0.75000100  0.75000100  0.75000100  1
  Ti  Ti4  1  0.75000000  0.25000000  0.75000000  1
  Ti  Ti5  1  0.25000000  0.75000000  0.25000000  1
  Ti  Ti6  1  0.25000000  0.25000000  0.75000000  1
  Ti  Ti7  1  0.75000000  0.75000000  0.25000000  1
  Ti  Ti8  1  0.25000000  0.75000000  0.75000000  1
  Ti  Ti9  1  0.75000000  0.25000000  0.25000000  1
  Fe  Fe10  1  0.50000000  0.50000000  0.00000000  1
  Fe  Fe11  1  0.50000000  0.00000000  0.50000000  1
  Fe  Fe12  1  0.00000000  0.50000000  0.50000000  1
  Fe  Fe13  1  0.00000000  0.00000000  0.50000000  1
  Fe  Fe14  1  0.00000000  0.50000000  0.00000000  1
  Fe  Fe15  1  0.50000000  0.00000000  0.00000000  1
  O  O16  1  0.20199800  0.50000000  0.68880100  1
  O  O17  1  0.70199800  0.00000000  0.18880100  1
  O  O18  1  0.79800200  0.50000000  0.68880100  1
  O  O19  1  0.29800200  0.00000000  0.18880100  1
  O  O20  1  0.70199800  0.00000100  0.81119800  1
  O  O21  1  0.20199800  0.50000100  0.31119800  1
  O  O22  1  0.18880200  0.29800100  0.00000100  1
  O  O23  1  0.68880200  0.79800100  0.50000100  1
  O  O24  1  0.00000000  0.18880200  0.70199800  1
  O  O25  1  0.50000000  0.68880200  0.20199800  1
  O  O26  1  0.50000000  0.31119800  0.79800100  1
  O  O27  1  0.00000000  0.81119800  0.29800100  1
  O  O28  1  0.31119900  0.79800100  0.50000100  1
  O  O29  1  0.81119900  0.29800100  0.00000100  1
  O  O30  1  0.99999900  0.18880200  0.29800200  1
  O  O31  1  0.50000000  0.68880200  0.79800200  1
  O  O32  1  0.29800200  0.00000000  0.81119800  1
  O  O33  1  0.79800200  0.50000000  0.31119800  1
  O  O34  1  0.18880200  0.70199900  0.00000100  1
  O  O35  1  0.68880200  0.20199900  0.50000100  1
  O  O36  1  0.31119900  0.20199900  0.50000000  1
  O  O37  1  0.81119900  0.70199900  0.00000000  1
  O  O38  1  0.50000100  0.31119900  0.20199900  1
  O  O39  1  0.00000100  0.81119900  0.70199900  1
