# generated using pymatgen
data_V4O7
_symmetry_space_group_name_H-M   'P 1'
_cell_length_a   6.11265000
_cell_length_b   6.16550032
_cell_length_c   6.44145739
_cell_angle_alpha   69.73316079
_cell_angle_beta   87.05717140
_cell_angle_gamma   82.85608595
_symmetry_Int_Tables_number   1
_chemical_formula_structural   V4O7
_chemical_formula_sum   'V8 O14'
_cell_volume   225.95636201
_cell_formula_units_Z   2
loop_
 _symmetry_equiv_pos_site_id
 _symmetry_equiv_pos_as_xyz
  1  'x, y, z'
loop_
 _atom_site_type_symbol
 _atom_site_label
 _atom_site_symmetry_multiplicity
 _atom_site_fract_x
 _atom_site_fract_y
 _atom_site_fract_z
 _atom_site_occupancy
  V  V0  1  0.58617900  0.74546100  0.98541400  1
  V  V1  1  0.41382100  0.25453900  0.01458600  1
  V  V2  1  0.35791000  0.18118500  0.58634100  1
  V  V3  1  0.64209000  0.81881500  0.41365900  1
  V  V4  1  0.13418400  0.69897400  0.79408300  1
  V  V5  1  0.86581600  0.30102600  0.20591700  1
  V  V6  1  0.87999100  0.30744500  0.72659500  1
  V  V7  1  0.12000900  0.69255500  0.27340500  1
  O  O8  1  0.32810100  0.43820100  0.66354600  1
  O  O9  1  0.67189900  0.56179900  0.33645400  1
  O  O10  1  0.92508900  0.65274300  0.59962600  1
  O  O11  1  0.07491100  0.34725700  0.40037400  1
  O  O12  1  0.38698800  0.90716900  0.18570500  1
  O  O13  1  0.61301200  0.09283100  0.81429500  1
  O  O14  1  0.89778800  0.98161600  0.26000200  1
  O  O15  1  0.10221200  0.01838400  0.73999800  1
  O  O16  1  0.31670400  0.57946800  0.05627300  1
  O  O17  1  0.68329600  0.42053200  0.94372700  1
  O  O18  1  0.55332500  0.17220200  0.34221800  1
  O  O19  1  0.44667500  0.82779800  0.65778200  1
  O  O20  1  0.91998300  0.69713900  0.02316400  1
  O  O21  1  0.08001700  0.30286100  0.97683600  1
