# generated using pymatgen
data_NaFeO2
_symmetry_space_group_name_H-M   'P 1'
_cell_length_a   5.43553800
_cell_length_b   5.79354900
_cell_length_c   7.26280400
_cell_angle_alpha   90.00000000
_cell_angle_beta   90.00000000
_cell_angle_gamma   90.00000000
_symmetry_Int_Tables_number   1
_chemical_formula_structural   NaFeO2
_chemical_formula_sum   'Na4 Fe4 O8'
_cell_volume   228.71336562
_cell_formula_units_Z   4
loop_
 _symmetry_equiv_pos_site_id
 _symmetry_equiv_pos_as_xyz
  1  'x, y, z'
loop_
 _atom_site_type_symbol
 _atom_site_label
 _atom_site_symmetry_multiplicity
 _atom_site_fract_x
 _atom_site_fract_y
 _atom_site_fract_z
 _atom_site_occupancy
  Na  Na0  1  0.02027800  0.92678900  0.62199100  1
  Na  Na1  1  0.02027800  0.42678900  0.87800900  1
  Na  Na2  1  0.52027800  0.57321100  0.12199100  1
  Na  Na3  1  0.52027800  0.07321100  0.37800900  1
  Fe  Fe4  1  0.50721500  0.56693500  0.62661600  1
  Fe  Fe5  1  0.50721500  0.06693500  0.87338400  1
  Fe  Fe6  1  0.00721500  0.43306500  0.37338400  1
  Fe  Fe7  1  0.00721500  0.93306500  0.12661600  1
  O  O8  1  0.08875100  0.61301800  0.16056500  1
  O  O9  1  0.15835400  0.54718300  0.59177700  1
  O  O10  1  0.65835400  0.95281700  0.09177700  1
  O  O11  1  0.58875100  0.88698200  0.66056500  1
  O  O12  1  0.65835400  0.45281700  0.40822300  1
  O  O13  1  0.58875100  0.38698200  0.83943500  1
  O  O14  1  0.08875100  0.11301800  0.33943500  1
  O  O15  1  0.15835400  0.04718300  0.90822300  1
