# generated using pymatgen
data_Ba2Nd2Co4O11
_symmetry_space_group_name_H-M   'P 1'
_cell_length_a   3.84192300
_cell_length_b   7.91899000
_cell_length_c   7.95966900
_cell_angle_alpha   90.00000000
_cell_angle_beta   90.00000000
_cell_angle_gamma   90.00000000
_symmetry_Int_Tables_number   1
_chemical_formula_structural   Ba2Nd2Co4O11
_chemical_formula_sum   'Ba2 Nd2 Co4 O11'
_cell_volume   242.16616216
_cell_formula_units_Z   1
loop_
 _symmetry_equiv_pos_site_id
 _symmetry_equiv_pos_as_xyz
  1  'x, y, z'
loop_
 _atom_site_type_symbol
 _atom_site_label
 _atom_site_symmetry_multiplicity
 _atom_site_fract_x
 _atom_site_fract_y
 _atom_site_fract_z
 _atom_site_occupancy
  Ba  Ba0  1  0.50000000  0.00000000  0.24277700  1
  Ba  Ba1  1  0.50000000  0.00000000  0.75722300  1
  Nd  Nd2  1  0.50000000  0.50000000  0.26722800  1
  Nd  Nd3  1  0.50000000  0.50000000  0.73277200  1
  Co  Co4  1  0.00000000  0.75055900  0.50000000  1
  Co  Co5  1  0.00000000  0.24944100  0.50000000  1
  Co  Co6  1  0.00000000  0.74076100  0.00000000  1
  Co  Co7  1  0.00000000  0.25923900  0.00000000  1
  O  O8  1  0.00000000  0.00000000  0.00000000  1
  O  O9  1  0.00000000  0.00000000  0.50000000  1
  O  O10  1  0.00000000  0.50000000  0.50000000  1
  O  O11  1  0.50000000  0.68339700  0.00000000  1
  O  O12  1  0.50000000  0.31660300  0.00000000  1
  O  O13  1  0.50000000  0.73230200  0.50000000  1
  O  O14  1  0.50000000  0.26769800  0.50000000  1
  O  O15  1  0.00000000  0.70891500  0.23710900  1
  O  O16  1  0.00000000  0.70891500  0.76289100  1
  O  O17  1  0.00000000  0.29108500  0.76289100  1
  O  O18  1  0.00000000  0.29108500  0.23710900  1
