# generated using pymatgen
data_Na4Co2C4SO16
_symmetry_space_group_name_H-M   'P 1'
_cell_length_a   9.77959900
_cell_length_b   9.84497443
_cell_length_c   9.85518420
_cell_angle_alpha   119.21241208
_cell_angle_beta   119.55333266
_cell_angle_gamma   90.19399175
_symmetry_Int_Tables_number   1
_chemical_formula_structural   Na4Co2C4SO16
_chemical_formula_sum   'Na8 Co4 C8 S2 O32'
_cell_volume   682.17915229
_cell_formula_units_Z   2
loop_
 _symmetry_equiv_pos_site_id
 _symmetry_equiv_pos_as_xyz
  1  'x, y, z'
loop_
 _atom_site_type_symbol
 _atom_site_label
 _atom_site_symmetry_multiplicity
 _atom_site_fract_x
 _atom_site_fract_y
 _atom_site_fract_z
 _atom_site_occupancy
  Na  Na0  1  0.84756000  0.09218700  0.76313800  1
  Na  Na1  1  0.84674000  0.09325900  0.17687800  1
  Na  Na2  1  0.41299700  0.08832600  0.75047500  1
  Na  Na3  1  0.58234300  0.34903900  0.25312300  1
  Na  Na4  1  0.83967900  0.66106100  0.74971200  1
  Na  Na5  1  0.40842500  0.65072900  0.73508000  1
  Na  Na6  1  0.58475000  0.90564700  0.25477300  1
  Na  Na7  1  0.17038400  0.90691500  0.25588900  1
  Co  Co8  1  0.00214100  0.50253000  0.49865700  1
  Co  Co9  1  0.00257300  0.49801800  0.00306100  1
  Co  Co10  1  0.49741600  0.49929000  0.99691300  1
  Co  Co11  1  0.00186600  0.00010700  0.50459700  1
  C  C12  1  0.85663200  0.28560700  0.57094100  1
  C  C13  1  0.78298500  0.35671400  0.07192600  1
  C  C14  1  0.78829200  0.71701100  0.07233300  1
  C  C15  1  0.78192800  0.71060500  0.42267700  1
  C  C16  1  0.21405800  0.28688500  0.57480900  1
  C  C17  1  0.21107500  0.28539000  0.92508200  1
  C  C18  1  0.21343600  0.64142700  0.92409400  1
  C  C19  1  0.14156200  0.71486200  0.42686000  1
  S  S20  1  0.37605800  0.12461900  0.25065000  1
  S  S21  1  0.62732400  0.87588900  0.75286900  1
  O  O22  1  0.84590900  0.14020200  0.44989600  1
  O  O23  1  0.89327900  0.35269500  0.03645600  1
  O  O24  1  0.86559000  0.31487800  0.71739200  1
  O  O25  1  0.81311000  0.35208500  0.21451000  1
  O  O26  1  0.85040000  0.39997100  0.53758100  1
  O  O27  1  0.44536400  0.06885100  0.13400100  1
  O  O28  1  0.43365500  0.05574300  0.36784200  1
  O  O29  1  0.63611800  0.35302000  0.95991700  1
  O  O30  1  0.82159500  0.60671700  0.96208400  1
  O  O31  1  0.89097400  0.67822400  0.53776900  1
  O  O32  1  0.19120900  0.06555800  0.12901200  1
  O  O33  1  0.43418800  0.30726800  0.37179400  1
  O  O34  1  0.36036700  0.31203600  0.96272200  1
  O  O35  1  0.19143700  0.13959200  0.53787300  1
  O  O36  1  0.64236800  0.59671600  0.27590700  1
  O  O37  1  0.89873200  0.86111900  0.21160800  1
  O  O38  1  0.35332900  0.40274300  0.72000800  1
  O  O39  1  0.09943000  0.14489100  0.78372300  1
  O  O40  1  0.64146600  0.68878900  0.03908400  1
  O  O41  1  0.80945800  0.85751100  0.46052500  1
  O  O42  1  0.57046300  0.69341300  0.63646400  1
  O  O43  1  0.81463900  0.93738400  0.87769600  1
  O  O44  1  0.09859800  0.31503200  0.46053100  1
  O  O45  1  0.17884200  0.39688800  0.03435800  1
  O  O46  1  0.36039700  0.64781800  0.04039800  1
  O  O47  1  0.56472300  0.93673600  0.87763800  1
  O  O48  1  0.56921000  0.94436500  0.63629600  1
  O  O49  1  0.14434700  0.60372800  0.46331100  1
  O  O50  1  0.18269000  0.63660000  0.77818800  1
  O  O51  1  0.13533500  0.68155200  0.28021200  1
  O  O52  1  0.10191500  0.65009100  0.96091600  1
  O  O53  1  0.15418200  0.86166800  0.54329300  1
