# generated using pymatgen
data_Na2MnPCO7
_symmetry_space_group_name_H-M   'P 1'
_cell_length_a   6.78010800
_cell_length_b   10.22383780
_cell_length_c   10.35700830
_cell_angle_alpha   119.41230555
_cell_angle_beta   90.16891119
_cell_angle_gamma   90.39810983
_symmetry_Int_Tables_number   1
_chemical_formula_structural   Na2MnPCO7
_chemical_formula_sum   'Na8 Mn4 P4 C4 O28'
_cell_volume   625.36706728
_cell_formula_units_Z   4
loop_
 _symmetry_equiv_pos_site_id
 _symmetry_equiv_pos_as_xyz
  1  'x, y, z'
loop_
 _atom_site_type_symbol
 _atom_site_label
 _atom_site_symmetry_multiplicity
 _atom_site_fract_x
 _atom_site_fract_y
 _atom_site_fract_z
 _atom_site_occupancy
  Na  Na0  1  0.98299100  0.74433700  0.74921500  1
  Na  Na1  1  0.51912500  0.74358300  0.75066800  1
  Na  Na2  1  0.99285300  0.75767000  0.25592000  1
  Na  Na3  1  0.50859100  0.75891900  0.25574100  1
  Na  Na4  1  0.49116500  0.24728200  0.74016400  1
  Na  Na5  1  0.00414600  0.24580500  0.73647500  1
  Na  Na6  1  0.01293300  0.25060100  0.25970400  1
  Na  Na7  1  0.26420600  0.08758100  0.93881500  1
  Mn  Mn8  1  0.24857300  0.64707900  0.93163100  1
  Mn  Mn9  1  0.25136800  0.64396300  0.43481800  1
  Mn  Mn10  1  0.74219100  0.35032900  0.56227900  1
  Mn  Mn11  1  0.74407100  0.34930500  0.07047000  1
  P  P12  1  0.74953100  0.57766900  0.93576800  1
  P  P13  1  0.75186200  0.57938500  0.43308300  1
  P  P14  1  0.24763800  0.42112300  0.56625300  1
  P  P15  1  0.24837200  0.41921300  0.05834900  1
  C  C16  1  0.24739000  0.92670700  0.09848800  1
  C  C17  1  0.25112200  0.92685800  0.60561000  1
  C  C18  1  0.75075000  0.07360800  0.40017700  1
  C  C19  1  0.75305700  0.07324800  0.90017000  1
  O  O20  1  0.75358200  0.93345700  0.32833300  1
  O  O21  1  0.75388900  0.93270700  0.82124100  1
  O  O22  1  0.25297300  0.84983100  0.94943100  1
  O  O23  1  0.25235500  0.85246800  0.45935800  1
  O  O24  1  0.25033300  0.83887800  0.15623200  1
  O  O25  1  0.25421500  0.84113200  0.66620200  1
  O  O26  1  0.93469400  0.67167300  0.94746500  1
  O  O27  1  0.56298100  0.66779100  0.94566100  1
  O  O28  1  0.93856900  0.67554400  0.45033700  1
  O  O29  1  0.56408700  0.66885600  0.44281900  1
  O  O30  1  0.74953800  0.54681400  0.56782600  1
  O  O31  1  0.24614400  0.57826600  0.70973700  1
  O  O32  1  0.75060600  0.54446500  0.07042200  1
  O  O33  1  0.25213700  0.57100700  0.20501300  1
  O  O34  1  0.75000100  0.42443400  0.78946000  1
  O  O35  1  0.23830300  0.45491300  0.92519200  1
  O  O36  1  0.76066100  0.42728800  0.28792600  1
  O  O37  1  0.24386200  0.45566700  0.43251000  1
  O  O38  1  0.43212300  0.33463700  0.56321000  1
  O  O39  1  0.06111800  0.32970200  0.55444100  1
  O  O40  1  0.43304100  0.32275900  0.03255300  1
  O  O41  1  0.06794100  0.32029500  0.04544900  1
  O  O42  1  0.75563100  0.16353600  0.34561500  1
  O  O43  1  0.74812400  0.16729400  0.84818000  1
  O  O44  1  0.74203900  0.14844300  0.54818600  1
  O  O45  1  0.75502600  0.14263900  0.04604600  1
  O  O46  1  0.23899000  0.06616600  0.16409100  1
  O  O47  1  0.24719900  0.06834800  0.68132900  1
