# generated using pymatgen
data_Na4NiO4
_symmetry_space_group_name_H-M   'P 1'
_cell_length_a   10.05483811
_cell_length_b   6.05751963
_cell_length_c   17.53723129
_cell_angle_alpha   90.08837090
_cell_angle_beta   92.61369192
_cell_angle_gamma   89.78003277
_symmetry_Int_Tables_number   1
_chemical_formula_structural   Na4NiO4
_chemical_formula_sum   'Na32 Ni8 O32'
_cell_volume   1067.02674271
_cell_formula_units_Z   8
loop_
 _symmetry_equiv_pos_site_id
 _symmetry_equiv_pos_as_xyz
  1  'x, y, z'
loop_
 _atom_site_type_symbol
 _atom_site_label
 _atom_site_symmetry_multiplicity
 _atom_site_fract_x
 _atom_site_fract_y
 _atom_site_fract_z
 _atom_site_occupancy
  Na  Na0  1  0.13800000  0.17816800  0.86315700  1
  Na  Na1  1  0.14796400  0.33340200  0.36201900  1
  Na  Na2  1  0.20454300  0.64400900  0.14017000  1
  Na  Na3  1  0.27053600  0.51586200  0.61192800  1
  Na  Na4  1  0.25743200  0.56343500  0.79240900  1
  Na  Na5  1  0.26121200  0.94009300  0.29210300  1
  Na  Na6  1  0.31712100  0.06301800  0.49995700  1
  Na  Na7  1  0.32859900  0.40845800  0.00213300  1
  Na  Na8  1  0.39127100  0.34269300  0.23836000  1
  Na  Na9  1  0.37372200  0.11941300  0.74176300  1
  Na  Na10  1  0.36885500  0.88147500  0.91967300  1
  Na  Na11  1  0.38509500  0.60622100  0.41401600  1
  Na  Na12  1  0.54983500  0.06508000  0.05777500  1
  Na  Na13  1  0.56371900  0.42882900  0.55717000  1
  Na  Na14  1  0.59148500  0.61522900  0.75365900  1
  Na  Na15  1  0.59498400  0.87620200  0.25516700  1
  Na  Na16  1  0.65238900  0.59075200  0.00280300  1
  Na  Na17  1  0.66408900  0.90277100  0.50505500  1
  Na  Na18  1  0.68658200  0.09525900  0.68200400  1
  Na  Na19  1  0.69157000  0.39729700  0.18034600  1
  Na  Na20  1  0.69946300  0.54941600  0.36815800  1
  Na  Na21  1  0.68975600  0.94130500  0.86838700  1
  Na  Na22  1  0.80437500  0.08573300  0.36473600  1
  Na  Na23  1  0.79788400  0.40880300  0.86189300  1
  Na  Na24  1  0.84215100  0.58658600  0.67331600  1
  Na  Na25  1  0.84633400  0.92556600  0.17766300  1
  Na  Na26  1  0.88306700  0.39329500  0.50420500  1
  Na  Na27  1  0.87092400  0.09585200  0.00560200  1
  Na  Na28  1  0.96659400  0.01671700  0.74242000  1
  Na  Na29  1  0.95609300  0.45221700  0.24503600  1
  Na  Na30  1  0.01068000  0.90087800  0.54724500  1
  Na  Na31  1  0.96834600  0.58428300  0.05156800  1
  Ni  Ni32  1  0.07238800  0.17808300  0.13145500  1
  Ni  Ni33  1  0.05588200  0.30859300  0.63508900  1
  Ni  Ni34  1  0.47792500  0.66732900  0.12572100  1
  Ni  Ni35  1  0.46990100  0.83913700  0.62360100  1
  Ni  Ni36  1  0.53364000  0.15107800  0.37929800  1
  Ni  Ni37  1  0.52525000  0.33940500  0.87768100  1
  Ni  Ni38  1  0.96059300  0.69631300  0.37834200  1
  Ni  Ni39  1  0.95220200  0.80093100  0.87714800  1
  O  O40  1  0.04161500  0.89247800  0.11929000  1
  O  O41  1  0.04124900  0.60592400  0.62040500  1
  O  O42  1  0.15390200  0.26582000  0.22348400  1
  O  O43  1  0.14796100  0.26269100  0.72424200  1
  O  O44  1  0.13831000  0.34193300  0.05909800  1
  O  O45  1  0.13172900  0.21563300  0.55065800  1
  O  O46  1  0.12479300  0.77403900  0.86654900  1
  O  O47  1  0.13346800  0.73400700  0.37220900  1
  O  O48  1  0.35190300  0.24830600  0.87869900  1
  O  O49  1  0.35872800  0.23432600  0.37943300  1
  O  O50  1  0.39145400  0.77631600  0.04255000  1
  O  O51  1  0.40134600  0.71170700  0.53626900  1
  O  O52  1  0.38646600  0.73716400  0.70447800  1
  O  O53  1  0.39196500  0.73321900  0.21174500  1
  O  O54  1  0.48625300  0.37435200  0.11394500  1
  O  O55  1  0.46987200  0.13335400  0.61451900  1
  O  O56  1  0.53620100  0.64357600  0.88180300  1
  O  O57  1  0.55040500  0.84830400  0.38338000  1
  O  O58  1  0.60448800  0.24370300  0.78878800  1
  O  O59  1  0.61299900  0.24617700  0.28966200  1
  O  O60  1  0.64015900  0.22640000  0.95561900  1
  O  O61  1  0.65009400  0.26719700  0.45547100  1
  O  O62  1  0.64430700  0.73657300  0.62982300  1
  O  O63  1  0.64902600  0.77125100  0.12953500  1
  O  O64  1  0.88370200  0.20597100  0.63396000  1
  O  O65  1  0.89100700  0.28720800  0.13122600  1
  O  O66  1  0.86483100  0.78560600  0.45577100  1
  O  O67  1  0.85222400  0.71238800  0.95278500  1
  O  O68  1  0.84338900  0.72726100  0.79163200  1
  O  O69  1  0.85100200  0.76947100  0.29293100  1
  O  O70  1  0.93119900  0.39113100  0.37512900  1
  O  O71  1  0.92341900  0.10733100  0.87555300  1
