# generated using pymatgen
data_Na2FeO2
_symmetry_space_group_name_H-M   'P 1'
_cell_length_a   3.04005600
_cell_length_b   5.81284225
_cell_length_c   8.71165656
_cell_angle_alpha   104.58065928
_cell_angle_beta   79.95194153
_cell_angle_gamma   105.15758941
_symmetry_Int_Tables_number   1
_chemical_formula_structural   Na2FeO2
_chemical_formula_sum   'Na4 Fe2 O4'
_cell_volume   142.82956613
_cell_formula_units_Z   2
loop_
 _symmetry_equiv_pos_site_id
 _symmetry_equiv_pos_as_xyz
  1  'x, y, z'
loop_
 _atom_site_type_symbol
 _atom_site_label
 _atom_site_symmetry_multiplicity
 _atom_site_fract_x
 _atom_site_fract_y
 _atom_site_fract_z
 _atom_site_occupancy
  Na  Na0  1  0.69086300  0.53624000  0.15457600  1
  Na  Na1  1  0.69087300  0.03623900  0.65455500  1
  Na  Na2  1  0.30912700  0.96376100  0.34544500  1
  Na  Na3  1  0.30913700  0.46376000  0.84542400  1
  Fe  Fe4  1  0.00000000  0.50000000  0.50000000  1
  Fe  Fe5  1  0.99999800  0.00000000  0.00000000  1
  O  O6  1  0.36624100  0.79935300  0.06690000  1
  O  O7  1  0.36623300  0.29932800  0.56689200  1
  O  O8  1  0.63376800  0.70067200  0.43310800  1
  O  O9  1  0.63376000  0.20064700  0.93310000  1
