# generated using pymatgen
data_Cr2ReO6
_symmetry_space_group_name_H-M   'P 1'
_cell_length_a   4.61020600
_cell_length_b   4.61020600
_cell_length_c   9.16008800
_cell_angle_alpha   90.00000000
_cell_angle_beta   90.00000000
_cell_angle_gamma   90.00000000
_symmetry_Int_Tables_number   1
_chemical_formula_structural   Cr2ReO6
_chemical_formula_sum   'Cr4 Re2 O12'
_cell_volume   194.68850451
_cell_formula_units_Z   2
loop_
 _symmetry_equiv_pos_site_id
 _symmetry_equiv_pos_as_xyz
  1  'x, y, z'
loop_
 _atom_site_type_symbol
 _atom_site_label
 _atom_site_symmetry_multiplicity
 _atom_site_fract_x
 _atom_site_fract_y
 _atom_site_fract_z
 _atom_site_occupancy
  Cr  Cr0  1  0.00000000  0.00000000  0.33407100  1
  Cr  Cr1  1  0.50000000  0.50000000  0.83407100  1
  Cr  Cr2  1  0.00000000  0.00000000  0.66592900  1
  Cr  Cr3  1  0.50000000  0.50000000  0.16592900  1
  Re  Re4  1  0.00000000  0.00000000  0.00000000  1
  Re  Re5  1  0.50000000  0.50000000  0.50000000  1
  O  O6  1  0.69217600  0.69217600  0.66198400  1
  O  O7  1  0.30782400  0.30782400  0.66198400  1
  O  O8  1  0.69217600  0.69217600  0.33801600  1
  O  O9  1  0.19217600  0.80782400  0.16198400  1
  O  O10  1  0.80782400  0.19217600  0.16198400  1
  O  O11  1  0.80782400  0.19217600  0.83801600  1
  O  O12  1  0.29480900  0.29480900  0.00000000  1
  O  O13  1  0.20519100  0.79480900  0.50000000  1
  O  O14  1  0.79480900  0.20519100  0.50000000  1
  O  O15  1  0.19217600  0.80782400  0.83801600  1
  O  O16  1  0.30782400  0.30782400  0.33801600  1
  O  O17  1  0.70519100  0.70519100  0.00000000  1
