# generated using pymatgen
data_NaEuTiO4
_symmetry_space_group_name_H-M   'P 1'
_cell_length_a   5.31994300
_cell_length_b   5.40085900
_cell_length_c   12.84569100
_cell_angle_alpha   90.00000000
_cell_angle_beta   90.00000000
_cell_angle_gamma   90.00000000
_symmetry_Int_Tables_number   1
_chemical_formula_structural   NaEuTiO4
_chemical_formula_sum   'Na4 Eu4 Ti4 O16'
_cell_volume   369.08575978
_cell_formula_units_Z   4
loop_
 _symmetry_equiv_pos_site_id
 _symmetry_equiv_pos_as_xyz
  1  'x, y, z'
loop_
 _atom_site_type_symbol
 _atom_site_label
 _atom_site_symmetry_multiplicity
 _atom_site_fract_x
 _atom_site_fract_y
 _atom_site_fract_z
 _atom_site_occupancy
  Na  Na0  1  0.75000000  0.99767900  0.58536100  1
  Na  Na1  1  0.75000000  0.49767900  0.41463900  1
  Na  Na2  1  0.25000000  0.00232100  0.41463900  1
  Na  Na3  1  0.25000000  0.50232100  0.58536100  1
  Eu  Eu4  1  0.75000000  0.98059300  0.89247800  1
  Eu  Eu5  1  0.75000000  0.48059300  0.10752200  1
  Eu  Eu6  1  0.25000000  0.51940700  0.89247800  1
  Eu  Eu7  1  0.25000000  0.01940700  0.10752200  1
  Ti  Ti8  1  0.25000000  0.00756300  0.73077200  1
  Ti  Ti9  1  0.75000000  0.49243700  0.73077200  1
  Ti  Ti10  1  0.25000000  0.50756300  0.26922800  1
  Ti  Ti11  1  0.75000000  0.99243700  0.26922800  1
  O  O12  1  0.25000000  0.53443500  0.40564900  1
  O  O13  1  0.75000000  0.46556500  0.59435100  1
  O  O14  1  0.25000000  0.03443500  0.59435100  1
  O  O15  1  0.75000000  0.96556500  0.40564900  1
  O  O16  1  0.25000000  0.44783500  0.06726700  1
  O  O17  1  0.75000000  0.55216500  0.93273300  1
  O  O18  1  0.25000000  0.94783500  0.93273300  1
  O  O19  1  0.75000000  0.05216500  0.06726700  1
  O  O20  1  0.50000000  0.75000000  0.75544300  1
  O  O21  1  0.00000000  0.25000000  0.24455700  1
  O  O22  1  0.50000000  0.25000000  0.24455700  1
  O  O23  1  0.00000000  0.75000000  0.75544300  1
  O  O24  1  0.00000000  0.75000000  0.22301000  1
  O  O25  1  0.50000000  0.25000000  0.77699000  1
  O  O26  1  0.00000000  0.25000000  0.77699000  1
  O  O27  1  0.50000000  0.75000000  0.22301000  1
