# generated using pymatgen
data_BaEr2CoO5
_symmetry_space_group_name_H-M   'P 1'
_cell_length_a   5.72195100
_cell_length_b   7.08008200
_cell_length_c   12.28913100
_cell_angle_alpha   90.00000000
_cell_angle_beta   90.00000000
_cell_angle_gamma   90.00000000
_symmetry_Int_Tables_number   1
_chemical_formula_structural   BaEr2CoO5
_chemical_formula_sum   'Ba4 Er8 Co4 O20'
_cell_volume   497.85582840
_cell_formula_units_Z   4
loop_
 _symmetry_equiv_pos_site_id
 _symmetry_equiv_pos_as_xyz
  1  'x, y, z'
loop_
 _atom_site_type_symbol
 _atom_site_label
 _atom_site_symmetry_multiplicity
 _atom_site_fract_x
 _atom_site_fract_y
 _atom_site_fract_z
 _atom_site_occupancy
  Ba  Ba0  1  0.75000000  0.07910600  0.10059500  1
  Ba  Ba1  1  0.75000000  0.42089500  0.60059500  1
  Ba  Ba2  1  0.25000000  0.57910500  0.39940500  1
  Ba  Ba3  1  0.25000000  0.92089500  0.89940500  1
  Er  Er4  1  0.25000000  0.40155400  0.07441600  1
  Er  Er5  1  0.75000000  0.61955800  0.20850600  1
  Er  Er6  1  0.75000000  0.88044200  0.70850600  1
  Er  Er7  1  0.25000000  0.11955900  0.29149400  1
  Er  Er8  1  0.75000000  0.59844600  0.92558400  1
  Er  Er9  1  0.75000000  0.90155400  0.42558400  1
  Er  Er10  1  0.25000000  0.09844500  0.57441600  1
  Er  Er11  1  0.25000000  0.38044100  0.79149400  1
  Co  Co12  1  0.25000000  0.80794100  0.15216300  1
  Co  Co13  1  0.75000000  0.19206000  0.84783700  1
  Co  Co14  1  0.75000000  0.30794000  0.34783700  1
  Co  Co15  1  0.25000000  0.69205900  0.65216300  1
  O  O16  1  0.25000000  0.42193700  0.60264200  1
  O  O17  1  0.75000000  0.57806300  0.39735800  1
  O  O18  1  0.75000000  0.92193700  0.89735800  1
  O  O19  1  0.25000000  0.07806400  0.10264200  1
  O  O20  1  0.00019000  0.86193400  0.27499000  1
  O  O21  1  0.50019000  0.13806600  0.72501000  1
  O  O22  1  0.99981000  0.36193300  0.22501000  1
  O  O23  1  0.49980900  0.63806600  0.77499000  1
  O  O24  1  0.99981000  0.13806600  0.72501000  1
  O  O25  1  0.49980900  0.86193400  0.27499000  1
  O  O26  1  0.00019000  0.63806600  0.77499000  1
  O  O27  1  0.50019000  0.36193300  0.22501000  1
  O  O28  1  0.49737100  0.66469100  0.06594000  1
  O  O29  1  0.99737300  0.33530900  0.93406000  1
  O  O30  1  0.50262800  0.16469100  0.43406000  1
  O  O31  1  0.00262900  0.83530800  0.56594000  1
  O  O32  1  0.99737300  0.16469100  0.43406000  1
  O  O33  1  0.49737100  0.83530800  0.56594000  1
  O  O34  1  0.50262800  0.33530900  0.93406000  1
  O  O35  1  0.00262900  0.66469100  0.06594000  1
