# generated using pymatgen
data_CrN
_symmetry_space_group_name_H-M   'P 1'
_cell_length_a   4.15810102
_cell_length_b   4.15809202
_cell_length_c   5.06550487
_cell_angle_alpha   65.77831340
_cell_angle_beta   65.77899884
_cell_angle_gamma   90.00351328
_symmetry_Int_Tables_number   1
_chemical_formula_structural   CrN
_chemical_formula_sum   'Cr4 N4'
_cell_volume   71.33171417
_cell_formula_units_Z   4
loop_
 _symmetry_equiv_pos_site_id
 _symmetry_equiv_pos_as_xyz
  1  'x, y, z'
loop_
 _atom_site_type_symbol
 _atom_site_label
 _atom_site_symmetry_multiplicity
 _atom_site_fract_x
 _atom_site_fract_y
 _atom_site_fract_z
 _atom_site_occupancy
  Cr  Cr0  1  0.00004700  0.99996700  0.99999600  1
  Cr  Cr1  1  0.24995900  0.75002700  0.50000500  1
  Cr  Cr2  1  0.74995400  0.25002200  0.50001700  1
  Cr  Cr3  1  0.50003900  0.49998500  0.99998100  1
  N  N4  1  0.50000900  0.99998400  0.99999100  1
  N  N5  1  0.74999400  0.75002000  0.49999800  1
  N  N6  1  0.99999700  0.49996400  0.00003200  1
  N  N7  1  0.25000200  0.25003100  0.49997900  1
