# generated using pymatgen
data_PtPb2
_symmetry_space_group_name_H-M   'P 1'
_cell_length_a   5.80672451
_cell_length_b   5.80672451
_cell_length_c   5.80672451
_cell_angle_alpha   104.58950061
_cell_angle_beta   104.58950061
_cell_angle_gamma   119.74996381
_symmetry_Int_Tables_number   1
_chemical_formula_structural   PtPb2
_chemical_formula_sum   'Pt2 Pb4'
_cell_volume   147.02634302
_cell_formula_units_Z   2
loop_
 _symmetry_equiv_pos_site_id
 _symmetry_equiv_pos_as_xyz
  1  'x, y, z'
loop_
 _atom_site_type_symbol
 _atom_site_label
 _atom_site_symmetry_multiplicity
 _atom_site_fract_x
 _atom_site_fract_y
 _atom_site_fract_z
 _atom_site_occupancy
  Pt  Pt0  1  0.75000000  0.75000000  0.00000000  1
  Pt  Pt1  1  0.25000000  0.25000000  0.00000000  1
  Pb  Pb2  1  0.66092000  0.16092000  0.82184000  1
  Pb  Pb3  1  0.16092000  0.33908000  0.50000000  1
  Pb  Pb4  1  0.83908000  0.66092000  0.50000000  1
  Pb  Pb5  1  0.33908000  0.83908000  0.17816000  1
