# generated using pymatgen
data_Pu2O3
_symmetry_space_group_name_H-M   'P 1'
_cell_length_a   3.76126745
_cell_length_b   3.76126745
_cell_length_c   5.97268900
_cell_angle_alpha   90.00000000
_cell_angle_beta   90.00000000
_cell_angle_gamma   119.99999027
_symmetry_Int_Tables_number   1
_chemical_formula_structural   Pu2O3
_chemical_formula_sum   'Pu2 O3'
_cell_volume   73.17605732
_cell_formula_units_Z   1
loop_
 _symmetry_equiv_pos_site_id
 _symmetry_equiv_pos_as_xyz
  1  'x, y, z'
loop_
 _atom_site_type_symbol
 _atom_site_label
 _atom_site_symmetry_multiplicity
 _atom_site_fract_x
 _atom_site_fract_y
 _atom_site_fract_z
 _atom_site_occupancy
  Pu  Pu0  1  0.33333300  0.66666700  0.24363400  1
  Pu  Pu1  1  0.66666700  0.33333300  0.75636600  1
  O  O2  1  0.00000000  0.00000000  0.00000000  1
  O  O3  1  0.33333300  0.66666700  0.64150300  1
  O  O4  1  0.66666700  0.33333300  0.35849700  1
