# generated using pymatgen
data_CaLaMn2O6
_symmetry_space_group_name_H-M   'P 1'
_cell_length_a   5.52975000
_cell_length_b   7.67389500
_cell_length_c   11.00373500
_cell_angle_alpha   90.00000000
_cell_angle_beta   90.00000000
_cell_angle_gamma   90.00000000
_symmetry_Int_Tables_number   1
_chemical_formula_structural   CaLaMn2O6
_chemical_formula_sum   'Ca4 La4 Mn8 O24'
_cell_volume   466.94042332
_cell_formula_units_Z   4
loop_
 _symmetry_equiv_pos_site_id
 _symmetry_equiv_pos_as_xyz
  1  'x, y, z'
loop_
 _atom_site_type_symbol
 _atom_site_label
 _atom_site_symmetry_multiplicity
 _atom_site_fract_x
 _atom_site_fract_y
 _atom_site_fract_z
 _atom_site_occupancy
  Ca  Ca0  1  0.25985200  0.00000000  0.11778700  1
  Ca  Ca1  1  0.24014800  0.50000000  0.61778700  1
  Ca  Ca2  1  0.75985200  0.50000000  0.38221300  1
  Ca  Ca3  1  0.74014800  0.00000000  0.88221300  1
  La  La4  1  0.24117700  0.50000000  0.12816500  1
  La  La5  1  0.25882300  0.00000000  0.62816500  1
  La  La6  1  0.75882300  0.50000000  0.87183500  1
  La  La7  1  0.74117700  0.00000000  0.37183500  1
  Mn  Mn8  1  0.75521600  0.74707400  0.62468600  1
  Mn  Mn9  1  0.74478400  0.75292600  0.12468600  1
  Mn  Mn10  1  0.75521600  0.25292600  0.62468600  1
  Mn  Mn11  1  0.74478400  0.24707400  0.12468600  1
  Mn  Mn12  1  0.24478400  0.74707400  0.37531400  1
  Mn  Mn13  1  0.25521600  0.24707400  0.87531400  1
  Mn  Mn14  1  0.25521600  0.75292600  0.87531400  1
  Mn  Mn15  1  0.24478400  0.25292600  0.37531400  1
  O  O16  1  0.67500400  0.50000000  0.11439300  1
  O  O17  1  0.82499600  0.00000000  0.61439300  1
  O  O18  1  0.83249900  0.00000000  0.13273100  1
  O  O19  1  0.66750100  0.50000000  0.63273100  1
  O  O20  1  0.33249900  0.50000000  0.36726900  1
  O  O21  1  0.16750100  0.00000000  0.86726900  1
  O  O22  1  0.17500400  0.00000000  0.38560700  1
  O  O23  1  0.32499600  0.50000000  0.88560700  1
  O  O24  1  0.00000000  0.71183800  0.00000000  1
  O  O25  1  0.50000000  0.78816200  0.50000000  1
  O  O26  1  0.50000000  0.21183800  0.50000000  1
  O  O27  1  0.00000000  0.28816200  0.00000000  1
  O  O28  1  0.51715800  0.79321100  0.75436200  1
  O  O29  1  0.98284200  0.70678900  0.25436200  1
  O  O30  1  0.98284200  0.29321100  0.25436200  1
  O  O31  1  0.51715800  0.20678900  0.75436200  1
  O  O32  1  0.50000000  0.20445400  0.00000000  1
  O  O33  1  0.00000000  0.29554600  0.50000000  1
  O  O34  1  0.00000000  0.70445400  0.50000000  1
  O  O35  1  0.50000000  0.79554600  0.00000000  1
  O  O36  1  0.48284200  0.20678900  0.24563800  1
  O  O37  1  0.01715800  0.29321100  0.74563800  1
  O  O38  1  0.01715800  0.70678900  0.74563800  1
  O  O39  1  0.48284200  0.79321100  0.24563800  1
