# generated using pymatgen
data_Ba5Ge3
_symmetry_space_group_name_H-M   'P 1'
_cell_length_a   8.60331800
_cell_length_b   8.60331800
_cell_length_c   16.82546300
_cell_angle_alpha   90.00000000
_cell_angle_beta   90.00000000
_cell_angle_gamma   90.00000000
_symmetry_Int_Tables_number   1
_chemical_formula_structural   Ba5Ge3
_chemical_formula_sum   'Ba20 Ge12'
_cell_volume   1245.37165116
_cell_formula_units_Z   4
loop_
 _symmetry_equiv_pos_site_id
 _symmetry_equiv_pos_as_xyz
  1  'x, y, z'
loop_
 _atom_site_type_symbol
 _atom_site_label
 _atom_site_symmetry_multiplicity
 _atom_site_fract_x
 _atom_site_fract_y
 _atom_site_fract_z
 _atom_site_occupancy
  Ba  Ba0  1  0.66736800  0.69360500  0.89163500  1
  Ba  Ba1  1  0.80639500  0.16736800  0.89163500  1
  Ba  Ba2  1  0.19360500  0.83263200  0.89163500  1
  Ba  Ba3  1  0.16736800  0.80639500  0.60836500  1
  Ba  Ba4  1  0.83263200  0.19360500  0.60836500  1
  Ba  Ba5  1  0.33263200  0.30639500  0.89163500  1
  Ba  Ba6  1  0.69360500  0.66736800  0.60836500  1
  Ba  Ba7  1  0.30639500  0.33263200  0.60836500  1
  Ba  Ba8  1  0.19360500  0.16736800  0.39163500  1
  Ba  Ba9  1  0.80639500  0.83263200  0.39163500  1
  Ba  Ba10  1  0.16736800  0.19360500  0.10836500  1
  Ba  Ba11  1  0.66736800  0.30639500  0.39163500  1
  Ba  Ba12  1  0.33263200  0.69360500  0.39163500  1
  Ba  Ba13  1  0.30639500  0.66736800  0.10836500  1
  Ba  Ba14  1  0.69360500  0.33263200  0.10836500  1
  Ba  Ba15  1  0.83263200  0.80639500  0.10836500  1
  Ba  Ba16  1  0.50000000  0.00000000  0.72203200  1
  Ba  Ba17  1  0.00000000  0.50000000  0.77796800  1
  Ba  Ba18  1  0.00000000  0.50000000  0.27796800  1
  Ba  Ba19  1  0.50000000  0.00000000  0.22203200  1
  Ge  Ge20  1  0.60761900  0.39238100  0.75000000  1
  Ge  Ge21  1  0.10761900  0.10761900  0.75000000  1
  Ge  Ge22  1  0.89238100  0.89238100  0.75000000  1
  Ge  Ge23  1  0.39238100  0.60761900  0.75000000  1
  Ge  Ge24  1  0.89238100  0.10761900  0.25000000  1
  Ge  Ge25  1  0.39238100  0.39238100  0.25000000  1
  Ge  Ge26  1  0.60761900  0.60761900  0.25000000  1
  Ge  Ge27  1  0.10761900  0.89238100  0.25000000  1
  Ge  Ge28  1  0.50000000  0.00000000  0.51018300  1
  Ge  Ge29  1  0.00000000  0.50000000  0.98981700  1
  Ge  Ge30  1  0.00000000  0.50000000  0.48981700  1
  Ge  Ge31  1  0.50000000  0.00000000  0.01018300  1
