# generated using pymatgen
data_MnZn4O5
_symmetry_space_group_name_H-M   'P 1'
_cell_length_a   6.28589887
_cell_length_b   13.12869413
_cell_length_c   6.62241919
_cell_angle_alpha   75.36097476
_cell_angle_beta   105.14390146
_cell_angle_gamma   90.66171250
_symmetry_Int_Tables_number   1
_chemical_formula_structural   MnZn4O5
_chemical_formula_sum   'Mn4 Zn16 O20'
_cell_volume   509.54587487
_cell_formula_units_Z   4
loop_
 _symmetry_equiv_pos_site_id
 _symmetry_equiv_pos_as_xyz
  1  'x, y, z'
loop_
 _atom_site_type_symbol
 _atom_site_label
 _atom_site_symmetry_multiplicity
 _atom_site_fract_x
 _atom_site_fract_y
 _atom_site_fract_z
 _atom_site_occupancy
  Mn  Mn0  1  0.26691700  0.76916400  0.18139700  1
  Mn  Mn1  1  0.86860200  0.36554400  0.28527300  1
  Mn  Mn2  1  0.26776200  0.76918500  0.68123200  1
  Mn  Mn3  1  0.86863100  0.36573700  0.78477500  1
  Zn  Zn4  1  0.13608200  0.13161300  0.46807800  1
  Zn  Zn5  1  0.13610700  0.13157200  0.96814300  1
  Zn  Zn6  1  0.53224300  0.53433000  0.36598200  1
  Zn  Zn7  1  0.53226500  0.53431600  0.86592000  1
  Zn  Zn8  1  0.93010200  0.93604700  0.26480300  1
  Zn  Zn9  1  0.93012300  0.93604800  0.76478700  1
  Zn  Zn10  1  0.66521500  0.16454500  0.58317500  1
  Zn  Zn11  1  0.66519500  0.16456700  0.08316800  1
  Zn  Zn12  1  0.33793100  0.33120200  0.16892300  1
  Zn  Zn13  1  0.33795100  0.33121200  0.66888700  1
  Zn  Zn14  1  0.73895400  0.73208000  0.06883200  1
  Zn  Zn15  1  0.73893300  0.73207900  0.56879800  1
  Zn  Zn16  1  0.46946000  0.96770000  0.88342900  1
  Zn  Zn17  1  0.46941700  0.96768100  0.38345100  1
  Zn  Zn18  1  0.06736000  0.56553500  0.98410800  1
  Zn  Zn19  1  0.06733400  0.56554600  0.48409300  1
  O  O20  1  0.43829600  0.05619700  0.58143900  1
  O  O21  1  0.43831900  0.05618900  0.08146800  1
  O  O22  1  0.03704700  0.65399400  0.18232400  1
  O  O23  1  0.03707000  0.65399500  0.68232300  1
  O  O24  1  0.83472300  0.46164700  0.47856400  1
  O  O25  1  0.83478300  0.46156500  0.97872100  1
  O  O26  1  0.97046800  0.09167600  0.69695500  1
  O  O27  1  0.97043800  0.09167400  0.19695900  1
  O  O28  1  0.57874400  0.68973400  0.30034700  1
  O  O29  1  0.57881700  0.68970600  0.80034800  1
  O  O30  1  0.18096400  0.28702100  0.40217900  1
  O  O31  1  0.18094800  0.28696600  0.90214400  1
  O  O32  1  0.63456500  0.25238600  0.28143500  1
  O  O33  1  0.63461300  0.25242200  0.78143400  1
  O  O34  1  0.23345500  0.86493200  0.87489300  1
  O  O35  1  0.23337900  0.86494000  0.37496200  1
  O  O36  1  0.37114400  0.48885200  0.09869800  1
  O  O37  1  0.37105500  0.48884400  0.59868400  1
  O  O38  1  0.77150600  0.88998300  0.99862700  1
  O  O39  1  0.77148400  0.88997600  0.49863500  1
