# generated using pymatgen
data_Zr2Te
_symmetry_space_group_name_H-M   'P 1'
_cell_length_a   3.85583900
_cell_length_b   10.77049600
_cell_length_c   20.11477800
_cell_angle_alpha   90.00000000
_cell_angle_beta   90.00000000
_cell_angle_gamma   90.00000000
_symmetry_Int_Tables_number   1
_chemical_formula_structural   Zr2Te
_chemical_formula_sum   'Zr24 Te12'
_cell_volume   835.35262035
_cell_formula_units_Z   12
loop_
 _symmetry_equiv_pos_site_id
 _symmetry_equiv_pos_as_xyz
  1  'x, y, z'
loop_
 _atom_site_type_symbol
 _atom_site_label
 _atom_site_symmetry_multiplicity
 _atom_site_fract_x
 _atom_site_fract_y
 _atom_site_fract_z
 _atom_site_occupancy
  Zr  Zr0  1  0.25000000  0.60933800  0.98464700  1
  Zr  Zr1  1  0.75000000  0.39066200  0.01535300  1
  Zr  Zr2  1  0.75000000  0.10933800  0.51535300  1
  Zr  Zr3  1  0.25000000  0.89066200  0.48464700  1
  Zr  Zr4  1  0.25000000  0.07779500  0.64566800  1
  Zr  Zr5  1  0.75000000  0.92220500  0.35433200  1
  Zr  Zr6  1  0.75000000  0.57779500  0.85433200  1
  Zr  Zr7  1  0.25000000  0.42220500  0.14566800  1
  Zr  Zr8  1  0.25000000  0.38825500  0.53302900  1
  Zr  Zr9  1  0.75000000  0.61174500  0.46697100  1
  Zr  Zr10  1  0.75000000  0.88825500  0.96697100  1
  Zr  Zr11  1  0.25000000  0.11174500  0.03302900  1
  Zr  Zr12  1  0.25000000  0.14666200  0.39586600  1
  Zr  Zr13  1  0.75000000  0.85333800  0.60413400  1
  Zr  Zr14  1  0.75000000  0.64666200  0.10413400  1
  Zr  Zr15  1  0.25000000  0.35333800  0.89586600  1
  Zr  Zr16  1  0.25000000  0.45762100  0.34136500  1
  Zr  Zr17  1  0.75000000  0.54237900  0.65863500  1
  Zr  Zr18  1  0.75000000  0.95762100  0.15863500  1
  Zr  Zr19  1  0.25000000  0.04237900  0.84136500  1
  Zr  Zr20  1  0.25000000  0.75238700  0.22431400  1
  Zr  Zr21  1  0.75000000  0.24761300  0.77568600  1
  Zr  Zr22  1  0.75000000  0.25238700  0.27568600  1
  Zr  Zr23  1  0.25000000  0.74761300  0.72431400  1
  Te  Te24  1  0.25000000  0.46194200  0.76021500  1
  Te  Te25  1  0.75000000  0.53805800  0.23978500  1
  Te  Te26  1  0.75000000  0.96194200  0.73978500  1
  Te  Te27  1  0.25000000  0.03805800  0.26021500  1
  Te  Te28  1  0.25000000  0.78074600  0.86916400  1
  Te  Te29  1  0.75000000  0.21925400  0.13083600  1
  Te  Te30  1  0.75000000  0.28074600  0.63083600  1
  Te  Te31  1  0.25000000  0.71925400  0.36916400  1
  Te  Te32  1  0.25000000  0.66126300  0.57277600  1
  Te  Te33  1  0.75000000  0.33873700  0.42722400  1
  Te  Te34  1  0.75000000  0.16126300  0.92722400  1
  Te  Te35  1  0.25000000  0.83873700  0.07277600  1
