# generated using pymatgen
data_SiNi2As
_symmetry_space_group_name_H-M   'P 1'
_cell_length_a   5.13620100
_cell_length_b   6.00889600
_cell_length_c   13.88847700
_cell_angle_alpha   90.00000000
_cell_angle_beta   90.00000000
_cell_angle_gamma   90.00000000
_symmetry_Int_Tables_number   1
_chemical_formula_structural   SiNi2As
_chemical_formula_sum   'Si8 Ni16 As8'
_cell_volume   428.63864408
_cell_formula_units_Z   8
loop_
 _symmetry_equiv_pos_site_id
 _symmetry_equiv_pos_as_xyz
  1  'x, y, z'
loop_
 _atom_site_type_symbol
 _atom_site_label
 _atom_site_symmetry_multiplicity
 _atom_site_fract_x
 _atom_site_fract_y
 _atom_site_fract_z
 _atom_site_occupancy
  Si  Si0  1  0.81995000  0.93252400  0.05719300  1
  Si  Si1  1  0.81995000  0.43252400  0.44280700  1
  Si  Si2  1  0.31995000  0.56747600  0.05719300  1
  Si  Si3  1  0.68005000  0.93252400  0.55719300  1
  Si  Si4  1  0.18005000  0.06747600  0.94280700  1
  Si  Si5  1  0.18005000  0.56747600  0.55719300  1
  Si  Si6  1  0.68005000  0.43252400  0.94280700  1
  Si  Si7  1  0.31995000  0.06747600  0.44280700  1
  Ni  Ni8  1  0.01595500  0.69532600  0.16582700  1
  Ni  Ni9  1  0.48404500  0.19532600  0.83417300  1
  Ni  Ni10  1  0.51595500  0.30467400  0.33417300  1
  Ni  Ni11  1  0.99025000  0.80682200  0.44375000  1
  Ni  Ni12  1  0.01595500  0.19532600  0.33417300  1
  Ni  Ni13  1  0.51595500  0.80467400  0.16582700  1
  Ni  Ni14  1  0.48404500  0.69532600  0.66582700  1
  Ni  Ni15  1  0.98404500  0.30467400  0.83417300  1
  Ni  Ni16  1  0.00975000  0.19317800  0.55625000  1
  Ni  Ni17  1  0.99025000  0.30682200  0.05625000  1
  Ni  Ni18  1  0.49025000  0.69317800  0.44375000  1
  Ni  Ni19  1  0.50975000  0.80682200  0.94375000  1
  Ni  Ni20  1  0.49025000  0.19317800  0.05625000  1
  Ni  Ni21  1  0.00975000  0.69317800  0.94375000  1
  Ni  Ni22  1  0.50975000  0.30682200  0.55625000  1
  Ni  Ni23  1  0.98404500  0.80467400  0.66582700  1
  As  As24  1  0.68380800  0.93009500  0.31680800  1
  As  As25  1  0.18380800  0.06990500  0.18319200  1
  As  As26  1  0.81619200  0.43009500  0.68319200  1
  As  As27  1  0.31619200  0.56990500  0.81680800  1
  As  As28  1  0.31619200  0.06990500  0.68319200  1
  As  As29  1  0.81619200  0.93009500  0.81680800  1
  As  As30  1  0.18380800  0.56990500  0.31680800  1
  As  As31  1  0.68380800  0.43009500  0.18319200  1
