# generated using pymatgen
data_Mo3S4
_symmetry_space_group_name_H-M   'P 1'
_cell_length_a   6.49357983
_cell_length_b   6.49357983
_cell_length_c   6.49357997
_cell_angle_alpha   91.32476057
_cell_angle_beta   91.32476057
_cell_angle_gamma   91.32475724
_symmetry_Int_Tables_number   1
_chemical_formula_structural   Mo3S4
_chemical_formula_sum   'Mo6 S8'
_cell_volume   273.58904782
_cell_formula_units_Z   2
loop_
 _symmetry_equiv_pos_site_id
 _symmetry_equiv_pos_as_xyz
  1  'x, y, z'
loop_
 _atom_site_type_symbol
 _atom_site_label
 _atom_site_symmetry_multiplicity
 _atom_site_fract_x
 _atom_site_fract_y
 _atom_site_fract_z
 _atom_site_occupancy
  Mo  Mo0  1  0.21212600  0.40535700  0.55050800  1
  Mo  Mo1  1  0.55050800  0.21212600  0.40535700  1
  Mo  Mo2  1  0.40535700  0.55050800  0.21212600  1
  Mo  Mo3  1  0.78787400  0.59464300  0.44949200  1
  Mo  Mo4  1  0.44949200  0.78787400  0.59464300  1
  Mo  Mo5  1  0.59464300  0.44949200  0.78787400  1
  S  S6  1  0.38829200  0.13303200  0.73277600  1
  S  S7  1  0.73277600  0.38829200  0.13303200  1
  S  S8  1  0.13303200  0.73277600  0.38829200  1
  S  S9  1  0.61170800  0.86696800  0.26722400  1
  S  S10  1  0.26722400  0.61170800  0.86696800  1
  S  S11  1  0.86696800  0.26722400  0.61170800  1
  S  S12  1  0.22104100  0.22104100  0.22104100  1
  S  S13  1  0.77895900  0.77895900  0.77895900  1
