# generated using pymatgen
data_MnF3
_symmetry_space_group_name_H-M   'P 1'
_cell_length_a   7.80259800
_cell_length_b   5.41834900
_cell_length_c   5.41886508
_cell_angle_alpha   89.99033592
_cell_angle_beta   90.00000000
_cell_angle_gamma   90.00000000
_symmetry_Int_Tables_number   1
_chemical_formula_structural   MnF3
_chemical_formula_sum   'Mn4 F12'
_cell_volume   229.09443434
_cell_formula_units_Z   4
loop_
 _symmetry_equiv_pos_site_id
 _symmetry_equiv_pos_as_xyz
  1  'x, y, z'
loop_
 _atom_site_type_symbol
 _atom_site_label
 _atom_site_symmetry_multiplicity
 _atom_site_fract_x
 _atom_site_fract_y
 _atom_site_fract_z
 _atom_site_occupancy
  Mn  Mn0  1  0.00000000  0.00000000  0.00000000  1
  Mn  Mn1  1  0.50000000  0.00000000  0.00000000  1
  Mn  Mn2  1  0.00000000  0.50000000  0.50000000  1
  Mn  Mn3  1  0.50000000  0.50000000  0.50000000  1
  F  F4  1  0.25000000  0.01300900  0.99929800  1
  F  F5  1  0.50783100  0.30891300  0.20668700  1
  F  F6  1  0.99216900  0.30891300  0.20668700  1
  F  F7  1  0.00643800  0.79375400  0.30856200  1
  F  F8  1  0.49356200  0.79375400  0.30856200  1
  F  F9  1  0.75000000  0.51398900  0.50365000  1
  F  F10  1  0.25000000  0.48601100  0.49635000  1
  F  F11  1  0.50643800  0.20624600  0.69143800  1
  F  F12  1  0.99356200  0.20624600  0.69143800  1
  F  F13  1  0.00783100  0.69108700  0.79331300  1
  F  F14  1  0.49216900  0.69108700  0.79331300  1
  F  F15  1  0.75000000  0.98699100  0.00070200  1
