# generated using pymatgen
data_Fe7Pb7F34
_symmetry_space_group_name_H-M   'P 1'
_cell_length_a   10.04644042
_cell_length_b   10.04644042
_cell_length_c   7.73504348
_cell_angle_alpha   79.51842016
_cell_angle_beta   79.51842016
_cell_angle_gamma   69.13946496
_symmetry_Int_Tables_number   1
_chemical_formula_structural   Fe7Pb7F34
_chemical_formula_sum   'Fe7 Pb7 F34'
_cell_volume   711.50368344
_cell_formula_units_Z   1
loop_
 _symmetry_equiv_pos_site_id
 _symmetry_equiv_pos_as_xyz
  1  'x, y, z'
loop_
 _atom_site_type_symbol
 _atom_site_label
 _atom_site_symmetry_multiplicity
 _atom_site_fract_x
 _atom_site_fract_y
 _atom_site_fract_z
 _atom_site_occupancy
  Fe  Fe0  1  0.50000000  0.50000000  0.50000000  1
  Fe  Fe1  1  0.16389400  0.16389400  0.46525800  1
  Fe  Fe2  1  0.83610600  0.83610600  0.53474200  1
  Fe  Fe3  1  0.86277100  0.35229400  0.19932200  1
  Fe  Fe4  1  0.35229400  0.86277100  0.19932200  1
  Fe  Fe5  1  0.13722900  0.64770600  0.80067800  1
  Fe  Fe6  1  0.64770600  0.13722900  0.80067800  1
  Pb  Pb7  1  0.00000000  0.00000000  0.00000000  1
  Pb  Pb8  1  0.25940600  0.25940600  0.89896100  1
  Pb  Pb9  1  0.74059400  0.74059400  0.10103900  1
  Pb  Pb10  1  0.83622700  0.45578000  0.70408800  1
  Pb  Pb11  1  0.45578000  0.83622700  0.70408800  1
  Pb  Pb12  1  0.16377300  0.54422000  0.29591200  1
  Pb  Pb13  1  0.54422000  0.16377300  0.29591200  1
  F  F14  1  0.74255900  0.99097500  0.99135800  1
  F  F15  1  0.99097500  0.74255900  0.99135800  1
  F  F16  1  0.25744100  0.00902500  0.00864200  1
  F  F17  1  0.00902500  0.25744100  0.00864200  1
  F  F18  1  0.24560000  0.50546500  0.98107200  1
  F  F19  1  0.50546500  0.24560000  0.98107200  1
  F  F20  1  0.75440000  0.49453500  0.01892800  1
  F  F21  1  0.49453500  0.75440000  0.01892800  1
  F  F22  1  0.03638800  0.51478300  0.80563600  1
  F  F23  1  0.51478300  0.03638800  0.80563600  1
  F  F24  1  0.96361200  0.48521700  0.19436400  1
  F  F25  1  0.48521700  0.96361200  0.19436400  1
  F  F26  1  0.78800200  0.22596100  0.80651500  1
  F  F27  1  0.22596100  0.78800200  0.80651500  1
  F  F28  1  0.21199800  0.77403900  0.19348500  1
  F  F29  1  0.77403900  0.21199800  0.19348500  1
  F  F30  1  0.28154700  0.55121000  0.61506500  1
  F  F31  1  0.55121000  0.28154700  0.61506500  1
  F  F32  1  0.71845300  0.44879000  0.38493500  1
  F  F33  1  0.44879000  0.71845300  0.38493500  1
  F  F34  1  0.02495300  0.78183200  0.61551200  1
  F  F35  1  0.78183200  0.02495300  0.61551200  1
  F  F36  1  0.97504700  0.21816800  0.38448800  1
  F  F37  1  0.21816800  0.97504700  0.38448800  1
  F  F38  1  0.11140800  0.35341000  0.54003300  1
  F  F39  1  0.35341000  0.11140800  0.54003300  1
  F  F40  1  0.88859200  0.64659000  0.45996700  1
  F  F41  1  0.64659000  0.88859200  0.45996700  1
  F  F42  1  0.75241100  0.75241100  0.76935000  1
  F  F43  1  0.24758900  0.24758900  0.23065000  1
  F  F44  1  0.09830500  0.09830500  0.70226100  1
  F  F45  1  0.90169500  0.90169500  0.29773900  1
  F  F46  1  0.57231900  0.57231900  0.68804600  1
  F  F47  1  0.42768100  0.42768100  0.31195400  1
