# generated using pymatgen
data_Pu5Ir4
_symmetry_space_group_name_H-M   'P 1'
_cell_length_a   6.83549800
_cell_length_b   7.52533800
_cell_length_c   14.13705700
_cell_angle_alpha   90.00000000
_cell_angle_beta   90.00000000
_cell_angle_gamma   90.00000000
_symmetry_Int_Tables_number   1
_chemical_formula_structural   Pu5Ir4
_chemical_formula_sum   'Pu20 Ir16'
_cell_volume   727.20219422
_cell_formula_units_Z   4
loop_
 _symmetry_equiv_pos_site_id
 _symmetry_equiv_pos_as_xyz
  1  'x, y, z'
loop_
 _atom_site_type_symbol
 _atom_site_label
 _atom_site_symmetry_multiplicity
 _atom_site_fract_x
 _atom_site_fract_y
 _atom_site_fract_z
 _atom_site_occupancy
  Pu  Pu0  1  0.69940300  0.02925000  0.25000000  1
  Pu  Pu1  1  0.19940300  0.47075000  0.25000000  1
  Pu  Pu2  1  0.80059700  0.52925000  0.75000000  1
  Pu  Pu3  1  0.30059700  0.97075000  0.75000000  1
  Pu  Pu4  1  0.85523500  0.66502500  0.11767500  1
  Pu  Pu5  1  0.35523500  0.83497500  0.38232500  1
  Pu  Pu6  1  0.64476500  0.16502500  0.88232500  1
  Pu  Pu7  1  0.14476500  0.33497500  0.61767500  1
  Pu  Pu8  1  0.14476500  0.33497500  0.88232500  1
  Pu  Pu9  1  0.64476500  0.16502500  0.61767500  1
  Pu  Pu10  1  0.35523500  0.83497500  0.11767500  1
  Pu  Pu11  1  0.85523500  0.66502500  0.38232500  1
  Pu  Pu12  1  0.00067500  0.16978900  0.09528200  1
  Pu  Pu13  1  0.50067500  0.33021100  0.40471800  1
  Pu  Pu14  1  0.49932500  0.66978900  0.90471800  1
  Pu  Pu15  1  0.99932500  0.83021100  0.59528200  1
  Pu  Pu16  1  0.99932500  0.83021100  0.90471800  1
  Pu  Pu17  1  0.49932500  0.66978900  0.59528200  1
  Pu  Pu18  1  0.50067500  0.33021100  0.09528200  1
  Pu  Pu19  1  0.00067500  0.16978900  0.40471800  1
  Ir  Ir20  1  0.04200600  0.87072900  0.25000000  1
  Ir  Ir21  1  0.54200600  0.62927100  0.25000000  1
  Ir  Ir22  1  0.45799400  0.37072900  0.75000000  1
  Ir  Ir23  1  0.95799400  0.12927100  0.75000000  1
  Ir  Ir24  1  0.83029900  0.36927800  0.25000000  1
  Ir  Ir25  1  0.33029900  0.13072200  0.25000000  1
  Ir  Ir26  1  0.66970100  0.86927800  0.75000000  1
  Ir  Ir27  1  0.16970100  0.63072200  0.75000000  1
  Ir  Ir28  1  0.80383300  0.45764100  0.96686800  1
  Ir  Ir29  1  0.30383300  0.04235900  0.53313200  1
  Ir  Ir30  1  0.69616700  0.95764100  0.03313200  1
  Ir  Ir31  1  0.19616700  0.54235900  0.46686800  1
  Ir  Ir32  1  0.19616700  0.54235900  0.03313200  1
  Ir  Ir33  1  0.69616700  0.95764100  0.46686800  1
  Ir  Ir34  1  0.30383300  0.04235900  0.96686800  1
  Ir  Ir35  1  0.80383300  0.45764100  0.53313200  1
