# generated using pymatgen
data_Na2FePCO7
_symmetry_space_group_name_H-M   'P 1'
_cell_length_a   5.24834700
_cell_length_b   8.95433284
_cell_length_c   19.59544215
_cell_angle_alpha   89.94522411
_cell_angle_beta   89.99155860
_cell_angle_gamma   89.64297776
_symmetry_Int_Tables_number   1
_chemical_formula_structural   Na2FePCO7
_chemical_formula_sum   'Na12 Fe6 P6 C6 O42'
_cell_volume   920.87823306
_cell_formula_units_Z   6
loop_
 _symmetry_equiv_pos_site_id
 _symmetry_equiv_pos_as_xyz
  1  'x, y, z'
loop_
 _atom_site_type_symbol
 _atom_site_label
 _atom_site_symmetry_multiplicity
 _atom_site_fract_x
 _atom_site_fract_y
 _atom_site_fract_z
 _atom_site_occupancy
  Na  Na0  1  0.23542800  0.91561500  0.92007800  1
  Na  Na1  1  0.23606600  0.91895300  0.58639500  1
  Na  Na2  1  0.21963200  0.90400200  0.24881800  1
  Na  Na3  1  0.74926400  0.73589800  0.50485700  1
  Na  Na4  1  0.74852300  0.73505400  0.83832700  1
  Na  Na5  1  0.25442300  0.26312700  0.16414300  1
  Na  Na6  1  0.25030600  0.26558900  0.34112100  1
  Na  Na7  1  0.25390900  0.26108300  0.99906500  1
  Na  Na8  1  0.25124600  0.26406900  0.67146800  1
  Na  Na9  1  0.76306700  0.07873700  0.41968500  1
  Na  Na10  1  0.76388500  0.08086700  0.75303700  1
  Na  Na11  1  0.75405800  0.06518600  0.08290600  1
  Fe  Fe12  1  0.21712800  0.65447800  0.74624800  1
  Fe  Fe13  1  0.21726200  0.65452000  0.41253800  1
  Fe  Fe14  1  0.21200900  0.66018500  0.08256800  1
  Fe  Fe15  1  0.78253300  0.34606800  0.91267700  1
  Fe  Fe16  1  0.78306700  0.34563000  0.57979200  1
  Fe  Fe17  1  0.78205600  0.35224500  0.24912000  1
  P  P18  1  0.29253200  0.57765100  0.24876500  1
  P  P19  1  0.28898300  0.57546400  0.58239300  1
  P  P20  1  0.28870800  0.57579900  0.91656800  1
  P  P21  1  0.71114000  0.42455700  0.74911000  1
  P  P22  1  0.71283200  0.42587800  0.08213900  1
  P  P23  1  0.71181700  0.42406900  0.41654200  1
  C  C24  1  0.27076800  0.93393900  0.41798200  1
  C  C25  1  0.27046500  0.93416800  0.75117500  1
  C  C26  1  0.26991100  0.93907000  0.08308500  1
  C  C27  1  0.72952600  0.06573600  0.58458700  1
  C  C28  1  0.73102500  0.06514000  0.91738100  1
  C  C29  1  0.72851100  0.06989700  0.25040500  1
  O  O30  1  0.70466500  0.92503000  0.91260200  1
  O  O31  1  0.70298800  0.92562900  0.57938300  1
  O  O32  1  0.69821700  0.93180700  0.25059900  1
  O  O33  1  0.04528700  0.87043700  0.41982400  1
  O  O34  1  0.04508800  0.87051900  0.75305300  1
  O  O35  1  0.04670500  0.87583300  0.08291800  1
  O  O36  1  0.46471100  0.84073400  0.41998100  1
  O  O37  1  0.46471700  0.84121800  0.75338900  1
  O  O38  1  0.46527800  0.85066800  0.08295400  1
  O  O39  1  0.23716000  0.67715900  0.64495500  1
  O  O40  1  0.24077600  0.67472500  0.97981100  1
  O  O41  1  0.22430700  0.67535700  0.85358200  1
  O  O42  1  0.23446700  0.67278800  0.18538100  1
  O  O43  1  0.22413700  0.67406700  0.51929700  1
  O  O44  1  0.23076900  0.67528600  0.31172200  1
  O  O45  1  0.87257600  0.56793700  0.75222800  1
  O  O46  1  0.87263100  0.56741300  0.41930800  1
  O  O47  1  0.87447300  0.56682100  0.08259700  1
  O  O48  1  0.57609500  0.53058700  0.57897800  1
  O  O49  1  0.57535300  0.52954700  0.91226400  1
  O  O50  1  0.57480700  0.52685900  0.24996500  1
  O  O51  1  0.42415000  0.46973700  0.74575200  1
  O  O52  1  0.42480000  0.46856700  0.41240300  1
  O  O53  1  0.42035300  0.46272800  0.08317300  1
  O  O54  1  0.12645500  0.43235200  0.91833100  1
  O  O55  1  0.13380800  0.43012000  0.25004500  1
  O  O56  1  0.12805000  0.43191400  0.58549100  1
  O  O57  1  0.76279500  0.32241700  0.81154300  1
  O  O58  1  0.77578100  0.32598100  0.68606600  1
  O  O59  1  0.76966900  0.32375200  0.01927700  1
  O  O60  1  0.76262300  0.32203100  0.47895500  1
  O  O61  1  0.78038500  0.32421400  0.35394000  1
  O  O62  1  0.77443700  0.32251900  0.14500300  1
  O  O63  1  0.53628300  0.15759500  0.91915000  1
  O  O64  1  0.53525800  0.15849900  0.58692200  1
  O  O65  1  0.53543000  0.16758200  0.25051200  1
  O  O66  1  0.95609100  0.12889100  0.91963800  1
  O  O67  1  0.95493400  0.12920900  0.58659800  1
  O  O68  1  0.95620600  0.13450200  0.24991000  1
  O  O69  1  0.29768500  0.07390900  0.41354900  1
  O  O70  1  0.29699500  0.07418200  0.74617200  1
  O  O71  1  0.29168600  0.08316100  0.08308900  1
