# generated using pymatgen
data_Na5Ni2P(CO4)4
_symmetry_space_group_name_H-M   'P 1'
_cell_length_a   9.90302185
_cell_length_b   9.89939013
_cell_length_c   9.83044593
_cell_angle_alpha   60.25450413
_cell_angle_beta   60.21775466
_cell_angle_gamma   59.52774120
_symmetry_Int_Tables_number   1
_chemical_formula_structural   Na5Ni2P(CO4)4
_chemical_formula_sum   'Na10 Ni4 P2 C8 O32'
_cell_volume   681.38137288
_cell_formula_units_Z   2
loop_
 _symmetry_equiv_pos_site_id
 _symmetry_equiv_pos_as_xyz
  1  'x, y, z'
loop_
 _atom_site_type_symbol
 _atom_site_label
 _atom_site_symmetry_multiplicity
 _atom_site_fract_x
 _atom_site_fract_y
 _atom_site_fract_z
 _atom_site_occupancy
  Na  Na0  1  0.15665600  0.59628000  0.91578800  1
  Na  Na1  1  0.59772500  0.15608300  0.91504200  1
  Na  Na2  1  0.59628000  0.15665600  0.33127600  1
  Na  Na3  1  0.15608300  0.59772500  0.33115000  1
  Na  Na4  1  0.91872400  0.33421200  0.65372000  1
  Na  Na5  1  0.33421200  0.91872400  0.09334400  1
  Na  Na6  1  0.33495800  0.91885000  0.65227500  1
  Na  Na7  1  0.91885000  0.33495800  0.09391700  1
  Na  Na8  1  0.58921600  0.58921600  0.91078400  1
  Na  Na9  1  0.33921600  0.33921600  0.66078400  1
  Ni  Ni10  1  0.24887800  0.75049600  0.50050000  1
  Ni  Ni11  1  0.75049600  0.24887800  0.50012600  1
  Ni  Ni12  1  0.74987400  0.74950000  0.49950400  1
  Ni  Ni13  1  0.74950000  0.74987400  0.00112200  1
  P  P14  1  0.12866000  0.12866000  0.87134000  1
  P  P15  1  0.37866000  0.37866000  0.12134000  1
  C  C16  1  0.96411300  0.96454600  0.71715400  1
  C  C17  1  0.96454600  0.96411300  0.35418700  1
  C  C18  1  0.96664000  0.60009000  0.71666300  1
  C  C19  1  0.60009000  0.96664000  0.71660700  1
  C  C20  1  0.53284600  0.89581300  0.28588700  1
  C  C21  1  0.89581300  0.53284600  0.28545400  1
  C  C22  1  0.53339300  0.53333700  0.64991000  1
  C  C23  1  0.53333700  0.53339300  0.28336000  1
  O  O24  1  0.19068200  0.19099600  0.67958000  1
  O  O25  1  0.19099600  0.19068200  0.93874200  1
  O  O26  1  0.19228300  0.93590100  0.93492600  1
  O  O27  1  0.93590100  0.19228300  0.93689000  1
  O  O28  1  0.94051900  0.10761600  0.34920200  1
  O  O29  1  0.10761600  0.94051900  0.60266400  1
  O  O30  1  0.10934400  0.84970900  0.34721500  1
  O  O31  1  0.84970900  0.10934400  0.69373200  1
  O  O32  1  0.93935500  0.84601500  0.85448100  1
  O  O33  1  0.84601500  0.93935500  0.36014900  1
  O  O34  1  0.10820300  0.59928000  0.69334400  1
  O  O35  1  0.59928000  0.10820300  0.59917400  1
  O  O36  1  0.64733600  0.90079800  0.14238400  1
  O  O37  1  0.90079800  0.64733600  0.30948100  1
  O  O38  1  0.94389400  0.59662300  0.59937100  1
  O  O39  1  0.59662300  0.94389400  0.86011100  1
  O  O40  1  0.90278500  0.55626800  0.14065600  1
  O  O41  1  0.55626800  0.90278500  0.40029100  1
  O  O42  1  0.59625200  0.85071800  0.69312900  1
  O  O43  1  0.85071800  0.59625200  0.85990200  1
  O  O44  1  0.39551900  0.88985100  0.31064500  1
  O  O45  1  0.88985100  0.39551900  0.40398500  1
  O  O46  1  0.65082600  0.55665600  0.65072000  1
  O  O47  1  0.55665600  0.65082600  0.14179700  1
  O  O48  1  0.65062900  0.38988900  0.30610600  1
  O  O49  1  0.38988900  0.65062900  0.65337700  1
  O  O50  1  0.55687100  0.39009800  0.65374800  1
  O  O51  1  0.39009800  0.55687100  0.39928200  1
  O  O52  1  0.57042000  0.31125800  0.05931800  1
  O  O53  1  0.31125800  0.57042000  0.05900400  1
  O  O54  1  0.31507400  0.31311000  0.05771700  1
  O  O55  1  0.31311000  0.31507400  0.31409900  1
