# generated using pymatgen
data_Mn(PbO2)2
_symmetry_space_group_name_H-M   'P 1'
_cell_length_a   13.08537900
_cell_length_b   13.08537900
_cell_length_c   5.24550100
_cell_angle_alpha   90.00000000
_cell_angle_beta   90.00000000
_cell_angle_gamma   90.00000000
_symmetry_Int_Tables_number   1
_chemical_formula_structural   Mn(PbO2)2
_chemical_formula_sum   'Mn8 Pb16 O32'
_cell_volume   898.17215284
_cell_formula_units_Z   8
loop_
 _symmetry_equiv_pos_site_id
 _symmetry_equiv_pos_as_xyz
  1  'x, y, z'
loop_
 _atom_site_type_symbol
 _atom_site_label
 _atom_site_symmetry_multiplicity
 _atom_site_fract_x
 _atom_site_fract_y
 _atom_site_fract_z
 _atom_site_occupancy
  Mn  Mn0  1  0.77103600  0.19381000  0.76065000  1
  Mn  Mn1  1  0.22896400  0.80619000  0.76065000  1
  Mn  Mn2  1  0.19381000  0.22896400  0.23935000  1
  Mn  Mn3  1  0.80619000  0.77103600  0.23935000  1
  Mn  Mn4  1  0.69381000  0.27103600  0.26065000  1
  Mn  Mn5  1  0.72896400  0.69381000  0.73935000  1
  Mn  Mn6  1  0.27103600  0.30619000  0.73935000  1
  Mn  Mn7  1  0.30619000  0.72896400  0.26065000  1
  Pb  Pb8  1  0.82738500  0.49422900  0.29353500  1
  Pb  Pb9  1  0.17261500  0.50577100  0.29353500  1
  Pb  Pb10  1  0.49422900  0.17261500  0.70646500  1
  Pb  Pb11  1  0.50577100  0.82738500  0.70646500  1
  Pb  Pb12  1  0.99422900  0.32738500  0.79353500  1
  Pb  Pb13  1  0.67261500  0.99422900  0.20646500  1
  Pb  Pb14  1  0.32738500  0.00577100  0.20646500  1
  Pb  Pb15  1  0.00577100  0.67261500  0.79353500  1
  Pb  Pb16  1  0.62338200  0.42042800  0.74333800  1
  Pb  Pb17  1  0.37661800  0.57957200  0.74333800  1
  Pb  Pb18  1  0.42042800  0.37661800  0.25666200  1
  Pb  Pb19  1  0.57957200  0.62338200  0.25666200  1
  Pb  Pb20  1  0.92042800  0.12338200  0.24333800  1
  Pb  Pb21  1  0.87661800  0.92042800  0.75666200  1
  Pb  Pb22  1  0.12338200  0.07957200  0.75666200  1
  Pb  Pb23  1  0.07957200  0.87661800  0.24333800  1
  O  O24  1  0.05793700  0.22648700  0.09991900  1
  O  O25  1  0.94206300  0.77351300  0.09991900  1
  O  O26  1  0.22648700  0.94206300  0.90008100  1
  O  O27  1  0.77351300  0.05793700  0.90008100  1
  O  O28  1  0.72648700  0.55793700  0.59991900  1
  O  O29  1  0.44206300  0.72648700  0.40008100  1
  O  O30  1  0.55793700  0.27351300  0.40008100  1
  O  O31  1  0.27351300  0.44206300  0.59991900  1
  O  O32  1  0.25651300  0.17605200  0.92690400  1
  O  O33  1  0.74348700  0.82394800  0.92690400  1
  O  O34  1  0.17605200  0.74348700  0.07309600  1
  O  O35  1  0.82394800  0.25651300  0.07309600  1
  O  O36  1  0.67605200  0.75651300  0.42690400  1
  O  O37  1  0.24348700  0.67605200  0.57309600  1
  O  O38  1  0.75651300  0.32394800  0.57309600  1
  O  O39  1  0.32394800  0.24348700  0.42690400  1
  O  O40  1  0.64126700  0.22033900  0.93329900  1
  O  O41  1  0.35873300  0.77966100  0.93329900  1
  O  O42  1  0.22033900  0.35873300  0.06670100  1
  O  O43  1  0.77966100  0.64126700  0.06670100  1
  O  O44  1  0.72033900  0.14126700  0.43329900  1
  O  O45  1  0.85873300  0.72033900  0.56670100  1
  O  O46  1  0.14126700  0.27966100  0.56670100  1
  O  O47  1  0.27966100  0.85873300  0.43329900  1
  O  O48  1  0.31485500  0.58745600  0.15488700  1
  O  O49  1  0.41254400  0.31485500  0.84511300  1
  O  O50  1  0.58745600  0.68514500  0.84511300  1
  O  O51  1  0.68514500  0.41254400  0.15488700  1
  O  O52  1  0.81485500  0.91254400  0.34511300  1
  O  O53  1  0.18514500  0.08745600  0.34511300  1
  O  O54  1  0.08745600  0.81485500  0.65488700  1
  O  O55  1  0.91254400  0.18514500  0.65488700  1
