# generated using pymatgen
data_CeTl5Co2(NO2)12
_symmetry_space_group_name_H-M   'P 1'
_cell_length_a   10.75854400
_cell_length_b   10.75854400
_cell_length_c   10.75854400
_cell_angle_alpha   90.00000000
_cell_angle_beta   90.00000000
_cell_angle_gamma   90.00000000
_symmetry_Int_Tables_number   1
_chemical_formula_structural   CeTl5Co2(NO2)12
_chemical_formula_sum   'Ce2 Tl10 Co4 N24 O48'
_cell_volume   1245.26132787
_cell_formula_units_Z   2
loop_
 _symmetry_equiv_pos_site_id
 _symmetry_equiv_pos_as_xyz
  1  'x, y, z'
loop_
 _atom_site_type_symbol
 _atom_site_label
 _atom_site_symmetry_multiplicity
 _atom_site_fract_x
 _atom_site_fract_y
 _atom_site_fract_z
 _atom_site_occupancy
  Ce  Ce0  1  0.50000000  0.50000000  0.50000000  1
  Ce  Ce1  1  0.00000000  0.00000000  0.00000000  1
  Tl  Tl2  1  0.50000000  0.00000000  0.00000000  1
  Tl  Tl3  1  0.00000000  0.50000000  0.00000000  1
  Tl  Tl4  1  0.00000000  0.00000000  0.50000000  1
  Tl  Tl5  1  0.50000000  0.50000000  0.00000000  1
  Tl  Tl6  1  0.50000000  0.00000000  0.50000000  1
  Tl  Tl7  1  0.00000000  0.50000000  0.50000000  1
  Tl  Tl8  1  0.25000000  0.75000000  0.25000000  1
  Tl  Tl9  1  0.75000000  0.25000000  0.25000000  1
  Tl  Tl10  1  0.25000000  0.25000000  0.75000000  1
  Tl  Tl11  1  0.75000000  0.75000000  0.75000000  1
  Co  Co12  1  0.75000000  0.25000000  0.75000000  1
  Co  Co13  1  0.25000000  0.75000000  0.75000000  1
  Co  Co14  1  0.75000000  0.75000000  0.25000000  1
  Co  Co15  1  0.25000000  0.25000000  0.25000000  1
  N  N16  1  0.24340300  0.06479100  0.24987700  1
  N  N17  1  0.56479100  0.74987700  0.25659700  1
  N  N18  1  0.56479100  0.25012300  0.74340300  1
  N  N19  1  0.43520900  0.74987700  0.74340300  1
  N  N20  1  0.25012300  0.74340300  0.56479100  1
  N  N21  1  0.74340300  0.43520900  0.74987700  1
  N  N22  1  0.74340300  0.56479100  0.25012300  1
  N  N23  1  0.74987700  0.25659700  0.56479100  1
  N  N24  1  0.25659700  0.56479100  0.74987700  1
  N  N25  1  0.74987700  0.74340300  0.43520900  1
  N  N26  1  0.25012300  0.25659700  0.43520900  1
  N  N27  1  0.25659700  0.43520900  0.25012300  1
  N  N28  1  0.43520900  0.25012300  0.25659700  1
  N  N29  1  0.93520900  0.75012300  0.24340300  1
  N  N30  1  0.93520900  0.24987700  0.75659700  1
  N  N31  1  0.06479100  0.75012300  0.75659700  1
  N  N32  1  0.06479100  0.24987700  0.24340300  1
  N  N33  1  0.24987700  0.75659700  0.93520900  1
  N  N34  1  0.24987700  0.24340300  0.06479100  1
  N  N35  1  0.75012300  0.75659700  0.06479100  1
  N  N36  1  0.24340300  0.93520900  0.75012300  1
  N  N37  1  0.75012300  0.24340300  0.93520900  1
  N  N38  1  0.75659700  0.93520900  0.24987700  1
  N  N39  1  0.75659700  0.06479100  0.75012300  1
  O  O40  1  0.50710600  0.85026800  0.24270100  1
  O  O41  1  0.35026800  0.74270100  0.99289400  1
  O  O42  1  0.00710600  0.64973200  0.74270100  1
  O  O43  1  0.99289400  0.35026800  0.74270100  1
  O  O44  1  0.99289400  0.64973200  0.25729900  1
  O  O45  1  0.49289400  0.14973200  0.24270100  1
  O  O46  1  0.24270100  0.49289400  0.14973200  1
  O  O47  1  0.14973200  0.24270100  0.49289400  1
  O  O48  1  0.85026800  0.75729900  0.49289400  1
  O  O49  1  0.24270100  0.50710600  0.85026800  1
  O  O50  1  0.85026800  0.24270100  0.50710600  1
  O  O51  1  0.75729900  0.50710600  0.14973200  1
  O  O52  1  0.75729900  0.49289400  0.85026800  1
  O  O53  1  0.14973200  0.75729900  0.50710600  1
  O  O54  1  0.49289400  0.85026800  0.75729900  1
  O  O55  1  0.50710600  0.14973200  0.75729900  1
  O  O56  1  0.00251600  0.15428700  0.21251100  1
  O  O57  1  0.21251100  0.00251600  0.15428700  1
  O  O58  1  0.15428700  0.21251100  0.00251600  1
  O  O59  1  0.84571300  0.78748900  0.00251600  1
  O  O60  1  0.21251100  0.99748400  0.84571300  1
  O  O61  1  0.84571300  0.21251100  0.99748400  1
  O  O62  1  0.78748900  0.99748400  0.15428700  1
  O  O63  1  0.78748900  0.00251600  0.84571300  1
  O  O64  1  0.15428700  0.78748900  0.99748400  1
  O  O65  1  0.00251600  0.84571300  0.78748900  1
  O  O66  1  0.99748400  0.15428700  0.78748900  1
  O  O67  1  0.99748400  0.84571300  0.21251100  1
  O  O68  1  0.49748400  0.34571300  0.28748900  1
  O  O69  1  0.28748900  0.49748400  0.34571300  1
  O  O70  1  0.34571300  0.28748900  0.49748400  1
  O  O71  1  0.65428700  0.71251100  0.49748400  1
  O  O72  1  0.28748900  0.50251600  0.65428700  1
  O  O73  1  0.65428700  0.28748900  0.50251600  1
  O  O74  1  0.71251100  0.50251600  0.34571300  1
  O  O75  1  0.71251100  0.49748400  0.65428700  1
  O  O76  1  0.34571300  0.71251100  0.50251600  1
  O  O77  1  0.49748400  0.65428700  0.71251100  1
  O  O78  1  0.50251600  0.34571300  0.71251100  1
  O  O79  1  0.50251600  0.65428700  0.28748900  1
  O  O80  1  0.00710600  0.35026800  0.25729900  1
  O  O81  1  0.25729900  0.00710600  0.35026800  1
  O  O82  1  0.74270100  0.00710600  0.64973200  1
  O  O83  1  0.64973200  0.74270100  0.00710600  1
  O  O84  1  0.25729900  0.99289400  0.64973200  1
  O  O85  1  0.64973200  0.25729900  0.99289400  1
  O  O86  1  0.74270100  0.99289400  0.35026800  1
  O  O87  1  0.35026800  0.25729900  0.00710600  1
