# generated using pymatgen
data_MnFeCo(PO4)3
_symmetry_space_group_name_H-M   'P 1'
_cell_length_a   5.93936400
_cell_length_b   9.90590600
_cell_length_c   14.60273339
_cell_angle_alpha   89.87931678
_cell_angle_beta   90.00000000
_cell_angle_gamma   90.00000000
_symmetry_Int_Tables_number   1
_chemical_formula_structural   MnFeCo(PO4)3
_chemical_formula_sum   'Mn4 Fe4 Co4 P12 O48'
_cell_volume   859.14672241
_cell_formula_units_Z   4
loop_
 _symmetry_equiv_pos_site_id
 _symmetry_equiv_pos_as_xyz
  1  'x, y, z'
loop_
 _atom_site_type_symbol
 _atom_site_label
 _atom_site_symmetry_multiplicity
 _atom_site_fract_x
 _atom_site_fract_y
 _atom_site_fract_z
 _atom_site_occupancy
  Mn  Mn0  1  0.50000000  0.78002600  0.14743000  1
  Mn  Mn1  1  0.50000000  0.78464500  0.81246600  1
  Mn  Mn2  1  0.00000000  0.71858100  0.64779200  1
  Mn  Mn3  1  0.50000000  0.28365900  0.02137400  1
  Fe  Fe4  1  0.50000000  0.77397400  0.48802700  1
  Fe  Fe5  1  0.00000000  0.72516600  0.98764900  1
  Fe  Fe6  1  0.00000000  0.72291300  0.32159000  1
  Fe  Fe7  1  0.50000000  0.27598300  0.34619900  1
  Co  Co8  1  0.50000000  0.27854600  0.68350100  1
  Co  Co9  1  0.00000000  0.21701400  0.85035200  1
  Co  Co10  1  0.00000000  0.22219600  0.51646900  1
  Co  Co11  1  0.00000000  0.22311500  0.18291200  1
  P  P12  1  0.00000000  0.90373400  0.80441800  1
  P  P13  1  0.00000000  0.90255100  0.47289300  1
  P  P14  1  0.00000000  0.90523900  0.13917200  1
  P  P15  1  0.50000000  0.59847600  0.30608700  1
  P  P16  1  0.50000000  0.59977800  0.97383600  1
  P  P17  1  0.50000000  0.59622400  0.63966600  1
  P  P18  1  0.00000000  0.40236200  0.02831800  1
  P  P19  1  0.00000000  0.40108300  0.36266800  1
  P  P20  1  0.00000000  0.40253600  0.69268900  1
  P  P21  1  0.50000000  0.09693700  0.19181900  1
  P  P22  1  0.50000000  0.09801900  0.52789400  1
  P  P23  1  0.50000000  0.09731300  0.85738200  1
  O  O24  1  0.50000000  0.94637300  0.21531900  1
  O  O25  1  0.50000000  0.94795500  0.55130100  1
  O  O26  1  0.50000000  0.94655700  0.88427100  1
  O  O27  1  0.00000000  0.88195500  0.57764000  1
  O  O28  1  0.00000000  0.88340700  0.90838300  1
  O  O29  1  0.00000000  0.88269400  0.24233600  1
  O  O30  1  0.20162800  0.82869400  0.75680900  1
  O  O31  1  0.79837200  0.82869400  0.75680900  1
  O  O32  1  0.19974100  0.82935400  0.08937800  1
  O  O33  1  0.80025900  0.82935400  0.08937800  1
  O  O34  1  0.20169700  0.82729800  0.42522400  1
  O  O35  1  0.79830300  0.82729800  0.42522400  1
  O  O36  1  0.70480600  0.67046400  0.92736400  1
  O  O37  1  0.29519400  0.67046400  0.92736400  1
  O  O38  1  0.70475100  0.67155600  0.25965100  1
  O  O39  1  0.29524900  0.67155600  0.25965100  1
  O  O40  1  0.69946200  0.67181800  0.59007000  1
  O  O41  1  0.30053800  0.67181800  0.59007000  1
  O  O42  1  0.50000000  0.61760400  0.41022600  1
  O  O43  1  0.50000000  0.61828700  0.74374500  1
  O  O44  1  0.50000000  0.61689000  0.07931500  1
  O  O45  1  0.00000000  0.55204200  0.05285100  1
  O  O46  1  0.00000000  0.55094100  0.38674200  1
  O  O47  1  0.00000000  0.55368600  0.71812300  1
  O  O48  1  0.50000000  0.44684500  0.95311700  1
  O  O49  1  0.50000000  0.44687600  0.28349400  1
  O  O50  1  0.50000000  0.44659000  0.61581300  1
  O  O51  1  0.00000000  0.38288700  0.25793600  1
  O  O52  1  0.00000000  0.38671000  0.58851700  1
  O  O53  1  0.00000000  0.38161800  0.92469900  1
  O  O54  1  0.19957000  0.32639300  0.07848500  1
  O  O55  1  0.80043000  0.32639300  0.07848500  1
  O  O56  1  0.20239200  0.32539800  0.40993700  1
  O  O57  1  0.79760800  0.32539800  0.40993700  1
  O  O58  1  0.20395700  0.32814500  0.74071500  1
  O  O59  1  0.79604300  0.32814500  0.74071500  1
  O  O60  1  0.70377500  0.17355100  0.57527600  1
  O  O61  1  0.29622500  0.17355100  0.57527600  1
  O  O62  1  0.70212500  0.17171300  0.24027100  1
  O  O63  1  0.29787500  0.17171300  0.24027100  1
  O  O64  1  0.70479700  0.17135500  0.90422300  1
  O  O65  1  0.29520300  0.17135500  0.90422300  1
  O  O66  1  0.50000000  0.11793400  0.42388100  1
  O  O67  1  0.50000000  0.11268500  0.75291800  1
  O  O68  1  0.50000000  0.11663100  0.08747400  1
  O  O69  1  0.00000000  0.05397100  0.77825600  1
  O  O70  1  0.00000000  0.05525300  0.11383600  1
  O  O71  1  0.00000000  0.05293100  0.44965500  1
