# generated using pymatgen
data_VMoO5
_symmetry_space_group_name_H-M   'P 1'
_cell_length_a   4.65461500
_cell_length_b   6.72052400
_cell_length_c   6.72052300
_cell_angle_alpha   90.00000853
_cell_angle_beta   89.99999147
_cell_angle_gamma   90.00002936
_symmetry_Int_Tables_number   1
_chemical_formula_structural   VMoO5
_chemical_formula_sum   'V2 Mo2 O10'
_cell_volume   210.22771642
_cell_formula_units_Z   2
loop_
 _symmetry_equiv_pos_site_id
 _symmetry_equiv_pos_as_xyz
  1  'x, y, z'
loop_
 _atom_site_type_symbol
 _atom_site_label
 _atom_site_symmetry_multiplicity
 _atom_site_fract_x
 _atom_site_fract_y
 _atom_site_fract_z
 _atom_site_occupancy
  V  V0  1  0.82976200  0.25000000  0.25000100  1
  V  V1  1  0.17024700  0.75000000  0.75000000  1
  Mo  Mo2  1  0.50000000  0.25000000  0.75000000  1
  Mo  Mo3  1  0.50000000  0.75000000  0.25000000  1
  O  O4  1  0.72296900  0.21547200  0.96466700  1
  O  O5  1  0.72296900  0.53533300  0.21547200  1
  O  O6  1  0.72296900  0.96466700  0.28452800  1
  O  O7  1  0.72296900  0.28452800  0.53533300  1
  O  O8  1  0.18050000  0.25000000  0.25000000  1
  O  O9  1  0.81950100  0.75000000  0.75000000  1
  O  O10  1  0.27702900  0.71547200  0.46466800  1
  O  O11  1  0.27702900  0.03533200  0.71547200  1
  O  O12  1  0.27702900  0.46466800  0.78452800  1
  O  O13  1  0.27702900  0.78452800  0.03533200  1
