# generated using pymatgen
data_Fe2WO6
_symmetry_space_group_name_H-M   'P 1'
_cell_length_a   4.62486800
_cell_length_b   5.07373500
_cell_length_c   16.96556300
_cell_angle_alpha   90.00000000
_cell_angle_beta   90.00000000
_cell_angle_gamma   90.00000000
_symmetry_Int_Tables_number   1
_chemical_formula_structural   Fe2WO6
_chemical_formula_sum   'Fe8 W4 O24'
_cell_volume   398.10295250
_cell_formula_units_Z   4
loop_
 _symmetry_equiv_pos_site_id
 _symmetry_equiv_pos_as_xyz
  1  'x, y, z'
loop_
 _atom_site_type_symbol
 _atom_site_label
 _atom_site_symmetry_multiplicity
 _atom_site_fract_x
 _atom_site_fract_y
 _atom_site_fract_z
 _atom_site_occupancy
  Fe  Fe0  1  0.00000000  0.25000000  0.55280000  1
  Fe  Fe1  1  0.50000000  0.75000000  0.94720000  1
  Fe  Fe2  1  0.00000000  0.75000000  0.44720000  1
  Fe  Fe3  1  0.50000000  0.25000000  0.05280000  1
  Fe  Fe4  1  0.50000000  0.25000000  0.72231900  1
  Fe  Fe5  1  0.00000000  0.75000000  0.77768100  1
  Fe  Fe6  1  0.00000000  0.25000000  0.22231900  1
  Fe  Fe7  1  0.50000000  0.75000000  0.27768100  1
  W  W8  1  0.00000000  0.25000000  0.88434300  1
  W  W9  1  0.50000000  0.75000000  0.61565700  1
  W  W10  1  0.00000000  0.75000000  0.11565700  1
  W  W11  1  0.50000000  0.25000000  0.38434300  1
  O  O12  1  0.72489200  0.41604700  0.29725600  1
  O  O13  1  0.22489200  0.58395300  0.20274400  1
  O  O14  1  0.77510800  0.91604700  0.20274400  1
  O  O15  1  0.27510800  0.08395300  0.29725600  1
  O  O16  1  0.27510800  0.58395300  0.70274400  1
  O  O17  1  0.77510800  0.41604700  0.79725600  1
  O  O18  1  0.22489200  0.08395300  0.79725600  1
  O  O19  1  0.72489200  0.91604700  0.70274400  1
  O  O20  1  0.72654700  0.93002600  0.37410500  1
  O  O21  1  0.22654700  0.06997400  0.12589500  1
  O  O22  1  0.77345300  0.43002600  0.12589500  1
  O  O23  1  0.27345300  0.56997400  0.37410500  1
  O  O24  1  0.76375900  0.90660100  0.54090200  1
  O  O25  1  0.26375900  0.09339900  0.95909800  1
  O  O26  1  0.73624100  0.40660100  0.95909800  1
  O  O27  1  0.23624100  0.59339900  0.54090200  1
  O  O28  1  0.23624100  0.09339900  0.45909800  1
  O  O29  1  0.73624100  0.90660100  0.04090200  1
  O  O30  1  0.27345300  0.06997400  0.62589500  1
  O  O31  1  0.76375900  0.40660100  0.45909800  1
  O  O32  1  0.72654700  0.43002600  0.62589500  1
  O  O33  1  0.22654700  0.56997400  0.87410500  1
  O  O34  1  0.77345300  0.93002600  0.87410500  1
  O  O35  1  0.26375900  0.59339900  0.04090200  1
