# generated using pymatgen
data_CaYb2O4
_symmetry_space_group_name_H-M   'P 1'
_cell_length_a   3.43504600
_cell_length_b   9.16650200
_cell_length_c   11.88381400
_cell_angle_alpha   90.00000000
_cell_angle_beta   90.00000000
_cell_angle_gamma   90.00000000
_symmetry_Int_Tables_number   1
_chemical_formula_structural   CaYb2O4
_chemical_formula_sum   'Ca4 Yb8 O16'
_cell_volume   374.18988240
_cell_formula_units_Z   4
loop_
 _symmetry_equiv_pos_site_id
 _symmetry_equiv_pos_as_xyz
  1  'x, y, z'
loop_
 _atom_site_type_symbol
 _atom_site_label
 _atom_site_symmetry_multiplicity
 _atom_site_fract_x
 _atom_site_fract_y
 _atom_site_fract_z
 _atom_site_occupancy
  Ca  Ca0  1  0.75000000  0.24107300  0.15976700  1
  Ca  Ca1  1  0.25000000  0.75892700  0.84023300  1
  Ca  Ca2  1  0.75000000  0.74107300  0.34023300  1
  Ca  Ca3  1  0.25000000  0.25892700  0.65976700  1
  Yb  Yb4  1  0.25000000  0.09962900  0.89684300  1
  Yb  Yb5  1  0.75000000  0.90037100  0.10315700  1
  Yb  Yb6  1  0.25000000  0.59962900  0.60315700  1
  Yb  Yb7  1  0.75000000  0.40037100  0.39684300  1
  Yb  Yb8  1  0.75000000  0.43213000  0.88891700  1
  Yb  Yb9  1  0.25000000  0.56787000  0.11108300  1
  Yb  Yb10  1  0.75000000  0.93213000  0.61108300  1
  Yb  Yb11  1  0.25000000  0.06787000  0.38891700  1
  O  O12  1  0.25000000  0.08170500  0.08943800  1
  O  O13  1  0.75000000  0.91829500  0.91056200  1
  O  O14  1  0.25000000  0.58170500  0.41056200  1
  O  O15  1  0.75000000  0.41829500  0.58943800  1
  O  O16  1  0.25000000  0.50260700  0.78113500  1
  O  O17  1  0.75000000  0.49739300  0.21886500  1
  O  O18  1  0.25000000  0.00260700  0.71886500  1
  O  O19  1  0.75000000  0.99739300  0.28113500  1
  O  O20  1  0.25000000  0.34274800  0.01189200  1
  O  O21  1  0.75000000  0.65725200  0.98810800  1
  O  O22  1  0.25000000  0.84274800  0.48810800  1
  O  O23  1  0.75000000  0.15725200  0.51189200  1
  O  O24  1  0.75000000  0.21610800  0.80212900  1
  O  O25  1  0.25000000  0.78389200  0.19787100  1
  O  O26  1  0.75000000  0.71610800  0.69787100  1
  O  O27  1  0.25000000  0.28389200  0.30212900  1
