# generated using pymatgen
data_NaSn2(PO4)3
_symmetry_space_group_name_H-M   'P 1'
_cell_length_a   9.05838663
_cell_length_b   9.05838663
_cell_length_c   9.05838702
_cell_angle_alpha   57.79778676
_cell_angle_beta   57.79778676
_cell_angle_gamma   57.79777937
_symmetry_Int_Tables_number   1
_chemical_formula_structural   NaSn2(PO4)3
_chemical_formula_sum   'Na2 Sn4 P6 O24'
_cell_volume   498.99949615
_cell_formula_units_Z   2
loop_
 _symmetry_equiv_pos_site_id
 _symmetry_equiv_pos_as_xyz
  1  'x, y, z'
loop_
 _atom_site_type_symbol
 _atom_site_label
 _atom_site_symmetry_multiplicity
 _atom_site_fract_x
 _atom_site_fract_y
 _atom_site_fract_z
 _atom_site_occupancy
  Na  Na0  1  0.50000000  0.50000000  0.50000000  1
  Na  Na1  1  0.00000000  0.00000000  0.00000000  1
  Sn  Sn2  1  0.85420000  0.85420000  0.85420000  1
  Sn  Sn3  1  0.64580000  0.64580000  0.64580000  1
  Sn  Sn4  1  0.35420000  0.35420000  0.35420000  1
  Sn  Sn5  1  0.14580000  0.14580000  0.14580000  1
  P  P6  1  0.95717700  0.25000000  0.54282300  1
  P  P7  1  0.54282300  0.95717700  0.25000000  1
  P  P8  1  0.04282300  0.75000000  0.45717700  1
  P  P9  1  0.45717700  0.04282300  0.75000000  1
  P  P10  1  0.25000000  0.54282300  0.95717700  1
  P  P11  1  0.75000000  0.45717700  0.04282300  1
  O  O12  1  0.91900300  0.27401900  0.06381500  1
  O  O13  1  0.06381500  0.91900300  0.27401900  1
  O  O14  1  0.27401900  0.06381500  0.91900300  1
  O  O15  1  0.58099700  0.43618500  0.22598100  1
  O  O16  1  0.22598100  0.58099700  0.43618500  1
  O  O17  1  0.43618500  0.22598100  0.58099700  1
  O  O18  1  0.08099700  0.72598100  0.93618500  1
  O  O19  1  0.93618500  0.08099700  0.72598100  1
  O  O20  1  0.72598100  0.93618500  0.08099700  1
  O  O21  1  0.41900300  0.56381500  0.77401900  1
  O  O22  1  0.77401900  0.41900300  0.56381500  1
  O  O23  1  0.56381500  0.77401900  0.41900300  1
  O  O24  1  0.48598900  0.88070100  0.71269000  1
  O  O25  1  0.88070100  0.71269000  0.48598900  1
  O  O26  1  0.71269000  0.48598900  0.88070100  1
  O  O27  1  0.61929900  0.01401100  0.78731000  1
  O  O28  1  0.01401100  0.78731000  0.61929900  1
  O  O29  1  0.78731000  0.61929900  0.01401100  1
  O  O30  1  0.51401100  0.11929900  0.28731000  1
  O  O31  1  0.11929900  0.28731000  0.51401100  1
  O  O32  1  0.28731000  0.51401100  0.11929900  1
  O  O33  1  0.38070100  0.98598900  0.21269000  1
  O  O34  1  0.98598900  0.21269000  0.38070100  1
  O  O35  1  0.21269000  0.38070100  0.98598900  1
