# generated using pymatgen
data_V3Sn
_symmetry_space_group_name_H-M   'P 1'
_cell_length_a   5.65080416
_cell_length_b   5.65080416
_cell_length_c   4.52559400
_cell_angle_alpha   90.00000000
_cell_angle_beta   90.00000000
_cell_angle_gamma   120.00000187
_symmetry_Int_Tables_number   1
_chemical_formula_structural   V3Sn
_chemical_formula_sum   'V6 Sn2'
_cell_volume   125.14881041
_cell_formula_units_Z   2
loop_
 _symmetry_equiv_pos_site_id
 _symmetry_equiv_pos_as_xyz
  1  'x, y, z'
loop_
 _atom_site_type_symbol
 _atom_site_label
 _atom_site_symmetry_multiplicity
 _atom_site_fract_x
 _atom_site_fract_y
 _atom_site_fract_z
 _atom_site_occupancy
  V  V0  1  0.14942500  0.29885000  0.75000000  1
  V  V1  1  0.85057500  0.14942500  0.25000000  1
  V  V2  1  0.85057500  0.70115000  0.25000000  1
  V  V3  1  0.14942500  0.85057500  0.75000000  1
  V  V4  1  0.70115000  0.85057500  0.75000000  1
  V  V5  1  0.29885000  0.14942500  0.25000000  1
  Sn  Sn6  1  0.66666700  0.33333300  0.75000000  1
  Sn  Sn7  1  0.33333300  0.66666700  0.25000000  1
