# generated using pymatgen
data_Fe2Cu2Ge4O13
_symmetry_space_group_name_H-M   'P 1'
_cell_length_a   8.70946200
_cell_length_b   4.96754100
_cell_length_c   12.19843272
_cell_angle_alpha   83.87928193
_cell_angle_beta   90.00000000
_cell_angle_gamma   90.00000000
_symmetry_Int_Tables_number   1
_chemical_formula_structural   Fe2Cu2Ge4O13
_chemical_formula_sum   'Fe4 Cu4 Ge8 O26'
_cell_volume   524.75190673
_cell_formula_units_Z   2
loop_
 _symmetry_equiv_pos_site_id
 _symmetry_equiv_pos_as_xyz
  1  'x, y, z'
loop_
 _atom_site_type_symbol
 _atom_site_label
 _atom_site_symmetry_multiplicity
 _atom_site_fract_x
 _atom_site_fract_y
 _atom_site_fract_z
 _atom_site_occupancy
  Fe  Fe0  1  0.06367300  0.04506200  0.62329000  1
  Fe  Fe1  1  0.56367300  0.95493800  0.37671000  1
  Fe  Fe2  1  0.93632700  0.95493800  0.37671000  1
  Fe  Fe3  1  0.43632700  0.04506200  0.62329000  1
  Cu  Cu4  1  0.99788900  0.04215800  0.87373200  1
  Cu  Cu5  1  0.49788900  0.95784200  0.12626800  1
  Cu  Cu6  1  0.00211100  0.95784200  0.12626800  1
  Cu  Cu7  1  0.50211100  0.04215800  0.87373200  1
  Ge  Ge8  1  0.75000000  0.39263100  0.51216600  1
  Ge  Ge9  1  0.25000000  0.60736900  0.48783400  1
  Ge  Ge10  1  0.75000000  0.60699600  0.99437100  1
  Ge  Ge11  1  0.25000000  0.39300400  0.00562900  1
  Ge  Ge12  1  0.75000000  0.67186600  0.74581300  1
  Ge  Ge13  1  0.25000000  0.32813400  0.25418700  1
  Ge  Ge14  1  0.75000000  0.51419800  0.24046500  1
  Ge  Ge15  1  0.25000000  0.48580200  0.75953500  1
  O  O16  1  0.41994800  0.20061800  0.00312900  1
  O  O17  1  0.91994800  0.79938200  0.99687100  1
  O  O18  1  0.58005200  0.79938200  0.99687100  1
  O  O19  1  0.08005200  0.20061800  0.00312900  1
  O  O20  1  0.75000000  0.71856300  0.43600700  1
  O  O21  1  0.25000000  0.28143700  0.56399300  1
  O  O22  1  0.42022000  0.13035300  0.25926900  1
  O  O23  1  0.92022000  0.86964700  0.74073100  1
  O  O24  1  0.57978000  0.86964700  0.74073100  1
  O  O25  1  0.07978000  0.13035300  0.25926900  1
  O  O26  1  0.42372100  0.79335900  0.49587700  1
  O  O27  1  0.92372100  0.20664100  0.50412300  1
  O  O28  1  0.57627900  0.20664100  0.50412300  1
  O  O29  1  0.07627900  0.79335900  0.49587700  1
  O  O30  1  0.75000000  0.44761800  0.87168200  1
  O  O31  1  0.25000000  0.55238200  0.12831800  1
  O  O32  1  0.25000000  0.78875700  0.66842900  1
  O  O33  1  0.75000000  0.21124300  0.33157100  1
  O  O34  1  0.25000000  0.56845700  0.34614100  1
  O  O35  1  0.75000000  0.43154300  0.65385900  1
  O  O36  1  0.25000000  0.63299500  0.88771500  1
  O  O37  1  0.75000000  0.36700500  0.11228500  1
  O  O38  1  0.08431200  0.27983600  0.75121700  1
  O  O39  1  0.58431200  0.72016400  0.24878300  1
  O  O40  1  0.91568800  0.72016400  0.24878300  1
  O  O41  1  0.41568800  0.27983600  0.75121700  1
