# generated using pymatgen
data_V2P4PbO14
_symmetry_space_group_name_H-M   'P 1'
_cell_length_a   4.89062800
_cell_length_b   7.21923266
_cell_length_c   8.06653579
_cell_angle_alpha   89.60519894
_cell_angle_beta   92.84869684
_cell_angle_gamma   106.26741268
_symmetry_Int_Tables_number   1
_chemical_formula_structural   V2P4PbO14
_chemical_formula_sum   'V2 P4 Pb1 O14'
_cell_volume   273.05450207
_cell_formula_units_Z   1
loop_
 _symmetry_equiv_pos_site_id
 _symmetry_equiv_pos_as_xyz
  1  'x, y, z'
loop_
 _atom_site_type_symbol
 _atom_site_label
 _atom_site_symmetry_multiplicity
 _atom_site_fract_x
 _atom_site_fract_y
 _atom_site_fract_z
 _atom_site_occupancy
  V  V0  1  0.50000000  0.50000000  0.50000000  1
  V  V1  1  0.00000000  0.00000000  0.00000000  1
  P  P2  1  0.02336700  0.61505600  0.25191100  1
  P  P3  1  0.97663300  0.38494400  0.74808900  1
  P  P4  1  0.61690700  0.22728400  0.20436500  1
  P  P5  1  0.38309300  0.77271600  0.79563500  1
  Pb  Pb6  1  0.00000000  0.00000000  0.50000000  1
  O  O7  1  0.79964200  0.44215900  0.15131300  1
  O  O8  1  0.20035800  0.55784100  0.84868700  1
  O  O9  1  0.51977500  0.23984400  0.38354200  1
  O  O10  1  0.48022500  0.76015600  0.61645800  1
  O  O11  1  0.29062000  0.55362500  0.29645700  1
  O  O12  1  0.70938000  0.44637500  0.70354300  1
  O  O13  1  0.87210500  0.65016000  0.40983600  1
  O  O14  1  0.18187300  0.90421600  0.79383200  1
  O  O15  1  0.81812700  0.09578400  0.20616800  1
  O  O16  1  0.91546700  0.20612600  0.85330500  1
  O  O17  1  0.08453300  0.79387400  0.14669500  1
  O  O18  1  0.62140100  0.82554000  0.92828800  1
  O  O19  1  0.37859900  0.17446000  0.07171200  1
  O  O20  1  0.12789500  0.34984000  0.59016400  1
