# generated using pymatgen
data_UCrC2
_symmetry_space_group_name_H-M   'P 1'
_cell_length_a   3.72883700
_cell_length_b   5.24584100
_cell_length_c   10.39471700
_cell_angle_alpha   90.00000000
_cell_angle_beta   90.00000000
_cell_angle_gamma   90.00000000
_symmetry_Int_Tables_number   1
_chemical_formula_structural   UCrC2
_chemical_formula_sum   'U4 Cr4 C8'
_cell_volume   203.32987442
_cell_formula_units_Z   4
loop_
 _symmetry_equiv_pos_site_id
 _symmetry_equiv_pos_as_xyz
  1  'x, y, z'
loop_
 _atom_site_type_symbol
 _atom_site_label
 _atom_site_symmetry_multiplicity
 _atom_site_fract_x
 _atom_site_fract_y
 _atom_site_fract_z
 _atom_site_occupancy
  U  U0  1  0.25000000  0.10449200  0.85597100  1
  U  U1  1  0.75000000  0.89550800  0.14402900  1
  U  U2  1  0.25000000  0.60449200  0.64402900  1
  U  U3  1  0.75000000  0.39550800  0.35597100  1
  Cr  Cr4  1  0.75000000  0.09912000  0.56983400  1
  Cr  Cr5  1  0.75000000  0.59912000  0.93016600  1
  Cr  Cr6  1  0.25000000  0.90088000  0.43016600  1
  Cr  Cr7  1  0.25000000  0.40088000  0.06983400  1
  C  C8  1  0.25000000  0.75507300  0.00068900  1
  C  C9  1  0.75000000  0.24492700  0.99931100  1
  C  C10  1  0.25000000  0.25507300  0.49931100  1
  C  C11  1  0.75000000  0.74492700  0.50068900  1
  C  C12  1  0.25000000  0.60051400  0.87552500  1
  C  C13  1  0.75000000  0.89948600  0.37552500  1
  C  C14  1  0.25000000  0.10051400  0.62447500  1
  C  C15  1  0.75000000  0.39948600  0.12447500  1
