# generated using pymatgen
data_In2O3
_symmetry_space_group_name_H-M   'P 1'
_cell_length_a   5.87940624
_cell_length_b   5.87940624
_cell_length_c   5.87940685
_cell_angle_alpha   56.72063185
_cell_angle_beta   56.72063185
_cell_angle_gamma   56.72062773
_symmetry_Int_Tables_number   1
_chemical_formula_structural   In2O3
_chemical_formula_sum   'In4 O6'
_cell_volume   132.82808995
_cell_formula_units_Z   2
loop_
 _symmetry_equiv_pos_site_id
 _symmetry_equiv_pos_as_xyz
  1  'x, y, z'
loop_
 _atom_site_type_symbol
 _atom_site_label
 _atom_site_symmetry_multiplicity
 _atom_site_fract_x
 _atom_site_fract_y
 _atom_site_fract_z
 _atom_site_occupancy
  In  In0  1  0.14278500  0.14278500  0.14278500  1
  In  In1  1  0.35721500  0.35721500  0.35721500  1
  In  In2  1  0.64278500  0.64278500  0.64278500  1
  In  In3  1  0.85721500  0.85721500  0.85721500  1
  O  O4  1  0.95327900  0.25000000  0.54672100  1
  O  O5  1  0.75000000  0.45327900  0.04672100  1
  O  O6  1  0.45327900  0.04672100  0.75000000  1
  O  O7  1  0.54672100  0.95327900  0.25000000  1
  O  O8  1  0.04672100  0.75000000  0.45327900  1
  O  O9  1  0.25000000  0.54672100  0.95327900  1
