# generated using pymatgen
data_MnP4O11
_symmetry_space_group_name_H-M   'P 1'
_cell_length_a   9.81485754
_cell_length_b   8.40622600
_cell_length_c   11.52614471
_cell_angle_alpha   90.00000000
_cell_angle_beta   101.24791489
_cell_angle_gamma   90.00000000
_symmetry_Int_Tables_number   1
_chemical_formula_structural   MnP4O11
_chemical_formula_sum   'Mn4 P16 O44'
_cell_volume   932.70909771
_cell_formula_units_Z   4
loop_
 _symmetry_equiv_pos_site_id
 _symmetry_equiv_pos_as_xyz
  1  'x, y, z'
loop_
 _atom_site_type_symbol
 _atom_site_label
 _atom_site_symmetry_multiplicity
 _atom_site_fract_x
 _atom_site_fract_y
 _atom_site_fract_z
 _atom_site_occupancy
  Mn  Mn0  1  0.03761400  0.01537300  0.78355500  1
  Mn  Mn1  1  0.46238600  0.51537300  0.71644500  1
  Mn  Mn2  1  0.53761400  0.48462700  0.28355500  1
  Mn  Mn3  1  0.96238600  0.98462700  0.21644500  1
  P  P4  1  0.18178200  0.39566200  0.82844600  1
  P  P5  1  0.06343500  0.38850900  0.24135900  1
  P  P6  1  0.31821800  0.89566200  0.67155400  1
  P  P7  1  0.26035300  0.00452700  0.42619600  1
  P  P8  1  0.28400700  0.36952100  0.45216000  1
  P  P9  1  0.21599300  0.86952100  0.04784000  1
  P  P10  1  0.23964700  0.50452700  0.07380400  1
  P  P11  1  0.43656500  0.88850900  0.25864100  1
  P  P12  1  0.56343500  0.11149100  0.74135900  1
  P  P13  1  0.76035300  0.49547300  0.92619600  1
  P  P14  1  0.78400700  0.13047900  0.95216000  1
  P  P15  1  0.71599300  0.63047900  0.54784000  1
  P  P16  1  0.73964700  0.99547300  0.57380400  1
  P  P17  1  0.68178200  0.10433800  0.32844600  1
  P  P18  1  0.93656500  0.61149100  0.75864100  1
  P  P19  1  0.81821800  0.60433800  0.17155400  1
  O  O20  1  0.08932000  0.55072400  0.77004000  1
  O  O21  1  0.15334100  0.40904800  0.96551700  1
  O  O22  1  0.11246600  0.25030500  0.77469400  1
  O  O23  1  0.20373200  0.94736700  0.93071800  1
  O  O24  1  0.16989300  0.93328100  0.66843300  1
  O  O25  1  0.07324700  0.22034100  0.20594700  1
  O  O26  1  0.12470400  0.93475200  0.37428000  1
  O  O27  1  0.13157800  0.42586800  0.37446900  1
  O  O28  1  0.10942000  0.88294900  0.12231200  1
  O  O29  1  0.13207400  0.51204900  0.16278900  1
  O  O30  1  0.25497000  0.17962100  0.47220400  1
  O  O31  1  0.33010700  0.43328100  0.83156700  1
  O  O32  1  0.29626800  0.44736700  0.56928200  1
  O  O33  1  0.38753400  0.75030500  0.72530600  1
  O  O34  1  0.34665900  0.90904800  0.53448300  1
  O  O35  1  0.41068000  0.05072400  0.72996000  1
  O  O36  1  0.24503000  0.67962100  0.02779600  1
  O  O37  1  0.36792600  0.01204900  0.33721100  1
  O  O38  1  0.39058000  0.38294900  0.37768800  1
  O  O39  1  0.36842200  0.92586800  0.12553100  1
  O  O40  1  0.37529600  0.43475200  0.12572000  1
  O  O41  1  0.42675300  0.72034100  0.29405300  1
  O  O42  1  0.57324700  0.27965900  0.70594700  1
  O  O43  1  0.62470400  0.56524800  0.87428000  1
  O  O44  1  0.63157800  0.07413200  0.87446900  1
  O  O45  1  0.60942000  0.61705100  0.62231200  1
  O  O46  1  0.63207400  0.98795100  0.66278900  1
  O  O47  1  0.75497000  0.32037900  0.97220400  1
  O  O48  1  0.58932000  0.94927600  0.27004000  1
  O  O49  1  0.65334100  0.09095200  0.46551700  1
  O  O50  1  0.61246600  0.24969500  0.27469500  1
  O  O51  1  0.70373200  0.55263300  0.43071800  1
  O  O52  1  0.66989300  0.56671900  0.16843300  1
  O  O53  1  0.74503000  0.82037900  0.52779600  1
  O  O54  1  0.86792600  0.48795100  0.83721100  1
  O  O55  1  0.89058000  0.11705100  0.87768800  1
  O  O56  1  0.86842200  0.57413200  0.62553100  1
  O  O57  1  0.87529600  0.06524800  0.62572000  1
  O  O58  1  0.92675300  0.77965900  0.79405300  1
  O  O59  1  0.83010700  0.06671900  0.33156700  1
  O  O60  1  0.79626800  0.05263300  0.06928200  1
  O  O61  1  0.88753400  0.74969500  0.22530500  1
  O  O62  1  0.84665900  0.59095200  0.03448300  1
  O  O63  1  0.91068000  0.44927600  0.22996000  1
