# generated using pymatgen
data_In2S3
_symmetry_space_group_name_H-M   'P 1'
_cell_length_a   7.10460392
_cell_length_b   7.10460392
_cell_length_c   7.10460365
_cell_angle_alpha   55.92154981
_cell_angle_beta   55.92154981
_cell_angle_gamma   55.92154640
_symmetry_Int_Tables_number   1
_chemical_formula_structural   In2S3
_chemical_formula_sum   'In4 S6'
_cell_volume   229.60634727
_cell_formula_units_Z   2
loop_
 _symmetry_equiv_pos_site_id
 _symmetry_equiv_pos_as_xyz
  1  'x, y, z'
loop_
 _atom_site_type_symbol
 _atom_site_label
 _atom_site_symmetry_multiplicity
 _atom_site_fract_x
 _atom_site_fract_y
 _atom_site_fract_z
 _atom_site_occupancy
  In  In0  1  0.35440300  0.35440300  0.35440300  1
  In  In1  1  0.14559700  0.14559700  0.14559700  1
  In  In2  1  0.64559700  0.64559700  0.64559700  1
  In  In3  1  0.85440300  0.85440300  0.85440300  1
  S  S4  1  0.25000000  0.54867100  0.95132900  1
  S  S5  1  0.95132900  0.25000000  0.54867100  1
  S  S6  1  0.54867100  0.95132900  0.25000000  1
  S  S7  1  0.75000000  0.45132900  0.04867100  1
  S  S8  1  0.45132900  0.04867100  0.75000000  1
  S  S9  1  0.04867100  0.75000000  0.45132900  1
