# generated using pymatgen
data_Dy2C3
_symmetry_space_group_name_H-M   'P 1'
_cell_length_a   7.13381671
_cell_length_b   7.13381671
_cell_length_c   7.13381671
_cell_angle_alpha   109.47122063
_cell_angle_beta   109.47122063
_cell_angle_gamma   109.47122063
_symmetry_Int_Tables_number   1
_chemical_formula_structural   Dy2C3
_chemical_formula_sum   'Dy8 C12'
_cell_volume   279.47563412
_cell_formula_units_Z   4
loop_
 _symmetry_equiv_pos_site_id
 _symmetry_equiv_pos_as_xyz
  1  'x, y, z'
loop_
 _atom_site_type_symbol
 _atom_site_label
 _atom_site_symmetry_multiplicity
 _atom_site_fract_x
 _atom_site_fract_y
 _atom_site_fract_z
 _atom_site_occupancy
  Dy  Dy0  1  0.60116200  0.60116200  0.60116200  1
  Dy  Dy1  1  0.50000000  0.00000000  0.39883800  1
  Dy  Dy2  1  0.00000000  0.39883800  0.50000000  1
  Dy  Dy3  1  0.39883800  0.50000000  0.00000000  1
  Dy  Dy4  1  0.00000000  0.89883800  0.50000000  1
  Dy  Dy5  1  0.89883800  0.50000000  0.00000000  1
  Dy  Dy6  1  0.50000000  0.00000000  0.89883800  1
  Dy  Dy7  1  0.10116200  0.10116200  0.10116200  1
  C  C8  1  0.79369500  0.04369500  0.75000000  1
  C  C9  1  0.95630500  0.20630500  0.75000000  1
  C  C10  1  0.25000000  0.54369500  0.29369500  1
  C  C11  1  0.29369500  0.25000000  0.54369500  1
  C  C12  1  0.75000000  0.95630500  0.20630500  1
  C  C13  1  0.20630500  0.75000000  0.95630500  1
  C  C14  1  0.70630500  0.45630500  0.25000000  1
  C  C15  1  0.45630500  0.25000000  0.70630500  1
  C  C16  1  0.54369500  0.29369500  0.25000000  1
  C  C17  1  0.25000000  0.70630500  0.45630500  1
  C  C18  1  0.75000000  0.79369500  0.04369500  1
  C  C19  1  0.04369500  0.75000000  0.79369500  1
