# generated using pymatgen
data_Mn2Cr3Co3O16
_symmetry_space_group_name_H-M   'P 1'
_cell_length_a   5.76074500
_cell_length_b   5.77619661
_cell_length_c   8.89242289
_cell_angle_alpha   90.13969869
_cell_angle_beta   90.14708584
_cell_angle_gamma   119.84342024
_symmetry_Int_Tables_number   1
_chemical_formula_structural   Mn2Cr3Co3O16
_chemical_formula_sum   'Mn2 Cr3 Co3 O16'
_cell_volume   256.65457673
_cell_formula_units_Z   1
loop_
 _symmetry_equiv_pos_site_id
 _symmetry_equiv_pos_as_xyz
  1  'x, y, z'
loop_
 _atom_site_type_symbol
 _atom_site_label
 _atom_site_symmetry_multiplicity
 _atom_site_fract_x
 _atom_site_fract_y
 _atom_site_fract_z
 _atom_site_occupancy
  Mn  Mn0  1  0.32758200  0.66606700  0.51811900  1
  Mn  Mn1  1  0.66967500  0.33666400  0.01874400  1
  Cr  Cr2  1  0.67279400  0.83129000  0.79535600  1
  Cr  Cr3  1  0.16931100  0.32776000  0.79612600  1
  Cr  Cr4  1  0.83467200  0.16188100  0.29735200  1
  Co  Co5  1  0.17339000  0.82903500  0.78609700  1
  Co  Co6  1  0.82932300  0.66089200  0.28986400  1
  Co  Co7  1  0.33175500  0.15791500  0.29028700  1
  O  O8  1  0.66300400  0.83155900  0.39266900  1
  O  O9  1  0.47322000  0.52416400  0.66110000  1
  O  O10  1  0.32838700  0.67381200  0.90096600  1
  O  O11  1  0.00833900  0.99199900  0.68419100  1
  O  O12  1  0.00876800  0.99380700  0.18721300  1
  O  O13  1  0.16420100  0.34464100  0.39413000  1
  O  O14  1  0.47620000  0.95655700  0.66011900  1
  O  O15  1  0.04174800  0.52496000  0.66035300  1
  O  O16  1  0.82935400  0.17408100  0.89090000  1
  O  O17  1  0.15876300  0.83100400  0.39468200  1
  O  O18  1  0.95591000  0.48190200  0.16397000  1
  O  O19  1  0.53234900  0.04574000  0.15418000  1
  O  O20  1  0.65404700  0.33319700  0.39743900  1
  O  O21  1  0.83260600  0.66613500  0.89494200  1
  O  O22  1  0.52763300  0.48377200  0.15988800  1
  O  O23  1  0.33717100  0.17137000  0.89559000  1
