# generated using pymatgen
data_Mn3TeO6
_symmetry_space_group_name_H-M   'P 1'
_cell_length_a   5.36581478
_cell_length_b   5.51957575
_cell_length_c   7.94737876
_cell_angle_alpha   90.05950640
_cell_angle_beta   90.35639548
_cell_angle_gamma   90.00091749
_symmetry_Int_Tables_number   1
_chemical_formula_structural   Mn3TeO6
_chemical_formula_sum   'Mn6 Te2 O12'
_cell_volume   235.37300404
_cell_formula_units_Z   2
loop_
 _symmetry_equiv_pos_site_id
 _symmetry_equiv_pos_as_xyz
  1  'x, y, z'
loop_
 _atom_site_type_symbol
 _atom_site_label
 _atom_site_symmetry_multiplicity
 _atom_site_fract_x
 _atom_site_fract_y
 _atom_site_fract_z
 _atom_site_occupancy
  Mn  Mn0  1  0.99942300  0.99899100  0.50021200  1
  Mn  Mn1  1  0.50032600  0.50073700  0.99784400  1
  Mn  Mn2  1  0.98834600  0.45275300  0.26141600  1
  Mn  Mn3  1  0.01256900  0.54673500  0.73692200  1
  Mn  Mn4  1  0.48774500  0.04578400  0.76173600  1
  Mn  Mn5  1  0.51246700  0.95331500  0.23637500  1
  Te  Te6  1  0.99990700  0.00095500  0.00044700  1
  Te  Te7  1  0.49991000  0.49906500  0.49966900  1
  O  O8  1  0.12793200  0.07962800  0.22774000  1
  O  O9  1  0.37276200  0.57959800  0.27265500  1
  O  O10  1  0.62714500  0.41989500  0.72734300  1
  O  O11  1  0.87214200  0.92075700  0.77332100  1
  O  O12  1  0.16870000  0.29171700  0.91538000  1
  O  O13  1  0.32998700  0.78900100  0.58594300  1
  O  O14  1  0.66921500  0.20834000  0.41489900  1
  O  O15  1  0.82958600  0.71150400  0.08596800  1
  O  O16  1  0.19658700  0.32047800  0.55151100  1
  O  O17  1  0.30362200  0.82290800  0.94857600  1
  O  O18  1  0.69792400  0.18102000  0.05305000  1
  O  O19  1  0.80370600  0.67681800  0.44899200  1
