# generated using pymatgen
data_Sr2GdCu3(PbO4)2
_symmetry_space_group_name_H-M   'P 1'
_cell_length_a   3.84619500
_cell_length_b   3.84619500
_cell_length_c   16.04175300
_cell_angle_alpha   90.00000000
_cell_angle_beta   90.00000000
_cell_angle_gamma   90.00000000
_symmetry_Int_Tables_number   1
_chemical_formula_structural   Sr2GdCu3(PbO4)2
_chemical_formula_sum   'Sr2 Gd1 Cu3 Pb2 O8'
_cell_volume   237.30911680
_cell_formula_units_Z   1
loop_
 _symmetry_equiv_pos_site_id
 _symmetry_equiv_pos_as_xyz
  1  'x, y, z'
loop_
 _atom_site_type_symbol
 _atom_site_label
 _atom_site_symmetry_multiplicity
 _atom_site_fract_x
 _atom_site_fract_y
 _atom_site_fract_z
 _atom_site_occupancy
  Sr  Sr0  1  0.00000000  0.00000000  0.77809200  1
  Sr  Sr1  1  0.00000000  0.00000000  0.22190800  1
  Gd  Gd2  1  0.00000000  0.00000000  0.00000000  1
  Cu  Cu3  1  0.00000000  0.00000000  0.50000000  1
  Cu  Cu4  1  0.50000000  0.50000000  0.89361000  1
  Cu  Cu5  1  0.50000000  0.50000000  0.10639000  1
  Pb  Pb6  1  0.50000000  0.50000000  0.38778800  1
  Pb  Pb7  1  0.50000000  0.50000000  0.61221200  1
  O  O8  1  0.00000000  0.50000000  0.90634800  1
  O  O9  1  0.50000000  0.00000000  0.09365200  1
  O  O10  1  0.00000000  0.50000000  0.09365200  1
  O  O11  1  0.50000000  0.00000000  0.90634800  1
  O  O12  1  0.00000000  0.00000000  0.38400500  1
  O  O13  1  0.50000000  0.50000000  0.74834900  1
  O  O14  1  0.50000000  0.50000000  0.25165100  1
  O  O15  1  0.00000000  0.00000000  0.61599500  1
