# generated using pymatgen
data_YS
_symmetry_space_group_name_H-M   'P 1'
_cell_length_a   11.01087245
_cell_length_b   11.01087245
_cell_length_c   11.01087245
_cell_angle_alpha   160.03450186
_cell_angle_beta   160.03450186
_cell_angle_gamma   28.38213755
_symmetry_Int_Tables_number   1
_chemical_formula_structural   YS
_chemical_formula_sum   'Y2 S2'
_cell_volume   155.56849297
_cell_formula_units_Z   2
loop_
 _symmetry_equiv_pos_site_id
 _symmetry_equiv_pos_as_xyz
  1  'x, y, z'
loop_
 _atom_site_type_symbol
 _atom_site_label
 _atom_site_symmetry_multiplicity
 _atom_site_fract_x
 _atom_site_fract_y
 _atom_site_fract_z
 _atom_site_occupancy
  Y  Y0  1  0.30365400  0.30365400  0.00000000  1
  Y  Y1  1  0.69634600  0.69634600  0.00000000  1
  S  S2  1  0.17296000  0.17296000  0.00000000  1
  S  S3  1  0.82704000  0.82704000  0.00000000  1
