# generated using pymatgen
data_MnSeO4
_symmetry_space_group_name_H-M   'P 1'
_cell_length_a   5.08528000
_cell_length_b   7.07657500
_cell_length_c   9.36692000
_cell_angle_alpha   90.00000000
_cell_angle_beta   90.00000000
_cell_angle_gamma   90.00000000
_symmetry_Int_Tables_number   1
_chemical_formula_structural   MnSeO4
_chemical_formula_sum   'Mn4 Se4 O16'
_cell_volume   337.08140501
_cell_formula_units_Z   4
loop_
 _symmetry_equiv_pos_site_id
 _symmetry_equiv_pos_as_xyz
  1  'x, y, z'
loop_
 _atom_site_type_symbol
 _atom_site_label
 _atom_site_symmetry_multiplicity
 _atom_site_fract_x
 _atom_site_fract_y
 _atom_site_fract_z
 _atom_site_occupancy
  Mn  Mn0  1  0.00000000  0.00000000  0.00000000  1
  Mn  Mn1  1  0.50000000  0.00000000  0.50000000  1
  Mn  Mn2  1  0.00000000  0.50000000  0.00000000  1
  Mn  Mn3  1  0.50000000  0.50000000  0.50000000  1
  Se  Se4  1  0.52585400  0.75000000  0.81937900  1
  Se  Se5  1  0.02585400  0.25000000  0.68062100  1
  Se  Se6  1  0.47414600  0.25000000  0.18062100  1
  Se  Se7  1  0.97414600  0.75000000  0.31937900  1
  O  O8  1  0.17482500  0.44703600  0.62544200  1
  O  O9  1  0.67482500  0.55296400  0.87455800  1
  O  O10  1  0.82517500  0.94703600  0.37455800  1
  O  O11  1  0.32517500  0.05296400  0.12544200  1
  O  O12  1  0.82517500  0.55296400  0.37455800  1
  O  O13  1  0.32517500  0.44703600  0.12544200  1
  O  O14  1  0.17482500  0.05296400  0.62544200  1
  O  O15  1  0.67482500  0.94703600  0.87455800  1
  O  O16  1  0.21172200  0.75000000  0.87897700  1
  O  O17  1  0.71172200  0.25000000  0.62102300  1
  O  O18  1  0.78827800  0.25000000  0.12102300  1
  O  O19  1  0.28827800  0.75000000  0.37897700  1
  O  O20  1  0.55054300  0.75000000  0.63690100  1
  O  O21  1  0.05054300  0.25000000  0.86309900  1
  O  O22  1  0.44945700  0.25000000  0.36309900  1
  O  O23  1  0.94945700  0.75000000  0.13690100  1
