# generated using pymatgen
data_Sc3As2
_symmetry_space_group_name_H-M   'P 1'
_cell_length_a   3.84419400
_cell_length_b   10.33223500
_cell_length_c   10.45526500
_cell_angle_alpha   90.00000000
_cell_angle_beta   90.00000000
_cell_angle_gamma   90.00000000
_symmetry_Int_Tables_number   1
_chemical_formula_structural   Sc3As2
_chemical_formula_sum   'Sc12 As8'
_cell_volume   415.27388119
_cell_formula_units_Z   4
loop_
 _symmetry_equiv_pos_site_id
 _symmetry_equiv_pos_as_xyz
  1  'x, y, z'
loop_
 _atom_site_type_symbol
 _atom_site_label
 _atom_site_symmetry_multiplicity
 _atom_site_fract_x
 _atom_site_fract_y
 _atom_site_fract_z
 _atom_site_occupancy
  Sc  Sc0  1  0.25000000  0.13239700  0.04864600  1
  Sc  Sc1  1  0.75000000  0.86760300  0.95135400  1
  Sc  Sc2  1  0.25000000  0.36760300  0.54864600  1
  Sc  Sc3  1  0.75000000  0.63239700  0.45135400  1
  Sc  Sc4  1  0.25000000  0.06364400  0.37214000  1
  Sc  Sc5  1  0.75000000  0.93635600  0.62786000  1
  Sc  Sc6  1  0.25000000  0.43635600  0.87214000  1
  Sc  Sc7  1  0.75000000  0.56364400  0.12786000  1
  Sc  Sc8  1  0.25000000  0.79646400  0.22311900  1
  Sc  Sc9  1  0.75000000  0.20353600  0.77688100  1
  Sc  Sc10  1  0.25000000  0.70353600  0.72311900  1
  Sc  Sc11  1  0.75000000  0.29646400  0.27688100  1
  As  As12  1  0.25000000  0.49464600  0.31309700  1
  As  As13  1  0.75000000  0.50535400  0.68690300  1
  As  As14  1  0.25000000  0.00535400  0.81309700  1
  As  As15  1  0.75000000  0.99464600  0.18690300  1
  As  As16  1  0.25000000  0.82094200  0.48650500  1
  As  As17  1  0.75000000  0.17905800  0.51349500  1
  As  As18  1  0.25000000  0.67905800  0.98650500  1
  As  As19  1  0.75000000  0.32094200  0.01349500  1
