# generated using pymatgen
data_PrSnPd
_symmetry_space_group_name_H-M   'P 1'
_cell_length_a   4.73940900
_cell_length_b   7.60183700
_cell_length_c   8.06903500
_cell_angle_alpha   90.00000000
_cell_angle_beta   90.00000000
_cell_angle_gamma   90.00000000
_symmetry_Int_Tables_number   1
_chemical_formula_structural   PrSnPd
_chemical_formula_sum   'Pr4 Sn4 Pd4'
_cell_volume   290.71292536
_cell_formula_units_Z   4
loop_
 _symmetry_equiv_pos_site_id
 _symmetry_equiv_pos_as_xyz
  1  'x, y, z'
loop_
 _atom_site_type_symbol
 _atom_site_label
 _atom_site_symmetry_multiplicity
 _atom_site_fract_x
 _atom_site_fract_y
 _atom_site_fract_z
 _atom_site_occupancy
  Pr  Pr0  1  0.25000000  0.48691400  0.70058400  1
  Pr  Pr1  1  0.75000000  0.51308600  0.29941600  1
  Pr  Pr2  1  0.25000000  0.98691400  0.79941600  1
  Pr  Pr3  1  0.75000000  0.01308600  0.20058400  1
  Sn  Sn4  1  0.25000000  0.81377500  0.41320000  1
  Sn  Sn5  1  0.75000000  0.68622500  0.91320000  1
  Sn  Sn6  1  0.25000000  0.31377500  0.08680000  1
  Sn  Sn7  1  0.75000000  0.18622500  0.58680000  1
  Pd  Pd8  1  0.75000000  0.30005100  0.91393600  1
  Pd  Pd9  1  0.25000000  0.19994900  0.41393600  1
  Pd  Pd10  1  0.75000000  0.80005100  0.58606400  1
  Pd  Pd11  1  0.25000000  0.69994900  0.08606400  1
