# generated using pymatgen
data_Ba(MnSn)2
_symmetry_space_group_name_H-M   'P 1'
_cell_length_a   6.86231409
_cell_length_b   6.86231409
_cell_length_c   6.86231409
_cell_angle_alpha   139.73348526
_cell_angle_beta   139.73348526
_cell_angle_gamma   58.25818757
_symmetry_Int_Tables_number   1
_chemical_formula_structural   Ba(MnSn)2
_chemical_formula_sum   'Ba1 Mn2 Sn2'
_cell_volume   133.77681880
_cell_formula_units_Z   1
loop_
 _symmetry_equiv_pos_site_id
 _symmetry_equiv_pos_as_xyz
  1  'x, y, z'
loop_
 _atom_site_type_symbol
 _atom_site_label
 _atom_site_symmetry_multiplicity
 _atom_site_fract_x
 _atom_site_fract_y
 _atom_site_fract_z
 _atom_site_occupancy
  Ba  Ba0  1  0.00000000  0.00000000  0.00000000  1
  Mn  Mn1  1  0.75000000  0.25000000  0.50000000  1
  Mn  Mn2  1  0.25000000  0.75000000  0.50000000  1
  Sn  Sn3  1  0.63255000  0.63255000  0.00000000  1
  Sn  Sn4  1  0.36745000  0.36745000  0.00000000  1
