data_image0
_chemical_formula_structural       C2Ce2P2Ru4
_chemical_formula_sum              "C2 Ce2 P2 Ru4"
_cell_length_a       3.95588
_cell_length_b       5.86314
_cell_length_c       7.20501
_cell_angle_alpha    90
_cell_angle_beta     90
_cell_angle_gamma    70.2844

_space_group_name_H-M_alt    "P 1"
_space_group_IT_number       1

loop_
  _space_group_symop_operation_xyz
  'x, y, z'

loop_
  _atom_site_type_symbol
  _atom_site_label
  _atom_site_symmetry_multiplicity
  _atom_site_fract_x
  _atom_site_fract_y
  _atom_site_fract_z
  _atom_site_occupancy
  C   C1        1.0  0.50000  0.00000  0.00000  1.0000
  C   C2        1.0  0.50000  0.00000  0.50000  1.0000
  Ce  Ce1       1.0  0.95300  0.09410  0.25000  1.0000
  Ce  Ce2       1.0  0.04700  0.90600  0.75000  1.0000
  P   P1        1.0  0.22900  0.54100  0.25000  1.0000
  P   P2        1.0  0.77100  0.45900  0.75000  1.0000
  Ru  Ru1       1.0  0.66800  0.66500  0.05510  1.0000
  Ru  Ru2       1.0  0.66800  0.66500  0.44500  1.0000
  Ru  Ru3       1.0  0.33200  0.33500  0.55500  1.0000
  Ru  Ru4       1.0  0.33200  0.33500  0.94500  1.0000
