data_image0
_chemical_formula_structural       Cl8Hf2
_chemical_formula_sum              "Cl8 Hf2"
_cell_length_a       6.40982
_cell_length_b       7.453
_cell_length_c       6.24032
_cell_angle_alpha    90
_cell_angle_beta     109.021
_cell_angle_gamma    90

_space_group_name_H-M_alt    "P 1"
_space_group_IT_number       1

loop_
  _space_group_symop_operation_xyz
  'x, y, z'

loop_
  _atom_site_type_symbol
  _atom_site_label
  _atom_site_symmetry_multiplicity
  _atom_site_fract_x
  _atom_site_fract_y
  _atom_site_fract_z
  _atom_site_occupancy
  Cl  Cl1       1.0  0.27600  0.60700  0.00190  1.0000
  Cl  Cl2       1.0  0.24700  0.13900  0.02450  1.0000
  Cl  Cl3       1.0  0.75300  0.13900  0.47600  1.0000
  Cl  Cl4       1.0  0.72400  0.60700  0.49800  1.0000
  Cl  Cl5       1.0  0.27600  0.39300  0.50200  1.0000
  Cl  Cl6       1.0  0.24700  0.86100  0.52400  1.0000
  Cl  Cl7       1.0  0.75300  0.86100  0.97600  1.0000
  Cl  Cl8       1.0  0.72400  0.39300  0.99800  1.0000
  Hf  Hf1       1.0  0.50000  0.33800  0.25000  1.0000
  Hf  Hf2       1.0  0.50000  0.66200  0.75000  1.0000
