data_image0
_chemical_formula_structural       I4O2Sr4
_chemical_formula_sum              "I4 O2 Sr4"
_cell_length_a       6.52755
_cell_length_b       7.51244
_cell_length_c       8.21556
_cell_angle_alpha    117.207
_cell_angle_beta     113.407
_cell_angle_gamma    90

_space_group_name_H-M_alt    "P 1"
_space_group_IT_number       1

loop_
  _space_group_symop_operation_xyz
  'x, y, z'

loop_
  _atom_site_type_symbol
  _atom_site_label
  _atom_site_symmetry_multiplicity
  _atom_site_fract_x
  _atom_site_fract_y
  _atom_site_fract_z
  _atom_site_occupancy
  I   I1        1.0  0.15100  0.00353  0.30200  1.0000
  I   I2        1.0  0.65100  0.29800  0.30200  1.0000
  I   I3        1.0  0.34900  0.70200  0.69800  1.0000
  I   I4        1.0  0.84900  0.99600  0.69800  1.0000
  O   O1        1.0  0.25000  0.50000  0.00000  1.0000
  O   O2        1.0  0.75000  0.50000  0.00000  1.0000
  Sr  Sr1       1.0  0.08950  0.41800  0.17900  1.0000
  Sr  Sr2       1.0  0.59000  0.76100  0.17900  1.0000
  Sr  Sr3       1.0  0.41000  0.23900  0.82100  1.0000
  Sr  Sr4       1.0  0.91000  0.58200  0.82100  1.0000
