data_image0
_chemical_formula_structural       CeIn7Pt2
_chemical_formula_sum              "Ce1 In7 Pt2"
_cell_length_a       4.60184
_cell_length_b       4.60184
_cell_length_c       11.7984
_cell_angle_alpha    101.246
_cell_angle_beta     101.246
_cell_angle_gamma    90

_space_group_name_H-M_alt    "P 1"
_space_group_IT_number       1

loop_
  _space_group_symop_operation_xyz
  'x, y, z'

loop_
  _atom_site_type_symbol
  _atom_site_label
  _atom_site_symmetry_multiplicity
  _atom_site_fract_x
  _atom_site_fract_y
  _atom_site_fract_z
  _atom_site_occupancy
  Ce  Ce1       1.0  0.00000  0.00000  0.00000  1.0000
  In  In1       1.0  0.50000  0.50000  0.00000  1.0000
  In  In2       1.0  0.60900  0.10900  0.21900  1.0000
  In  In3       1.0  0.10900  0.60900  0.21900  1.0000
  In  In4       1.0  0.75000  0.25000  0.50000  1.0000
  In  In5       1.0  0.25000  0.75000  0.50000  1.0000
  In  In6       1.0  0.89100  0.39100  0.78100  1.0000
  In  In7       1.0  0.39100  0.89100  0.78100  1.0000
  Pt  Pt1       1.0  0.68200  0.68200  0.36400  1.0000
  Pt  Pt2       1.0  0.31800  0.31800  0.63600  1.0000
