data_image0
_chemical_formula_structural       Ca4In2Pd4
_chemical_formula_sum              "Ca4 In2 Pd4"
_cell_length_a       5.73941
_cell_length_b       5.85842
_cell_length_c       8.19658
_cell_angle_alpha    102.929
_cell_angle_beta     90
_cell_angle_gamma    119.33

_space_group_name_H-M_alt    "P 1"
_space_group_IT_number       1

loop_
  _space_group_symop_operation_xyz
  'x, y, z'

loop_
  _atom_site_type_symbol
  _atom_site_label
  _atom_site_symmetry_multiplicity
  _atom_site_fract_x
  _atom_site_fract_y
  _atom_site_fract_z
  _atom_site_occupancy
  Ca  Ca1       1.0  0.79400  0.29900  0.15000  1.0000
  Ca  Ca2       1.0  0.49500  0.70100  0.35000  1.0000
  Ca  Ca3       1.0  0.50500  0.29900  0.65000  1.0000
  Ca  Ca4       1.0  0.20600  0.70100  0.85000  1.0000
  In  In1       1.0  0.15500  0.00000  0.25000  1.0000
  In  In2       1.0  0.84500  0.00000  0.75000  1.0000
  Pd  Pd1       1.0  0.27200  0.26800  0.00276  1.0000
  Pd  Pd2       1.0  0.00400  0.73200  0.49700  1.0000
  Pd  Pd3       1.0  0.99600  0.26800  0.50300  1.0000
  Pd  Pd4       1.0  0.72800  0.73200  0.99700  1.0000
