data_image0
_chemical_formula_structural       Ba2Cd2Sb4Yb2
_chemical_formula_sum              "Ba2 Cd2 Sb4 Yb2"
_cell_length_a       4.76175
_cell_length_b       7.43467
_cell_length_c       9.70582
_cell_angle_alpha    90
_cell_angle_beta     75.8002
_cell_angle_gamma    90

_space_group_name_H-M_alt    "P 1"
_space_group_IT_number       1

loop_
  _space_group_symop_operation_xyz
  'x, y, z'

loop_
  _atom_site_type_symbol
  _atom_site_label
  _atom_site_symmetry_multiplicity
  _atom_site_fract_x
  _atom_site_fract_y
  _atom_site_fract_z
  _atom_site_occupancy
  Ba  Ba1       1.0  0.30200  0.52500  0.39500  1.0000
  Ba  Ba2       1.0  0.69800  0.02460  0.60500  1.0000
  Cd  Cd1       1.0  0.90700  0.89400  0.18600  1.0000
  Cd  Cd2       1.0  0.09320  0.39400  0.81400  1.0000
  Sb  Sb1       1.0  0.94100  0.50300  0.11800  1.0000
  Sb  Sb2       1.0  0.33400  0.01080  0.33200  1.0000
  Sb  Sb3       1.0  0.66600  0.51100  0.66800  1.0000
  Sb  Sb4       1.0  0.05900  0.00332  0.88200  1.0000
  Yb  Yb1       1.0  0.48000  0.22400  0.03960  1.0000
  Yb  Yb2       1.0  0.52000  0.72400  0.96000  1.0000
