data_image0
_chemical_formula_structural       Ba4Sb4Zn2
_chemical_formula_sum              "Ba4 Sb4 Zn2"
_cell_length_a       7.03679
_cell_length_b       7.26324
_cell_length_c       8.74882
_cell_angle_alpha    114.525
_cell_angle_beta     113.713
_cell_angle_gamma    90

_space_group_name_H-M_alt    "P 1"
_space_group_IT_number       1

loop_
  _space_group_symop_operation_xyz
  'x, y, z'

loop_
  _atom_site_type_symbol
  _atom_site_label
  _atom_site_symmetry_multiplicity
  _atom_site_fract_x
  _atom_site_fract_y
  _atom_site_fract_z
  _atom_site_occupancy
  Ba  Ba1       1.0  0.13700  0.34000  0.27400  1.0000
  Ba  Ba2       1.0  0.63700  0.93500  0.27400  1.0000
  Ba  Ba3       1.0  0.36300  0.06510  0.72600  1.0000
  Ba  Ba4       1.0  0.86300  0.66000  0.72600  1.0000
  Sb  Sb1       1.0  0.61100  0.40400  0.22200  1.0000
  Sb  Sb2       1.0  0.11100  0.81800  0.22200  1.0000
  Sb  Sb3       1.0  0.88900  0.18200  0.77800  1.0000
  Sb  Sb4       1.0  0.38900  0.59600  0.77800  1.0000
  Zn  Zn1       1.0  0.25000  0.50000  0.00000  1.0000
  Zn  Zn2       1.0  0.75000  0.50000  0.00000  1.0000
