data_image0
_chemical_formula_structural       Mg2Pd4Tb4
_chemical_formula_sum              "Mg2 Pd4 Tb4"
_cell_length_a       7.65332
_cell_length_b       7.65332
_cell_length_c       3.8224
_cell_angle_alpha    90
_cell_angle_beta     90
_cell_angle_gamma    90

_space_group_name_H-M_alt    "P 1"
_space_group_IT_number       1

loop_
  _space_group_symop_operation_xyz
  'x, y, z'

loop_
  _atom_site_type_symbol
  _atom_site_label
  _atom_site_symmetry_multiplicity
  _atom_site_fract_x
  _atom_site_fract_y
  _atom_site_fract_z
  _atom_site_occupancy
  Mg  Mg1       1.0  0.00000  0.00000  0.00000  1.0000
  Mg  Mg2       1.0  0.50000  0.50000  0.00000  1.0000
  Pd  Pd1       1.0  0.63200  0.13200  0.00000  1.0000
  Pd  Pd2       1.0  0.13200  0.36800  0.00000  1.0000
  Pd  Pd3       1.0  0.86800  0.63200  0.00000  1.0000
  Pd  Pd4       1.0  0.36800  0.86800  0.00000  1.0000
  Tb  Tb1       1.0  0.33100  0.16900  0.50000  1.0000
  Tb  Tb2       1.0  0.83100  0.33100  0.50000  1.0000
  Tb  Tb3       1.0  0.16900  0.66900  0.50000  1.0000
  Tb  Tb4       1.0  0.66900  0.83100  0.50000  1.0000
