data_image0
_chemical_formula_structural       K2Mg5Sn3
_chemical_formula_sum              "K2 Mg5 Sn3"
_cell_length_a       4.99235
_cell_length_b       4.99235
_cell_length_c       12.3303
_cell_angle_alpha    101.68
_cell_angle_beta     101.68
_cell_angle_gamma    90

_space_group_name_H-M_alt    "P 1"
_space_group_IT_number       1

loop_
  _space_group_symop_operation_xyz
  'x, y, z'

loop_
  _atom_site_type_symbol
  _atom_site_label
  _atom_site_symmetry_multiplicity
  _atom_site_fract_x
  _atom_site_fract_y
  _atom_site_fract_z
  _atom_site_occupancy
  K   K1        1.0  0.19900  0.19900  0.39700  1.0000
  K   K2        1.0  0.80100  0.80100  0.60300  1.0000
  Mg  Mg1       1.0  0.50000  0.50000  0.00000  1.0000
  Mg  Mg2       1.0  0.57900  0.07920  0.15800  1.0000
  Mg  Mg3       1.0  0.07920  0.57900  0.15800  1.0000
  Mg  Mg4       1.0  0.92100  0.42100  0.84200  1.0000
  Mg  Mg5       1.0  0.42100  0.92100  0.84200  1.0000
  Sn  Sn1       1.0  0.00000  0.00000  0.00000  1.0000
  Sn  Sn2       1.0  0.64100  0.64100  0.28300  1.0000
  Sn  Sn3       1.0  0.35900  0.35900  0.71700  1.0000
