data_image0
_chemical_formula_structural       I2Mn2Sb2Se4
_chemical_formula_sum              "I2 Mn2 Sb2 Se4"
_cell_length_a       4.0571
_cell_length_b       7.00286
_cell_length_c       10.1544
_cell_angle_alpha    91.544
_cell_angle_beta     90
_cell_angle_gamma    106.838

_space_group_name_H-M_alt    "P 1"
_space_group_IT_number       1

loop_
  _space_group_symop_operation_xyz
  'x, y, z'

loop_
  _atom_site_type_symbol
  _atom_site_label
  _atom_site_symmetry_multiplicity
  _atom_site_fract_x
  _atom_site_fract_y
  _atom_site_fract_z
  _atom_site_occupancy
  I   I1        1.0  0.36600  0.73200  0.07450  1.0000
  I   I2        1.0  0.63400  0.26800  0.92500  1.0000
  Mn  Mn1       1.0  0.00000  0.00000  0.00000  1.0000
  Mn  Mn2       1.0  0.00000  0.00000  0.50000  1.0000
  Sb  Sb1       1.0  0.70800  0.41600  0.31600  1.0000
  Sb  Sb2       1.0  0.29200  0.58400  0.68400  1.0000
  Se  Se1       1.0  0.07290  0.14600  0.25900  1.0000
  Se  Se2       1.0  0.36400  0.72700  0.44400  1.0000
  Se  Se3       1.0  0.63600  0.27300  0.55600  1.0000
  Se  Se4       1.0  0.92700  0.85400  0.74100  1.0000
