data_image0
_chemical_formula_structural       Eu4In2Pt4
_chemical_formula_sum              "Eu4 In2 Pt4"
_cell_length_a       5.87926
_cell_length_b       5.87926
_cell_length_c       8.25968
_cell_angle_alpha    102.743
_cell_angle_beta     102.743
_cell_angle_gamma    59.0562

_space_group_name_H-M_alt    "P 1"
_space_group_IT_number       1

loop_
  _space_group_symop_operation_xyz
  'x, y, z'

loop_
  _atom_site_type_symbol
  _atom_site_label
  _atom_site_symmetry_multiplicity
  _atom_site_fract_x
  _atom_site_fract_y
  _atom_site_fract_z
  _atom_site_occupancy
  Eu  Eu1       1.0  0.49800  0.79700  0.14800  1.0000
  Eu  Eu2       1.0  0.20300  0.50200  0.35200  1.0000
  Eu  Eu3       1.0  0.79700  0.49800  0.64800  1.0000
  Eu  Eu4       1.0  0.50200  0.20300  0.85200  1.0000
  In  In1       1.0  0.84800  0.15200  0.25000  1.0000
  In  In2       1.0  0.15200  0.84800  0.75000  1.0000
  Pt  Pt1       1.0  0.99900  0.27500  0.00287  1.0000
  Pt  Pt2       1.0  0.72500  0.00084  0.49700  1.0000
  Pt  Pt3       1.0  0.27500  0.99900  0.50300  1.0000
  Pt  Pt4       1.0  0.00084  0.72500  0.99700  1.0000
