data_image0
_chemical_formula_structural       Fe2Pd4Se4
_chemical_formula_sum              "Fe2 Pd4 Se4"
_cell_length_a       5.08774
_cell_length_b       5.95433
_cell_length_c       6.61242
_cell_angle_alpha    116.759
_cell_angle_beta     112.626
_cell_angle_gamma    90

_space_group_name_H-M_alt    "P 1"
_space_group_IT_number       1

loop_
  _space_group_symop_operation_xyz
  'x, y, z'

loop_
  _atom_site_type_symbol
  _atom_site_label
  _atom_site_symmetry_multiplicity
  _atom_site_fract_x
  _atom_site_fract_y
  _atom_site_fract_z
  _atom_site_occupancy
  Fe  Fe1       1.0  0.25000  0.00000  0.00000  1.0000
  Fe  Fe2       1.0  0.75000  0.00000  0.00000  1.0000
  Pd  Pd1       1.0  0.11100  0.48900  0.22200  1.0000
  Pd  Pd2       1.0  0.61100  0.73300  0.22200  1.0000
  Pd  Pd3       1.0  0.38900  0.26700  0.77800  1.0000
  Pd  Pd4       1.0  0.88900  0.51100  0.77800  1.0000
  Se  Se1       1.0  0.64400  0.34700  0.28700  1.0000
  Se  Se2       1.0  0.14400  0.94000  0.28700  1.0000
  Se  Se3       1.0  0.85600  0.05980  0.71300  1.0000
  Se  Se4       1.0  0.35600  0.65300  0.71300  1.0000
