data_image0
_chemical_formula_structural       Cu4La4Mg2
_chemical_formula_sum              "Cu4 La4 Mg2"
_cell_length_a       7.87303
_cell_length_b       7.87303
_cell_length_c       3.93619
_cell_angle_alpha    90
_cell_angle_beta     90
_cell_angle_gamma    90

_space_group_name_H-M_alt    "P 1"
_space_group_IT_number       1

loop_
  _space_group_symop_operation_xyz
  'x, y, z'

loop_
  _atom_site_type_symbol
  _atom_site_label
  _atom_site_symmetry_multiplicity
  _atom_site_fract_x
  _atom_site_fract_y
  _atom_site_fract_z
  _atom_site_occupancy
  Cu  Cu1       1.0  0.62000  0.12000  0.00000  1.0000
  Cu  Cu2       1.0  0.12000  0.38000  0.00000  1.0000
  Cu  Cu3       1.0  0.88000  0.62000  0.00000  1.0000
  Cu  Cu4       1.0  0.38000  0.88000  0.00000  1.0000
  La  La1       1.0  0.32700  0.17300  0.50000  1.0000
  La  La2       1.0  0.82700  0.32700  0.50000  1.0000
  La  La3       1.0  0.17300  0.67300  0.50000  1.0000
  La  La4       1.0  0.67300  0.82700  0.50000  1.0000
  Mg  Mg1       1.0  0.00000  0.00000  0.00000  1.0000
  Mg  Mg2       1.0  0.50000  0.50000  0.00000  1.0000
