data_image0
_chemical_formula_structural       K4Te4Zn2
_chemical_formula_sum              "K4 Te4 Zn2"
_cell_length_a       7.0239
_cell_length_b       7.33222
_cell_length_c       8.69798
_cell_angle_alpha    114.929
_cell_angle_beta     113.814
_cell_angle_gamma    90

_space_group_name_H-M_alt    "P 1"
_space_group_IT_number       1

loop_
  _space_group_symop_operation_xyz
  'x, y, z'

loop_
  _atom_site_type_symbol
  _atom_site_label
  _atom_site_symmetry_multiplicity
  _atom_site_fract_x
  _atom_site_fract_y
  _atom_site_fract_z
  _atom_site_occupancy
  K   K1        1.0  0.14100  0.46000  0.28200  1.0000
  K   K2        1.0  0.64100  0.82200  0.28200  1.0000
  K   K3        1.0  0.35900  0.17800  0.71800  1.0000
  K   K4        1.0  0.85900  0.54000  0.71800  1.0000
  Te  Te1       1.0  0.60700  0.30200  0.21400  1.0000
  Te  Te2       1.0  0.10700  0.91300  0.21400  1.0000
  Te  Te3       1.0  0.89300  0.08750  0.78600  1.0000
  Te  Te4       1.0  0.39300  0.69800  0.78600  1.0000
  Zn  Zn1       1.0  0.25000  0.00000  0.00000  1.0000
  Zn  Zn2       1.0  0.75000  0.00000  0.00000  1.0000
