data_image0
_chemical_formula_structural       As4Cd2Eu4
_chemical_formula_sum              "As4 Cd2 Eu4"
_cell_length_a       4.40574
_cell_length_b       7.41718
_cell_length_c       8.60315
_cell_angle_alpha    90
_cell_angle_beta     75.164
_cell_angle_gamma    90

_space_group_name_H-M_alt    "P 1"
_space_group_IT_number       1

loop_
  _space_group_symop_operation_xyz
  'x, y, z'

loop_
  _atom_site_type_symbol
  _atom_site_label
  _atom_site_symmetry_multiplicity
  _atom_site_fract_x
  _atom_site_fract_y
  _atom_site_fract_z
  _atom_site_occupancy
  As  As1       1.0  0.93500  0.55500  0.12900  1.0000
  As  As2       1.0  0.32100  0.02220  0.35700  1.0000
  As  As3       1.0  0.67900  0.52200  0.64300  1.0000
  As  As4       1.0  0.06460  0.05520  0.87100  1.0000
  Cd  Cd1       1.0  0.90400  0.92500  0.19200  1.0000
  Cd  Cd2       1.0  0.09620  0.42500  0.80800  1.0000
  Eu  Eu1       1.0  0.46600  0.26400  0.06710  1.0000
  Eu  Eu2       1.0  0.29800  0.60900  0.40400  1.0000
  Eu  Eu3       1.0  0.70200  0.10900  0.59600  1.0000
  Eu  Eu4       1.0  0.53400  0.76400  0.93300  1.0000
