data_image0
_chemical_formula_structural       Ba2TmU
_chemical_formula_sum              "Ba2 Tm1 U1"
_cell_length_a       6.1878
_cell_length_b       6.1878
_cell_length_c       6.1878
_cell_angle_alpha    59.9196
_cell_angle_beta     59.9196
_cell_angle_gamma    59.9196

_space_group_name_H-M_alt    "P 1"
_space_group_IT_number       1

loop_
  _space_group_symop_operation_xyz
  'x, y, z'

loop_
  _atom_site_type_symbol
  _atom_site_label
  _atom_site_symmetry_multiplicity
  _atom_site_fract_x
  _atom_site_fract_y
  _atom_site_fract_z
  _atom_site_occupancy
  Ba  Ba1       1.0  0.00003  0.00003  0.00003  1.0000
  Ba  Ba2       1.0  0.50000  0.50000  0.50000  1.0000
  Tm  Tm1       1.0  0.25000  0.25000  0.25000  1.0000
  U   U1        1.0  0.75000  0.75000  0.75000  1.0000
