data_image0
_chemical_formula_structural       As2C2V6
_chemical_formula_sum              "As2 C2 V6"
_cell_length_a       3.11244
_cell_length_b       5.28938
_cell_length_c       7.69574
_cell_angle_alpha    90
_cell_angle_beta     90
_cell_angle_gamma    72.8895

_space_group_name_H-M_alt    "P 1"
_space_group_IT_number       1

loop_
  _space_group_symop_operation_xyz
  'x, y, z'

loop_
  _atom_site_type_symbol
  _atom_site_label
  _atom_site_symmetry_multiplicity
  _atom_site_fract_x
  _atom_site_fract_y
  _atom_site_fract_z
  _atom_site_occupancy
  As  As1       1.0  0.74200  0.51500  0.25000  1.0000
  As  As2       1.0  0.25800  0.48500  0.75000  1.0000
  C   C1        1.0  0.00000  0.00000  0.00000  1.0000
  C   C2        1.0  0.00000  0.00000  0.50000  1.0000
  V   V1        1.0  0.37400  0.25300  0.05040  1.0000
  V   V2        1.0  0.04450  0.91100  0.25000  1.0000
  V   V3        1.0  0.37400  0.25300  0.45000  1.0000
  V   V4        1.0  0.62600  0.74700  0.55000  1.0000
  V   V5        1.0  0.95600  0.08900  0.75000  1.0000
  V   V6        1.0  0.62600  0.74700  0.95000  1.0000
