data_image0
_chemical_formula_structural       Bi4Pd4Sr2
_chemical_formula_sum              "Bi4 Pd4 Sr2"
_cell_length_a       4.939
_cell_length_b       4.8144
_cell_length_c       10.8366
_cell_angle_alpha    90
_cell_angle_beta     92.0185
_cell_angle_gamma    90

_space_group_name_H-M_alt    "P 1"
_space_group_IT_number       1

loop_
  _space_group_symop_operation_xyz
  'x, y, z'

loop_
  _atom_site_type_symbol
  _atom_site_label
  _atom_site_symmetry_multiplicity
  _atom_site_fract_x
  _atom_site_fract_y
  _atom_site_fract_z
  _atom_site_occupancy
  Bi  Bi1       1.0  0.20700  0.25000  0.12000  1.0000
  Bi  Bi2       1.0  0.75000  0.25000  0.49700  1.0000
  Bi  Bi3       1.0  0.25000  0.75000  0.50300  1.0000
  Bi  Bi4       1.0  0.79300  0.75000  0.88000  1.0000
  Pd  Pd1       1.0  0.30900  0.75000  0.00000  1.0000
  Pd  Pd2       1.0  0.69100  0.25000  0.00019  1.0000
  Pd  Pd3       1.0  0.24300  0.25000  0.37000  1.0000
  Pd  Pd4       1.0  0.75700  0.75000  0.63000  1.0000
  Sr  Sr1       1.0  0.74000  0.75000  0.23800  1.0000
  Sr  Sr2       1.0  0.26000  0.25000  0.76200  1.0000
