data_image0
_chemical_formula_structural       As4Ni2Tb4
_chemical_formula_sum              "As4 Ni2 Tb4"
_cell_length_a       4.11454
_cell_length_b       4.11464
_cell_length_c       14.3112
_cell_angle_alpha    90
_cell_angle_beta     90
_cell_angle_gamma    119.999

_space_group_name_H-M_alt    "P 1"
_space_group_IT_number       1

loop_
  _space_group_symop_operation_xyz
  'x, y, z'

loop_
  _atom_site_type_symbol
  _atom_site_label
  _atom_site_symmetry_multiplicity
  _atom_site_fract_x
  _atom_site_fract_y
  _atom_site_fract_z
  _atom_site_occupancy
  As  As1       1.0  0.00000  0.00000  0.00000  1.0000
  As  As2       1.0  0.66700  0.33300  0.25000  1.0000
  As  As3       1.0  0.00000  0.00000  0.50000  1.0000
  As  As4       1.0  0.33300  0.66700  0.75000  1.0000
  Ni  Ni1       1.0  0.00001  0.00001  0.25000  1.0000
  Ni  Ni2       1.0  0.00000  0.00000  0.75000  1.0000
  Tb  Tb1       1.0  0.33300  0.66700  0.11700  1.0000
  Tb  Tb2       1.0  0.33300  0.66700  0.38300  1.0000
  Tb  Tb3       1.0  0.66700  0.33300  0.61700  1.0000
  Tb  Tb4       1.0  0.66700  0.33300  0.88300  1.0000
