data_image0
_chemical_formula_structural       As4Cd2Sr4
_chemical_formula_sum              "As4 Cd2 Sr4"
_cell_length_a       4.4848
_cell_length_b       7.64116
_cell_length_c       8.80573
_cell_angle_alpha    90
_cell_angle_beta     75.247
_cell_angle_gamma    90

_space_group_name_H-M_alt    "P 1"
_space_group_IT_number       1

loop_
  _space_group_symop_operation_xyz
  'x, y, z'

loop_
  _atom_site_type_symbol
  _atom_site_label
  _atom_site_symmetry_multiplicity
  _atom_site_fract_x
  _atom_site_fract_y
  _atom_site_fract_z
  _atom_site_occupancy
  As  As1       1.0  0.93700  0.55800  0.12600  1.0000
  As  As2       1.0  0.32500  0.01430  0.35100  1.0000
  As  As3       1.0  0.67500  0.51400  0.64900  1.0000
  As  As4       1.0  0.06310  0.05840  0.87400  1.0000
  Cd  Cd1       1.0  0.90400  0.92200  0.19100  1.0000
  Cd  Cd2       1.0  0.09570  0.42200  0.80900  1.0000
  Sr  Sr1       1.0  0.46600  0.26500  0.06810  1.0000
  Sr  Sr2       1.0  0.29700  0.60500  0.40600  1.0000
  Sr  Sr3       1.0  0.70300  0.10500  0.59400  1.0000
  Sr  Sr4       1.0  0.53400  0.76500  0.93200  1.0000
