data_image0
_chemical_formula_structural       Ni2Pd4Te4
_chemical_formula_sum              "Ni2 Pd4 Te4"
_cell_length_a       5.18158
_cell_length_b       6.35939
_cell_length_c       7.02655
_cell_angle_alpha    116.906
_cell_angle_beta     111.636
_cell_angle_gamma    90

_space_group_name_H-M_alt    "P 1"
_space_group_IT_number       1

loop_
  _space_group_symop_operation_xyz
  'x, y, z'

loop_
  _atom_site_type_symbol
  _atom_site_label
  _atom_site_symmetry_multiplicity
  _atom_site_fract_x
  _atom_site_fract_y
  _atom_site_fract_z
  _atom_site_occupancy
  Ni  Ni1       1.0  0.25000  0.00000  0.00000  1.0000
  Ni  Ni2       1.0  0.75000  0.00000  0.00000  1.0000
  Pd  Pd1       1.0  0.60400  0.47000  0.20900  1.0000
  Pd  Pd2       1.0  0.10400  0.73900  0.20900  1.0000
  Pd  Pd3       1.0  0.89600  0.26100  0.79100  1.0000
  Pd  Pd4       1.0  0.39600  0.53000  0.79100  1.0000
  Te  Te1       1.0  0.14700  0.36700  0.29300  1.0000
  Te  Te2       1.0  0.64700  0.92600  0.29300  1.0000
  Te  Te3       1.0  0.35300  0.07410  0.70700  1.0000
  Te  Te4       1.0  0.85300  0.63300  0.70700  1.0000
