data_image0
_chemical_formula_structural       Ga2Ge2N2Sr4
_chemical_formula_sum              "Ga2 Ge2 N2 Sr4"
_cell_length_a       6.93712
_cell_length_b       4.08031
_cell_length_c       8.73242
_cell_angle_alpha    90
_cell_angle_beta     108.416
_cell_angle_gamma    90

_space_group_name_H-M_alt    "P 1"
_space_group_IT_number       1

loop_
  _space_group_symop_operation_xyz
  'x, y, z'

loop_
  _atom_site_type_symbol
  _atom_site_label
  _atom_site_symmetry_multiplicity
  _atom_site_fract_x
  _atom_site_fract_y
  _atom_site_fract_z
  _atom_site_occupancy
  Ga  Ga1       1.0  0.46400  0.25000  0.24800  1.0000
  Ga  Ga2       1.0  0.53600  0.75000  0.75200  1.0000
  Ge  Ge1       1.0  0.67700  0.75000  0.30000  1.0000
  Ge  Ge2       1.0  0.32300  0.25000  0.70000  1.0000
  N   N1        1.0  0.17600  0.25000  0.17100  1.0000
  N   N2        1.0  0.82400  0.75000  0.82900  1.0000
  Sr  Sr1       1.0  0.79800  0.25000  0.03400  1.0000
  Sr  Sr2       1.0  0.18500  0.75000  0.37800  1.0000
  Sr  Sr3       1.0  0.81500  0.25000  0.62200  1.0000
  Sr  Sr4       1.0  0.20200  0.75000  0.96600  1.0000
