data_image0
_chemical_formula_structural       Br4Mo2O4
_chemical_formula_sum              "Br4 Mo2 O4"
_cell_length_a       3.93866
_cell_length_b       7.71944
_cell_length_c       7.85817
_cell_angle_alpha    103.951
_cell_angle_beta     104.514
_cell_angle_gamma    90

_space_group_name_H-M_alt    "P 1"
_space_group_IT_number       1

loop_
  _space_group_symop_operation_xyz
  'x, y, z'

loop_
  _atom_site_type_symbol
  _atom_site_label
  _atom_site_symmetry_multiplicity
  _atom_site_fract_x
  _atom_site_fract_y
  _atom_site_fract_z
  _atom_site_occupancy
  Br  Br1       1.0  0.14100  0.03470  0.33000  1.0000
  Br  Br2       1.0  0.18800  0.53500  0.33000  1.0000
  Br  Br3       1.0  0.86000  0.37200  0.67200  1.0000
  Br  Br4       1.0  0.81200  0.87200  0.67200  1.0000
  Mo  Mo1       1.0  0.06460  0.99600  0.00093  1.0000
  Mo  Mo2       1.0  0.93600  0.49600  0.00093  1.0000
  O   O1        1.0  0.00924  0.22400  0.00066  1.0000
  O   O2        1.0  0.99100  0.72400  0.00066  1.0000
  O   O3        1.0  0.50700  0.97800  0.00118  1.0000
  O   O4        1.0  0.49400  0.47800  0.00118  1.0000
