data_image0
_chemical_formula_structural       C2P2V6
_chemical_formula_sum              "C2 P2 V6"
_cell_length_a       3.11296
_cell_length_b       5.06418
_cell_length_c       7.52376
_cell_angle_alpha    90
_cell_angle_beta     90
_cell_angle_gamma    72.1003

_space_group_name_H-M_alt    "P 1"
_space_group_IT_number       1

loop_
  _space_group_symop_operation_xyz
  'x, y, z'

loop_
  _atom_site_type_symbol
  _atom_site_label
  _atom_site_symmetry_multiplicity
  _atom_site_fract_x
  _atom_site_fract_y
  _atom_site_fract_z
  _atom_site_occupancy
  C   C1        1.0  0.00000  0.00000  0.00000  1.0000
  C   C2        1.0  0.00000  0.00000  0.50000  1.0000
  P   P1        1.0  0.74800  0.50500  0.25000  1.0000
  P   P2        1.0  0.25200  0.49500  0.75000  1.0000
  V   V1        1.0  0.36500  0.26900  0.05430  1.0000
  V   V2        1.0  0.06490  0.87000  0.25000  1.0000
  V   V3        1.0  0.36500  0.26900  0.44600  1.0000
  V   V4        1.0  0.63500  0.73100  0.55400  1.0000
  V   V5        1.0  0.93500  0.13000  0.75000  1.0000
  V   V6        1.0  0.63500  0.73100  0.94600  1.0000
