data_image0
_chemical_formula_structural       Ir4Si4Tb2
_chemical_formula_sum              "Ir4 Si4 Tb2"
_cell_length_a       4.1399
_cell_length_b       4.1399
_cell_length_c       9.86115
_cell_angle_alpha    90
_cell_angle_beta     90
_cell_angle_gamma    90

_space_group_name_H-M_alt    "P 1"
_space_group_IT_number       1

loop_
  _space_group_symop_operation_xyz
  'x, y, z'

loop_
  _atom_site_type_symbol
  _atom_site_label
  _atom_site_symmetry_multiplicity
  _atom_site_fract_x
  _atom_site_fract_y
  _atom_site_fract_z
  _atom_site_occupancy
  Ir  Ir1       1.0  0.75000  0.25000  0.00000  1.0000
  Ir  Ir2       1.0  0.25000  0.75000  0.00000  1.0000
  Ir  Ir3       1.0  0.25000  0.25000  0.37200  1.0000
  Ir  Ir4       1.0  0.75000  0.75000  0.62800  1.0000
  Si  Si1       1.0  0.25000  0.25000  0.13100  1.0000
  Si  Si2       1.0  0.75000  0.25000  0.50000  1.0000
  Si  Si3       1.0  0.25000  0.75000  0.50000  1.0000
  Si  Si4       1.0  0.75000  0.75000  0.86900  1.0000
  Tb  Tb1       1.0  0.75000  0.75000  0.25400  1.0000
  Tb  Tb2       1.0  0.25000  0.25000  0.74600  1.0000
