data_image0
_chemical_formula_structural       Pt4Sn2U4
_chemical_formula_sum              "Pt4 Sn2 U4"
_cell_length_a       7.66209
_cell_length_b       7.66209
_cell_length_c       3.74963
_cell_angle_alpha    90
_cell_angle_beta     90
_cell_angle_gamma    90

_space_group_name_H-M_alt    "P 1"
_space_group_IT_number       1

loop_
  _space_group_symop_operation_xyz
  'x, y, z'

loop_
  _atom_site_type_symbol
  _atom_site_label
  _atom_site_symmetry_multiplicity
  _atom_site_fract_x
  _atom_site_fract_y
  _atom_site_fract_z
  _atom_site_occupancy
  Pt  Pt1       1.0  0.33100  0.16900  0.00000  1.0000
  Pt  Pt2       1.0  0.83100  0.33100  0.00000  1.0000
  Pt  Pt3       1.0  0.16900  0.66900  0.00000  1.0000
  Pt  Pt4       1.0  0.66900  0.83100  0.00000  1.0000
  Sn  Sn1       1.0  0.00000  0.00000  0.00000  1.0000
  Sn  Sn2       1.0  0.50000  0.50000  0.00000  1.0000
  U   U1        1.0  0.63200  0.13200  0.50000  1.0000
  U   U2        1.0  0.13200  0.36800  0.50000  1.0000
  U   U3        1.0  0.86800  0.63200  0.50000  1.0000
  U   U4        1.0  0.36800  0.86800  0.50000  1.0000
