data_image0
_chemical_formula_structural       B6Cr4
_chemical_formula_sum              "B6 Cr4"
_cell_length_a       2.94452
_cell_length_b       2.93271
_cell_length_c       9.18738
_cell_angle_alpha    80.816
_cell_angle_beta     90
_cell_angle_gamma    90

_space_group_name_H-M_alt    "P 1"
_space_group_IT_number       1

loop_
  _space_group_symop_operation_xyz
  'x, y, z'

loop_
  _atom_site_type_symbol
  _atom_site_label
  _atom_site_symmetry_multiplicity
  _atom_site_fract_x
  _atom_site_fract_y
  _atom_site_fract_z
  _atom_site_occupancy
  B   B1        1.0  0.25000  0.97600  0.04720  1.0000
  B   B2        1.0  0.25000  0.88100  0.23800  1.0000
  B   B3        1.0  0.75000  0.82700  0.34500  1.0000
  B   B4        1.0  0.25000  0.17300  0.65500  1.0000
  B   B5        1.0  0.75000  0.11900  0.76200  1.0000
  B   B6        1.0  0.75000  0.02360  0.95300  1.0000
  Cr  Cr1       1.0  0.75000  0.42800  0.14400  1.0000
  Cr  Cr2       1.0  0.25000  0.29700  0.40600  1.0000
  Cr  Cr3       1.0  0.75000  0.70300  0.59400  1.0000
  Cr  Cr4       1.0  0.25000  0.57200  0.85600  1.0000
