data_image0
_chemical_formula_structural       C2Cr6P2
_chemical_formula_sum              "C2 Cr6 P2"
_cell_length_a       2.95202
_cell_length_b       5.13207
_cell_length_c       7.28442
_cell_angle_alpha    90
_cell_angle_beta     90
_cell_angle_gamma    73.2854

_space_group_name_H-M_alt    "P 1"
_space_group_IT_number       1

loop_
  _space_group_symop_operation_xyz
  'x, y, z'

loop_
  _atom_site_type_symbol
  _atom_site_label
  _atom_site_symmetry_multiplicity
  _atom_site_fract_x
  _atom_site_fract_y
  _atom_site_fract_z
  _atom_site_occupancy
  C   C1        1.0  0.00000  0.00000  0.00000  1.0000
  C   C2        1.0  0.00000  0.00000  0.50000  1.0000
  Cr  Cr1       1.0  0.37100  0.25800  0.05630  1.0000
  Cr  Cr2       1.0  0.05600  0.88800  0.25000  1.0000
  Cr  Cr3       1.0  0.37100  0.25800  0.44400  1.0000
  Cr  Cr4       1.0  0.62900  0.74200  0.55600  1.0000
  Cr  Cr5       1.0  0.94400  0.11200  0.75000  1.0000
  Cr  Cr6       1.0  0.62900  0.74200  0.94400  1.0000
  P   P1        1.0  0.74100  0.51700  0.25000  1.0000
  P   P2        1.0  0.25900  0.48300  0.75000  1.0000
