data_image0
_chemical_formula_structural       B4Os4Th2
_chemical_formula_sum              "B4 Os4 Th2"
_cell_length_a       5.62413
_cell_length_b       5.62413
_cell_length_c       6.05144
_cell_angle_alpha    108.682
_cell_angle_beta     108.682
_cell_angle_gamma    108.102

_space_group_name_H-M_alt    "P 1"
_space_group_IT_number       1

loop_
  _space_group_symop_operation_xyz
  'x, y, z'

loop_
  _atom_site_type_symbol
  _atom_site_label
  _atom_site_symmetry_multiplicity
  _atom_site_fract_x
  _atom_site_fract_y
  _atom_site_fract_z
  _atom_site_occupancy
  B   B1        1.0  0.68400  0.31600  0.00000  1.0000
  B   B2        1.0  0.31600  0.68400  0.00000  1.0000
  B   B3        1.0  0.93400  0.06590  0.50000  1.0000
  B   B4        1.0  0.56600  0.43400  0.50000  1.0000
  Os  Os1       1.0  0.61300  0.11300  0.22600  1.0000
  Os  Os2       1.0  0.63700  0.63700  0.27500  1.0000
  Os  Os3       1.0  0.36300  0.36300  0.72500  1.0000
  Os  Os4       1.0  0.88700  0.38700  0.77400  1.0000
  Th  Th1       1.0  0.00000  0.00000  0.00000  1.0000
  Th  Th2       1.0  0.25000  0.75000  0.50000  1.0000
