data_image0
_chemical_formula_structural       B4Ru4Th2
_chemical_formula_sum              "B4 Ru4 Th2"
_cell_length_a       5.58282
_cell_length_b       5.58282
_cell_length_c       6.03436
_cell_angle_alpha    108.5
_cell_angle_beta     108.5
_cell_angle_gamma    108.304

_space_group_name_H-M_alt    "P 1"
_space_group_IT_number       1

loop_
  _space_group_symop_operation_xyz
  'x, y, z'

loop_
  _atom_site_type_symbol
  _atom_site_label
  _atom_site_symmetry_multiplicity
  _atom_site_fract_x
  _atom_site_fract_y
  _atom_site_fract_z
  _atom_site_occupancy
  B   B1        1.0  0.68300  0.31700  0.00000  1.0000
  B   B2        1.0  0.31700  0.68300  0.00000  1.0000
  B   B3        1.0  0.93300  0.06710  0.50000  1.0000
  B   B4        1.0  0.56700  0.43300  0.50000  1.0000
  Ru  Ru1       1.0  0.61300  0.11300  0.22600  1.0000
  Ru  Ru2       1.0  0.63700  0.63700  0.27400  1.0000
  Ru  Ru3       1.0  0.36300  0.36300  0.72600  1.0000
  Ru  Ru4       1.0  0.88700  0.38700  0.77400  1.0000
  Th  Th1       1.0  0.00000  0.00000  0.00000  1.0000
  Th  Th2       1.0  0.25000  0.75000  0.50000  1.0000
