data_image0
_chemical_formula_structural       Ba2Cu2S5U
_chemical_formula_sum              "Ba2 Cu2 S5 U1"
_cell_length_a       4.07634
_cell_length_b       7.13825
_cell_length_c       9.07299
_cell_angle_alpha    102.969
_cell_angle_beta     102.982
_cell_angle_gamma    106.59

_space_group_name_H-M_alt    "P 1"
_space_group_IT_number       1

loop_
  _space_group_symop_operation_xyz
  'x, y, z'

loop_
  _atom_site_type_symbol
  _atom_site_label
  _atom_site_symmetry_multiplicity
  _atom_site_fract_x
  _atom_site_fract_y
  _atom_site_fract_z
  _atom_site_occupancy
  Ba  Ba1       1.0  0.47500  0.65200  0.29900  1.0000
  Ba  Ba2       1.0  0.52500  0.34800  0.70100  1.0000
  Cu  Cu1       1.0  0.74300  0.18900  0.29700  1.0000
  Cu  Cu2       1.0  0.25700  0.81100  0.70300  1.0000
  S   S1        1.0  0.67400  0.28500  0.06350  1.0000
  S   S2        1.0  0.16200  0.01740  0.30600  1.0000
  S   S3        1.0  0.00000  0.50000  0.50000  1.0000
  S   S4        1.0  0.83800  0.98300  0.69400  1.0000
  S   S5        1.0  0.32600  0.71500  0.93600  1.0000
  U   U1        1.0  0.00000  0.00000  0.00000  1.0000
