data_image0
_chemical_formula_structural       B4Mo4Ta2
_chemical_formula_sum              "B4 Mo4 Ta2"
_cell_length_a       6.11889
_cell_length_b       6.11889
_cell_length_c       3.18262
_cell_angle_alpha    90
_cell_angle_beta     90
_cell_angle_gamma    90

_space_group_name_H-M_alt    "P 1"
_space_group_IT_number       1

loop_
  _space_group_symop_operation_xyz
  'x, y, z'

loop_
  _atom_site_type_symbol
  _atom_site_label
  _atom_site_symmetry_multiplicity
  _atom_site_fract_x
  _atom_site_fract_y
  _atom_site_fract_z
  _atom_site_occupancy
  B   B1        1.0  0.61000  0.11000  0.00000  1.0000
  B   B2        1.0  0.11000  0.39000  0.00000  1.0000
  B   B3        1.0  0.89000  0.61000  0.00000  1.0000
  B   B4        1.0  0.39000  0.89000  0.00000  1.0000
  Mo  Mo1       1.0  0.32600  0.17400  0.50000  1.0000
  Mo  Mo2       1.0  0.82600  0.32600  0.50000  1.0000
  Mo  Mo3       1.0  0.17400  0.67400  0.50000  1.0000
  Mo  Mo4       1.0  0.67400  0.82600  0.50000  1.0000
  Ta  Ta1       1.0  0.00000  0.00000  0.00000  1.0000
  Ta  Ta2       1.0  0.50000  0.50000  0.00000  1.0000
