data_image0
_chemical_formula_structural       Eu4In2Pd4
_chemical_formula_sum              "Eu4 In2 Pd4"
_cell_length_a       5.8151
_cell_length_b       5.92484
_cell_length_c       8.25316
_cell_angle_alpha    103.147
_cell_angle_beta     90
_cell_angle_gamma    119.389

_space_group_name_H-M_alt    "P 1"
_space_group_IT_number       1

loop_
  _space_group_symop_operation_xyz
  'x, y, z'

loop_
  _atom_site_type_symbol
  _atom_site_label
  _atom_site_symmetry_multiplicity
  _atom_site_fract_x
  _atom_site_fract_y
  _atom_site_fract_z
  _atom_site_occupancy
  Eu  Eu1       1.0  0.79300  0.29600  0.14700  1.0000
  Eu  Eu2       1.0  0.49800  0.70400  0.35300  1.0000
  Eu  Eu3       1.0  0.50200  0.29600  0.64700  1.0000
  Eu  Eu4       1.0  0.20700  0.70400  0.85300  1.0000
  In  In1       1.0  0.15000  0.00000  0.25000  1.0000
  In  In2       1.0  0.85000  0.00000  0.75000  1.0000
  Pd  Pd1       1.0  0.27300  0.27000  0.00407  1.0000
  Pd  Pd2       1.0  0.00242  0.73000  0.49600  1.0000
  Pd  Pd3       1.0  0.99800  0.27000  0.50400  1.0000
  Pd  Pd4       1.0  0.72700  0.73000  0.99600  1.0000
