data_image0
_chemical_formula_structural       Bi2I2Mn2Se4
_chemical_formula_sum              "Bi2 I2 Mn2 Se4"
_cell_length_a       4.13606
_cell_length_b       7.05626
_cell_length_c       10.1276
_cell_angle_alpha    91.6103
_cell_angle_beta     90
_cell_angle_gamma    107.042

_space_group_name_H-M_alt    "P 1"
_space_group_IT_number       1

loop_
  _space_group_symop_operation_xyz
  'x, y, z'

loop_
  _atom_site_type_symbol
  _atom_site_label
  _atom_site_symmetry_multiplicity
  _atom_site_fract_x
  _atom_site_fract_y
  _atom_site_fract_z
  _atom_site_occupancy
  Bi  Bi1       1.0  0.78900  0.57800  0.19000  1.0000
  Bi  Bi2       1.0  0.21100  0.42200  0.81000  1.0000
  I   I1        1.0  0.13500  0.27000  0.43000  1.0000
  I   I2        1.0  0.86500  0.73000  0.57000  1.0000
  Mn  Mn1       1.0  0.50000  0.00000  0.00000  1.0000
  Mn  Mn2       1.0  0.50000  0.00000  0.50000  1.0000
  Se  Se1       1.0  0.13400  0.26900  0.05800  1.0000
  Se  Se2       1.0  0.43000  0.86000  0.24300  1.0000
  Se  Se3       1.0  0.57000  0.14000  0.75700  1.0000
  Se  Se4       1.0  0.86600  0.73100  0.94200  1.0000
