data_image0
_chemical_formula_structural       B4Ir4Sm2
_chemical_formula_sum              "B4 Ir4 Sm2"
_cell_length_a       5.5516
_cell_length_b       5.5516
_cell_length_c       6.15529
_cell_angle_alpha    105.117
_cell_angle_beta     105.117
_cell_angle_gamma    114.942

_space_group_name_H-M_alt    "P 1"
_space_group_IT_number       1

loop_
  _space_group_symop_operation_xyz
  'x, y, z'

loop_
  _atom_site_type_symbol
  _atom_site_label
  _atom_site_symmetry_multiplicity
  _atom_site_fract_x
  _atom_site_fract_y
  _atom_site_fract_z
  _atom_site_occupancy
  B   B1        1.0  0.68000  0.32000  0.00000  1.0000
  B   B2        1.0  0.32000  0.68000  0.00000  1.0000
  B   B3        1.0  0.43000  0.57000  0.50000  1.0000
  B   B4        1.0  0.06980  0.93000  0.50000  1.0000
  Ir  Ir1       1.0  0.12100  0.62100  0.24300  1.0000
  Ir  Ir2       1.0  0.62900  0.62900  0.25700  1.0000
  Ir  Ir3       1.0  0.37100  0.37100  0.74300  1.0000
  Ir  Ir4       1.0  0.37900  0.87900  0.75700  1.0000
  Sm  Sm1       1.0  0.00000  0.00000  0.00000  1.0000
  Sm  Sm2       1.0  0.75000  0.25000  0.50000  1.0000
