data_image0
_chemical_formula_structural       Ca4Fe2N4
_chemical_formula_sum              "Ca4 Fe2 N4"
_cell_length_a       4.93179
_cell_length_b       5.92839
_cell_length_c       6.50595
_cell_angle_alpha    96.5077
_cell_angle_beta     112.273
_cell_angle_gamma    114.579

_space_group_name_H-M_alt    "P 1"
_space_group_IT_number       1

loop_
  _space_group_symop_operation_xyz
  'x, y, z'

loop_
  _atom_site_type_symbol
  _atom_site_label
  _atom_site_symmetry_multiplicity
  _atom_site_fract_x
  _atom_site_fract_y
  _atom_site_fract_z
  _atom_site_occupancy
  Ca  Ca1       1.0  0.26500  0.30600  0.22400  1.0000
  Ca  Ca2       1.0  0.07760  0.75800  0.39700  1.0000
  Ca  Ca3       1.0  0.92200  0.24200  0.60300  1.0000
  Ca  Ca4       1.0  0.73500  0.69400  0.77600  1.0000
  Fe  Fe1       1.0  0.50200  0.87500  0.13000  1.0000
  Fe  Fe2       1.0  0.49800  0.12500  0.87000  1.0000
  N   N1        1.0  0.71700  0.23700  0.19700  1.0000
  N   N2        1.0  0.57100  0.76100  0.38100  1.0000
  N   N3        1.0  0.42900  0.23900  0.61900  1.0000
  N   N4        1.0  0.28300  0.76300  0.80300  1.0000
