data_image0
_chemical_formula_structural       AuGd3O6
_chemical_formula_sum              "Au1 Gd3 O6"
_cell_length_a       3.64711
_cell_length_b       5.58315
_cell_length_c       7.02848
_cell_angle_alpha    90.3894
_cell_angle_beta     103.012
_cell_angle_gamma    91.1464

_space_group_name_H-M_alt    "P 1"
_space_group_IT_number       1

loop_
  _space_group_symop_operation_xyz
  'x, y, z'

loop_
  _atom_site_type_symbol
  _atom_site_label
  _atom_site_symmetry_multiplicity
  _atom_site_fract_x
  _atom_site_fract_y
  _atom_site_fract_z
  _atom_site_occupancy
  Au  Au1       1.0  0.00000  0.00000  0.00000  1.0000
  Gd  Gd1       1.0  0.38800  0.47100  0.23600  1.0000
  Gd  Gd2       1.0  0.00000  0.00000  0.50000  1.0000
  Gd  Gd3       1.0  0.61200  0.52900  0.76400  1.0000
  O   O1        1.0  0.83900  0.69200  0.11400  1.0000
  O   O2        1.0  0.86900  0.20800  0.21000  1.0000
  O   O3        1.0  0.48200  0.74500  0.47600  1.0000
  O   O4        1.0  0.51800  0.25500  0.52400  1.0000
  O   O5        1.0  0.13100  0.79200  0.79000  1.0000
  O   O6        1.0  0.16100  0.30800  0.88600  1.0000
