data_image0
_chemical_formula_structural       Hg2P2S6
_chemical_formula_sum              "Hg2 P2 S6"
_cell_length_a       6.3478
_cell_length_b       6.33097
_cell_length_c       7.38111
_cell_angle_alpha    95.7841
_cell_angle_beta     106.18
_cell_angle_gamma    119

_space_group_name_H-M_alt    "P 1"
_space_group_IT_number       1

loop_
  _space_group_symop_operation_xyz
  'x, y, z'

loop_
  _atom_site_type_symbol
  _atom_site_label
  _atom_site_symmetry_multiplicity
  _atom_site_fract_x
  _atom_site_fract_y
  _atom_site_fract_z
  _atom_site_occupancy
  Hg  Hg1       1.0  0.12300  0.75100  0.34200  1.0000
  Hg  Hg2       1.0  0.87700  0.24900  0.65800  1.0000
  P   P1        1.0  0.45600  0.43900  0.33500  1.0000
  P   P2        1.0  0.54400  0.56100  0.66500  1.0000
  S   S1        1.0  0.08450  0.33800  0.19300  1.0000
  S   S2        1.0  0.70900  0.74200  0.26600  1.0000
  S   S3        1.0  0.50600  0.14300  0.28900  1.0000
  S   S4        1.0  0.49400  0.85700  0.71100  1.0000
  S   S5        1.0  0.29100  0.25800  0.73400  1.0000
  S   S6        1.0  0.91600  0.66200  0.80700  1.0000
