data_image0
_chemical_formula_structural       Ba4Br4O2
_chemical_formula_sum              "Ba4 Br4 O2"
_cell_length_a       6.66173
_cell_length_b       7.3274
_cell_length_c       8.22309
_cell_angle_alpha    116.458
_cell_angle_beta     113.895
_cell_angle_gamma    90

_space_group_name_H-M_alt    "P 1"
_space_group_IT_number       1

loop_
  _space_group_symop_operation_xyz
  'x, y, z'

loop_
  _atom_site_type_symbol
  _atom_site_label
  _atom_site_symmetry_multiplicity
  _atom_site_fract_x
  _atom_site_fract_y
  _atom_site_fract_z
  _atom_site_occupancy
  Ba  Ba1       1.0  0.09900  0.28800  0.19800  1.0000
  Ba  Ba2       1.0  0.59900  0.91000  0.19800  1.0000
  Ba  Ba3       1.0  0.40100  0.09010  0.80200  1.0000
  Ba  Ba4       1.0  0.90100  0.71200  0.80200  1.0000
  Br  Br1       1.0  0.64700  0.49600  0.29500  1.0000
  Br  Br2       1.0  0.14700  0.79800  0.29500  1.0000
  Br  Br3       1.0  0.85300  0.20200  0.70500  1.0000
  Br  Br4       1.0  0.35300  0.50400  0.70500  1.0000
  O   O1        1.0  0.25000  0.00000  0.00000  1.0000
  O   O2        1.0  0.75000  0.00000  0.00000  1.0000
