data_image0
_chemical_formula_structural       Ca4In2Pt4
_chemical_formula_sum              "Ca4 In2 Pt4"
_cell_length_a       5.69944
_cell_length_b       5.82412
_cell_length_c       8.19353
_cell_angle_alpha    102.761
_cell_angle_beta     90
_cell_angle_gamma    119.294

_space_group_name_H-M_alt    "P 1"
_space_group_IT_number       1

loop_
  _space_group_symop_operation_xyz
  'x, y, z'

loop_
  _atom_site_type_symbol
  _atom_site_label
  _atom_site_symmetry_multiplicity
  _atom_site_fract_x
  _atom_site_fract_y
  _atom_site_fract_z
  _atom_site_occupancy
  Ca  Ca1       1.0  0.79500  0.29800  0.14900  1.0000
  Ca  Ca2       1.0  0.49800  0.70200  0.35100  1.0000
  Ca  Ca3       1.0  0.50200  0.29800  0.64900  1.0000
  Ca  Ca4       1.0  0.20500  0.70200  0.85100  1.0000
  In  In1       1.0  0.15300  0.00000  0.25000  1.0000
  In  In2       1.0  0.84700  0.00000  0.75000  1.0000
  Pt  Pt1       1.0  0.27600  0.27300  0.00354  1.0000
  Pt  Pt2       1.0  0.00296  0.72700  0.49600  1.0000
  Pt  Pt3       1.0  0.99700  0.27300  0.50400  1.0000
  Pt  Pt4       1.0  0.72400  0.72700  0.99600  1.0000
