data_image0
_chemical_formula_structural       Br2O4U2
_chemical_formula_sum              "Br2 O4 U2"
_cell_length_a       4.00814
_cell_length_b       4.17202
_cell_length_c       10.3731
_cell_angle_alpha    78.3989
_cell_angle_beta     90
_cell_angle_gamma    90

_space_group_name_H-M_alt    "P 1"
_space_group_IT_number       1

loop_
  _space_group_symop_operation_xyz
  'x, y, z'

loop_
  _atom_site_type_symbol
  _atom_site_label
  _atom_site_symmetry_multiplicity
  _atom_site_fract_x
  _atom_site_fract_y
  _atom_site_fract_z
  _atom_site_occupancy
  Br  Br1       1.0  0.75000  0.81400  0.37300  1.0000
  Br  Br2       1.0  0.25000  0.18600  0.62700  1.0000
  O   O1        1.0  0.75000  0.96400  0.07210  1.0000
  O   O2        1.0  0.25000  0.41900  0.16300  1.0000
  O   O3        1.0  0.75000  0.58100  0.83700  1.0000
  O   O4        1.0  0.25000  0.03600  0.92800  1.0000
  U   U1        1.0  0.25000  0.92000  0.15900  1.0000
  U   U2        1.0  0.75000  0.07970  0.84100  1.0000
