data_image0
_chemical_formula_structural       Er2InNi2
_chemical_formula_sum              "Er2 In1 Ni2"
_cell_length_a       3.61661
_cell_length_b       3.88971
_cell_length_c       7.36787
_cell_angle_alpha    74.6946
_cell_angle_beta     90
_cell_angle_gamma    90

_space_group_name_H-M_alt    "P 1"
_space_group_IT_number       1

loop_
  _space_group_symop_operation_xyz
  'x, y, z'

loop_
  _atom_site_type_symbol
  _atom_site_label
  _atom_site_symmetry_multiplicity
  _atom_site_fract_x
  _atom_site_fract_y
  _atom_site_fract_z
  _atom_site_occupancy
  Er  Er1       1.0  0.50000  0.36100  0.27800  1.0000
  Er  Er2       1.0  0.50000  0.63900  0.72200  1.0000
  In  In1       1.0  0.00000  0.00000  0.00000  1.0000
  Ni  Ni1       1.0  0.00000  0.80200  0.39700  1.0000
  Ni  Ni2       1.0  0.00000  0.19800  0.60300  1.0000
