data_image0
_chemical_formula_structural       B4Dy2Ir4
_chemical_formula_sum              "B4 Dy2 Ir4"
_cell_length_a       5.4819
_cell_length_b       5.4819
_cell_length_c       6.18862
_cell_angle_alpha    104.288
_cell_angle_beta     104.288
_cell_angle_gamma    116.282

_space_group_name_H-M_alt    "P 1"
_space_group_IT_number       1

loop_
  _space_group_symop_operation_xyz
  'x, y, z'

loop_
  _atom_site_type_symbol
  _atom_site_label
  _atom_site_symmetry_multiplicity
  _atom_site_fract_x
  _atom_site_fract_y
  _atom_site_fract_z
  _atom_site_occupancy
  B   B1        1.0  0.68100  0.31900  0.00000  1.0000
  B   B2        1.0  0.31900  0.68100  0.00000  1.0000
  B   B3        1.0  0.43100  0.56900  0.50000  1.0000
  B   B4        1.0  0.06920  0.93100  0.50000  1.0000
  Dy  Dy1       1.0  0.00000  0.00000  0.00000  1.0000
  Dy  Dy2       1.0  0.75000  0.25000  0.50000  1.0000
  Ir  Ir1       1.0  0.12300  0.62300  0.24600  1.0000
  Ir  Ir2       1.0  0.62700  0.62700  0.25400  1.0000
  Ir  Ir3       1.0  0.37300  0.37300  0.74600  1.0000
  Ir  Ir4       1.0  0.37700  0.87700  0.75400  1.0000
