data_image0
_chemical_formula_structural       Bi2Eu4O
_chemical_formula_sum              "Bi2 Eu4 O1"
_cell_length_a       4.85876
_cell_length_b       4.85876
_cell_length_c       9.13147
_cell_angle_alpha    105.429
_cell_angle_beta     105.429
_cell_angle_gamma    90

_space_group_name_H-M_alt    "P 1"
_space_group_IT_number       1

loop_
  _space_group_symop_operation_xyz
  'x, y, z'

loop_
  _atom_site_type_symbol
  _atom_site_label
  _atom_site_symmetry_multiplicity
  _atom_site_fract_x
  _atom_site_fract_y
  _atom_site_fract_z
  _atom_site_occupancy
  Bi  Bi1       1.0  0.64000  0.64000  0.28100  1.0000
  Bi  Bi2       1.0  0.35900  0.35900  0.71900  1.0000
  Eu  Eu1       1.0  0.50000  0.00000  0.00000  1.0000
  Eu  Eu2       1.0  0.00000  0.50000  0.00000  1.0000
  Eu  Eu3       1.0  0.16300  0.16300  0.32700  1.0000
  Eu  Eu4       1.0  0.83700  0.83700  0.67300  1.0000
  O   O1        1.0  0.00000  0.00000  0.00000  1.0000
