data_image0
_chemical_formula_structural       B4Ir4Pr2
_chemical_formula_sum              "B4 Ir4 Pr2"
_cell_length_a       5.61407
_cell_length_b       5.61407
_cell_length_c       6.14509
_cell_angle_alpha    105.616
_cell_angle_beta     105.616
_cell_angle_gamma    114.248

_space_group_name_H-M_alt    "P 1"
_space_group_IT_number       1

loop_
  _space_group_symop_operation_xyz
  'x, y, z'

loop_
  _atom_site_type_symbol
  _atom_site_label
  _atom_site_symmetry_multiplicity
  _atom_site_fract_x
  _atom_site_fract_y
  _atom_site_fract_z
  _atom_site_occupancy
  B   B1        1.0  0.67900  0.32100  0.00000  1.0000
  B   B2        1.0  0.32100  0.67900  0.00000  1.0000
  B   B3        1.0  0.42900  0.57100  0.50000  1.0000
  B   B4        1.0  0.07090  0.92900  0.50000  1.0000
  Ir  Ir1       1.0  0.12000  0.62000  0.24000  1.0000
  Ir  Ir2       1.0  0.63000  0.63000  0.26000  1.0000
  Ir  Ir3       1.0  0.37000  0.37000  0.74000  1.0000
  Ir  Ir4       1.0  0.38000  0.88000  0.76000  1.0000
  Pr  Pr1       1.0  0.00000  0.00000  0.00000  1.0000
  Pr  Pr2       1.0  0.75000  0.25000  0.50000  1.0000
