data_image0
_chemical_formula_structural       Au4Gd4Sn2
_chemical_formula_sum              "Au4 Gd4 Sn2"
_cell_length_a       7.91687
_cell_length_b       7.91687
_cell_length_c       3.85752
_cell_angle_alpha    90
_cell_angle_beta     90
_cell_angle_gamma    90

_space_group_name_H-M_alt    "P 1"
_space_group_IT_number       1

loop_
  _space_group_symop_operation_xyz
  'x, y, z'

loop_
  _atom_site_type_symbol
  _atom_site_label
  _atom_site_symmetry_multiplicity
  _atom_site_fract_x
  _atom_site_fract_y
  _atom_site_fract_z
  _atom_site_occupancy
  Au  Au1       1.0  0.62800  0.12800  0.00000  1.0000
  Au  Au2       1.0  0.12800  0.37200  0.00000  1.0000
  Au  Au3       1.0  0.87200  0.62800  0.00000  1.0000
  Au  Au4       1.0  0.37200  0.87200  0.00000  1.0000
  Gd  Gd1       1.0  0.32900  0.17100  0.50000  1.0000
  Gd  Gd2       1.0  0.82900  0.32900  0.50000  1.0000
  Gd  Gd3       1.0  0.17100  0.67100  0.50000  1.0000
  Gd  Gd4       1.0  0.67100  0.82900  0.50000  1.0000
  Sn  Sn1       1.0  0.00000  0.00000  0.00000  1.0000
  Sn  Sn2       1.0  0.50000  0.50000  0.00000  1.0000
