data_image0
_chemical_formula_structural       In2Ir4U4
_chemical_formula_sum              "In2 Ir4 U4"
_cell_length_a       7.69502
_cell_length_b       7.69502
_cell_length_c       3.53333
_cell_angle_alpha    90
_cell_angle_beta     90
_cell_angle_gamma    90

_space_group_name_H-M_alt    "P 1"
_space_group_IT_number       1

loop_
  _space_group_symop_operation_xyz
  'x, y, z'

loop_
  _atom_site_type_symbol
  _atom_site_label
  _atom_site_symmetry_multiplicity
  _atom_site_fract_x
  _atom_site_fract_y
  _atom_site_fract_z
  _atom_site_occupancy
  In  In1       1.0  0.00000  0.00000  0.00000  1.0000
  In  In2       1.0  0.50000  0.50000  0.00000  1.0000
  Ir  Ir1       1.0  0.63700  0.13700  0.00000  1.0000
  Ir  Ir2       1.0  0.13700  0.36300  0.00000  1.0000
  Ir  Ir3       1.0  0.86300  0.63700  0.00000  1.0000
  Ir  Ir4       1.0  0.36300  0.86300  0.00000  1.0000
  U   U1        1.0  0.33400  0.16600  0.50000  1.0000
  U   U2        1.0  0.83400  0.33400  0.50000  1.0000
  U   U3        1.0  0.16600  0.66600  0.50000  1.0000
  U   U4        1.0  0.66600  0.83400  0.50000  1.0000
