data_image0
_chemical_formula_structural       B4Cr2Ta4
_chemical_formula_sum              "B4 Cr2 Ta4"
_cell_length_a       5.93156
_cell_length_b       5.93156
_cell_length_c       3.24103
_cell_angle_alpha    90
_cell_angle_beta     90
_cell_angle_gamma    90

_space_group_name_H-M_alt    "P 1"
_space_group_IT_number       1

loop_
  _space_group_symop_operation_xyz
  'x, y, z'

loop_
  _atom_site_type_symbol
  _atom_site_label
  _atom_site_symmetry_multiplicity
  _atom_site_fract_x
  _atom_site_fract_y
  _atom_site_fract_z
  _atom_site_occupancy
  B   B1        1.0  0.61100  0.11100  0.00000  1.0000
  B   B2        1.0  0.11100  0.38900  0.00000  1.0000
  B   B3        1.0  0.88900  0.61100  0.00000  1.0000
  B   B4        1.0  0.38900  0.88900  0.00000  1.0000
  Cr  Cr1       1.0  0.00000  0.00000  0.00000  1.0000
  Cr  Cr2       1.0  0.50000  0.50000  0.00000  1.0000
  Ta  Ta1       1.0  0.31900  0.18100  0.50000  1.0000
  Ta  Ta2       1.0  0.81900  0.31900  0.50000  1.0000
  Ta  Ta3       1.0  0.18100  0.68100  0.50000  1.0000
  Ta  Ta4       1.0  0.68100  0.81900  0.50000  1.0000
