data_image0
_chemical_formula_structural       B4Dy2Ni4
_chemical_formula_sum              "B4 Dy2 Ni4"
_cell_length_a       4.95706
_cell_length_b       4.95706
_cell_length_c       6.08988
_cell_angle_alpha    102.628
_cell_angle_beta     103.752
_cell_angle_gamma    116.064

_space_group_name_H-M_alt    "P 1"
_space_group_IT_number       1

loop_
  _space_group_symop_operation_xyz
  'x, y, z'

loop_
  _atom_site_type_symbol
  _atom_site_label
  _atom_site_symmetry_multiplicity
  _atom_site_fract_x
  _atom_site_fract_y
  _atom_site_fract_z
  _atom_site_occupancy
  B   B1        1.0  0.17800  0.49600  0.02250  1.0000
  B   B2        1.0  0.97300  0.15600  0.47700  1.0000
  B   B3        1.0  0.02670  0.84400  0.52300  1.0000
  B   B4        1.0  0.82200  0.50400  0.97700  1.0000
  Dy  Dy1       1.0  0.36900  0.11900  0.25000  1.0000
  Dy  Dy2       1.0  0.63100  0.88100  0.75000  1.0000
  Ni  Ni1       1.0  0.66700  0.72200  0.20000  1.0000
  Ni  Ni2       1.0  0.02200  0.46700  0.30000  1.0000
  Ni  Ni3       1.0  0.97800  0.53300  0.70000  1.0000
  Ni  Ni4       1.0  0.33300  0.27800  0.80000  1.0000
