data_image0
_chemical_formula_structural       Be4Ta6
_chemical_formula_sum              "Be4 Ta6"
_cell_length_a       6.50666
_cell_length_b       6.50666
_cell_length_c       3.35378
_cell_angle_alpha    90
_cell_angle_beta     90
_cell_angle_gamma    90

_space_group_name_H-M_alt    "P 1"
_space_group_IT_number       1

loop_
  _space_group_symop_operation_xyz
  'x, y, z'

loop_
  _atom_site_type_symbol
  _atom_site_label
  _atom_site_symmetry_multiplicity
  _atom_site_fract_x
  _atom_site_fract_y
  _atom_site_fract_z
  _atom_site_occupancy
  Be  Be1       1.0  0.61400  0.11400  0.00000  1.0000
  Be  Be2       1.0  0.11400  0.38600  0.00000  1.0000
  Be  Be3       1.0  0.88600  0.61400  0.00000  1.0000
  Be  Be4       1.0  0.38600  0.88600  0.00000  1.0000
  Ta  Ta1       1.0  0.00000  0.00000  0.00000  1.0000
  Ta  Ta2       1.0  0.50000  0.50000  0.00000  1.0000
  Ta  Ta3       1.0  0.32100  0.17900  0.50000  1.0000
  Ta  Ta4       1.0  0.82100  0.32100  0.50000  1.0000
  Ta  Ta5       1.0  0.17900  0.67900  0.50000  1.0000
  Ta  Ta6       1.0  0.67900  0.82100  0.50000  1.0000
