data_image0
_chemical_formula_structural       B4Os4Pr2
_chemical_formula_sum              "B4 Os4 Pr2"
_cell_length_a       5.65851
_cell_length_b       5.65851
_cell_length_c       6.03237
_cell_angle_alpha    108.623
_cell_angle_beta     108.623
_cell_angle_gamma    108.61

_space_group_name_H-M_alt    "P 1"
_space_group_IT_number       1

loop_
  _space_group_symop_operation_xyz
  'x, y, z'

loop_
  _atom_site_type_symbol
  _atom_site_label
  _atom_site_symmetry_multiplicity
  _atom_site_fract_x
  _atom_site_fract_y
  _atom_site_fract_z
  _atom_site_occupancy
  B   B1        1.0  0.68400  0.31600  0.00000  1.0000
  B   B2        1.0  0.31600  0.68400  0.00000  1.0000
  B   B3        1.0  0.93400  0.06590  0.50000  1.0000
  B   B4        1.0  0.56600  0.43400  0.50000  1.0000
  Os  Os1       1.0  0.61400  0.11400  0.22700  1.0000
  Os  Os2       1.0  0.63600  0.63600  0.27300  1.0000
  Os  Os3       1.0  0.36400  0.36400  0.72700  1.0000
  Os  Os4       1.0  0.88600  0.38600  0.77300  1.0000
  Pr  Pr1       1.0  0.00000  0.00000  0.00000  1.0000
  Pr  Pr2       1.0  0.25000  0.75000  0.50000  1.0000
