data_image0
_chemical_formula_structural       Np6Si4
_chemical_formula_sum              "Np6 Si4"
_cell_length_a       7.28376
_cell_length_b       7.28376
_cell_length_c       4.01537
_cell_angle_alpha    90
_cell_angle_beta     90
_cell_angle_gamma    90

_space_group_name_H-M_alt    "P 1"
_space_group_IT_number       1

loop_
  _space_group_symop_operation_xyz
  'x, y, z'

loop_
  _atom_site_type_symbol
  _atom_site_label
  _atom_site_symmetry_multiplicity
  _atom_site_fract_x
  _atom_site_fract_y
  _atom_site_fract_z
  _atom_site_occupancy
  Np  Np1       1.0  0.00000  0.00000  0.00000  1.0000
  Np  Np2       1.0  0.50000  0.50000  0.00000  1.0000
  Np  Np3       1.0  0.32000  0.18000  0.50000  1.0000
  Np  Np4       1.0  0.82000  0.32000  0.50000  1.0000
  Np  Np5       1.0  0.18000  0.68000  0.50000  1.0000
  Np  Np6       1.0  0.68000  0.82000  0.50000  1.0000
  Si  Si1       1.0  0.61500  0.11500  0.00000  1.0000
  Si  Si2       1.0  0.11500  0.38500  0.00000  1.0000
  Si  Si3       1.0  0.88500  0.61500  0.00000  1.0000
  Si  Si4       1.0  0.38500  0.88500  0.00000  1.0000
