data_image0
_chemical_formula_structural       Ce2Lu2S6
_chemical_formula_sum              "Ce2 Lu2 S6"
_cell_length_a       3.91601
_cell_length_b       6.61153
_cell_length_c       9.51926
_cell_angle_alpha    90
_cell_angle_beta     90
_cell_angle_gamma    72.7735

_space_group_name_H-M_alt    "P 1"
_space_group_IT_number       1

loop_
  _space_group_symop_operation_xyz
  'x, y, z'

loop_
  _atom_site_type_symbol
  _atom_site_label
  _atom_site_symmetry_multiplicity
  _atom_site_fract_x
  _atom_site_fract_y
  _atom_site_fract_z
  _atom_site_occupancy
  Ce  Ce1       1.0  0.25400  0.49300  0.00000  1.0000
  Ce  Ce2       1.0  0.74600  0.50700  0.50000  1.0000
  Lu  Lu1       1.0  0.00237  0.00000  0.25000  1.0000
  Lu  Lu2       1.0  0.99800  0.00000  0.75000  1.0000
  S   S1        1.0  0.91700  0.16600  0.00000  1.0000
  S   S2        1.0  0.64300  0.71800  0.18900  1.0000
  S   S3        1.0  0.36200  0.28200  0.31100  1.0000
  S   S4        1.0  0.08320  0.83400  0.50000  1.0000
  S   S5        1.0  0.35700  0.28200  0.68900  1.0000
  S   S6        1.0  0.63800  0.71800  0.81100  1.0000
