data_image0
_chemical_formula_structural       Li2Nd4Si4
_chemical_formula_sum              "Li2 Nd4 Si4"
_cell_length_a       7.40982
_cell_length_b       7.40982
_cell_length_c       4.29239
_cell_angle_alpha    90
_cell_angle_beta     90
_cell_angle_gamma    90

_space_group_name_H-M_alt    "P 1"
_space_group_IT_number       1

loop_
  _space_group_symop_operation_xyz
  'x, y, z'

loop_
  _atom_site_type_symbol
  _atom_site_label
  _atom_site_symmetry_multiplicity
  _atom_site_fract_x
  _atom_site_fract_y
  _atom_site_fract_z
  _atom_site_occupancy
  Li  Li1       1.0  0.00000  0.00000  0.00000  1.0000
  Li  Li2       1.0  0.50000  0.50000  0.00000  1.0000
  Nd  Nd1       1.0  0.31900  0.18100  0.50000  1.0000
  Nd  Nd2       1.0  0.81900  0.31900  0.50000  1.0000
  Nd  Nd3       1.0  0.18100  0.68100  0.50000  1.0000
  Nd  Nd4       1.0  0.68100  0.81900  0.50000  1.0000
  Si  Si1       1.0  0.61400  0.11400  0.00000  1.0000
  Si  Si2       1.0  0.11400  0.38600  0.00000  1.0000
  Si  Si3       1.0  0.88600  0.61400  0.00000  1.0000
  Si  Si4       1.0  0.38600  0.88600  0.00000  1.0000
