data_image0
_chemical_formula_structural       Al4Au4Ce2
_chemical_formula_sum              "Al4 Au4 Ce2"
_cell_length_a       4.45525
_cell_length_b       4.45525
_cell_length_c       10.511
_cell_angle_alpha    90
_cell_angle_beta     90
_cell_angle_gamma    90

_space_group_name_H-M_alt    "P 1"
_space_group_IT_number       1

loop_
  _space_group_symop_operation_xyz
  'x, y, z'

loop_
  _atom_site_type_symbol
  _atom_site_label
  _atom_site_symmetry_multiplicity
  _atom_site_fract_x
  _atom_site_fract_y
  _atom_site_fract_z
  _atom_site_occupancy
  Al  Al1       1.0  0.25000  0.25000  0.13100  1.0000
  Al  Al2       1.0  0.75000  0.25000  0.50000  1.0000
  Al  Al3       1.0  0.25000  0.75000  0.50000  1.0000
  Al  Al4       1.0  0.75000  0.75000  0.86900  1.0000
  Au  Au1       1.0  0.75000  0.25000  0.00000  1.0000
  Au  Au2       1.0  0.25000  0.75000  0.00000  1.0000
  Au  Au3       1.0  0.25000  0.25000  0.37100  1.0000
  Au  Au4       1.0  0.75000  0.75000  0.62900  1.0000
  Ce  Ce1       1.0  0.75000  0.75000  0.25000  1.0000
  Ce  Ce2       1.0  0.25000  0.25000  0.75000  1.0000
