data_image0
_chemical_formula_structural       Cu4In2Lu4
_chemical_formula_sum              "Cu4 In2 Lu4"
_cell_length_a       7.39143
_cell_length_b       7.39143
_cell_length_c       3.66457
_cell_angle_alpha    90
_cell_angle_beta     90
_cell_angle_gamma    90

_space_group_name_H-M_alt    "P 1"
_space_group_IT_number       1

loop_
  _space_group_symop_operation_xyz
  'x, y, z'

loop_
  _atom_site_type_symbol
  _atom_site_label
  _atom_site_symmetry_multiplicity
  _atom_site_fract_x
  _atom_site_fract_y
  _atom_site_fract_z
  _atom_site_occupancy
  Cu  Cu1       1.0  0.62000  0.12000  0.00000  1.0000
  Cu  Cu2       1.0  0.12000  0.38000  0.00000  1.0000
  Cu  Cu3       1.0  0.88000  0.62000  0.00000  1.0000
  Cu  Cu4       1.0  0.38000  0.88000  0.00000  1.0000
  In  In1       1.0  0.00000  0.00000  0.00000  1.0000
  In  In2       1.0  0.50000  0.50000  0.00000  1.0000
  Lu  Lu1       1.0  0.32800  0.17200  0.50000  1.0000
  Lu  Lu2       1.0  0.82800  0.32800  0.50000  1.0000
  Lu  Lu3       1.0  0.17200  0.67200  0.50000  1.0000
  Lu  Lu4       1.0  0.67200  0.82800  0.50000  1.0000
