data_image0
_chemical_formula_structural       Pu6Si4
_chemical_formula_sum              "Pu6 Si4"
_cell_length_a       7.43446
_cell_length_b       7.43446
_cell_length_c       4.10314
_cell_angle_alpha    90
_cell_angle_beta     90
_cell_angle_gamma    90

_space_group_name_H-M_alt    "P 1"
_space_group_IT_number       1

loop_
  _space_group_symop_operation_xyz
  'x, y, z'

loop_
  _atom_site_type_symbol
  _atom_site_label
  _atom_site_symmetry_multiplicity
  _atom_site_fract_x
  _atom_site_fract_y
  _atom_site_fract_z
  _atom_site_occupancy
  Pu  Pu1       1.0  0.00000  0.00000  0.00000  1.0000
  Pu  Pu2       1.0  0.50000  0.50000  0.00000  1.0000
  Pu  Pu3       1.0  0.32200  0.17800  0.50000  1.0000
  Pu  Pu4       1.0  0.82200  0.32200  0.50000  1.0000
  Pu  Pu5       1.0  0.17800  0.67800  0.50000  1.0000
  Pu  Pu6       1.0  0.67800  0.82200  0.50000  1.0000
  Si  Si1       1.0  0.61300  0.11300  0.00000  1.0000
  Si  Si2       1.0  0.11300  0.38700  0.00000  1.0000
  Si  Si3       1.0  0.88700  0.61300  0.00000  1.0000
  Si  Si4       1.0  0.38700  0.88700  0.00000  1.0000
