data_image0
_chemical_formula_structural       Br2Eu4O4
_chemical_formula_sum              "Br2 Eu4 O4"
_cell_length_a       3.96352
_cell_length_b       6.56474
_cell_length_c       8.45088
_cell_angle_alpha    93.2256
_cell_angle_beta     103.562
_cell_angle_gamma    107.57

_space_group_name_H-M_alt    "P 1"
_space_group_IT_number       1

loop_
  _space_group_symop_operation_xyz
  'x, y, z'

loop_
  _atom_site_type_symbol
  _atom_site_label
  _atom_site_symmetry_multiplicity
  _atom_site_fract_x
  _atom_site_fract_y
  _atom_site_fract_z
  _atom_site_occupancy
  Br  Br1       1.0  0.45400  0.78100  0.12800  1.0000
  Br  Br2       1.0  0.54600  0.21900  0.87200  1.0000
  Eu  Eu1       1.0  0.22900  0.27500  0.18300  1.0000
  Eu  Eu2       1.0  0.09780  0.75900  0.43700  1.0000
  Eu  Eu3       1.0  0.90200  0.24100  0.56300  1.0000
  Eu  Eu4       1.0  0.77100  0.72500  0.81700  1.0000
  O   O1        1.0  0.85300  0.39600  0.30900  1.0000
  O   O2        1.0  0.27900  0.13300  0.42600  1.0000
  O   O3        1.0  0.72100  0.86700  0.57400  1.0000
  O   O4        1.0  0.14700  0.60400  0.69100  1.0000
