data_image0
_chemical_formula_structural       Li5NaSn4
_chemical_formula_sum              "Li5 Na1 Sn4"
_cell_length_a       4.90878
_cell_length_b       4.90878
_cell_length_c       10.7959
_cell_angle_alpha    103.141
_cell_angle_beta     90
_cell_angle_gamma    60

_space_group_name_H-M_alt    "P 1"
_space_group_IT_number       1

loop_
  _space_group_symop_operation_xyz
  'x, y, z'

loop_
  _atom_site_type_symbol
  _atom_site_label
  _atom_site_symmetry_multiplicity
  _atom_site_fract_x
  _atom_site_fract_y
  _atom_site_fract_z
  _atom_site_occupancy
  Li  Li1       1.0  0.94800  0.10400  0.15600  1.0000
  Li  Li2       1.0  0.58500  0.83100  0.24600  1.0000
  Li  Li3       1.0  0.86100  0.27700  0.41600  1.0000
  Li  Li4       1.0  0.13600  0.72700  0.59100  1.0000
  Li  Li5       1.0  0.05300  0.89400  0.84100  1.0000
  Na  Na1       1.0  0.48500  0.02980  0.54500  1.0000
  Sn  Sn1       1.0  0.31800  0.36500  0.04740  1.0000
  Sn  Sn2       1.0  0.22500  0.55100  0.32600  1.0000
  Sn  Sn3       1.0  0.77100  0.45800  0.68600  1.0000
  Sn  Sn4       1.0  0.68100  0.63800  0.95600  1.0000
