data_image0
_chemical_formula_structural       Ba2HoNp
_chemical_formula_sum              "Ba2 Ho1 Np1"
_cell_length_a       5.68823
_cell_length_b       5.68823
_cell_length_c       5.68823
_cell_angle_alpha    65.4279
_cell_angle_beta     65.4279
_cell_angle_gamma    65.4279

_space_group_name_H-M_alt    "P 1"
_space_group_IT_number       1

loop_
  _space_group_symop_operation_xyz
  'x, y, z'

loop_
  _atom_site_type_symbol
  _atom_site_label
  _atom_site_symmetry_multiplicity
  _atom_site_fract_x
  _atom_site_fract_y
  _atom_site_fract_z
  _atom_site_occupancy
  Ba  Ba1       1.0  0.50000  0.50000  0.50000  1.0000
  Ba  Ba2       1.0  0.00064  0.00064  0.00064  1.0000
  Ho  Ho1       1.0  0.25000  0.25000  0.25000  1.0000
  Np  Np1       1.0  0.74900  0.74900  0.74900  1.0000
