data_image0
_chemical_formula_structural       Nd2S6Yb2
_chemical_formula_sum              "Nd2 S6 Yb2"
_cell_length_a       3.96289
_cell_length_b       7.20835
_cell_length_c       8.81815
_cell_angle_alpha    90
_cell_angle_beta     90
_cell_angle_gamma    105.955

_space_group_name_H-M_alt    "P 1"
_space_group_IT_number       1

loop_
  _space_group_symop_operation_xyz
  'x, y, z'

loop_
  _atom_site_type_symbol
  _atom_site_label
  _atom_site_symmetry_multiplicity
  _atom_site_fract_x
  _atom_site_fract_y
  _atom_site_fract_z
  _atom_site_occupancy
  Nd  Nd1       1.0  0.25100  0.50100  0.00000  1.0000
  Nd  Nd2       1.0  0.74900  0.49900  0.50000  1.0000
  S   S1        1.0  0.89100  0.78200  0.00000  1.0000
  S   S2        1.0  0.64100  0.28000  0.17100  1.0000
  S   S3        1.0  0.36100  0.72000  0.32900  1.0000
  S   S4        1.0  0.10900  0.21800  0.50000  1.0000
  S   S5        1.0  0.35900  0.72000  0.67100  1.0000
  S   S6        1.0  0.63900  0.28000  0.82900  1.0000
  Yb  Yb1       1.0  0.00166  0.00000  0.25000  1.0000
  Yb  Yb2       1.0  0.99800  0.00000  0.75000  1.0000
