data_image0
_chemical_formula_structural       B4Ni4Y2
_chemical_formula_sum              "B4 Ni4 Y2"
_cell_length_a       4.97051
_cell_length_b       4.97051
_cell_length_c       6.09911
_cell_angle_alpha    102.64
_cell_angle_beta     104.175
_cell_angle_gamma    115.531

_space_group_name_H-M_alt    "P 1"
_space_group_IT_number       1

loop_
  _space_group_symop_operation_xyz
  'x, y, z'

loop_
  _atom_site_type_symbol
  _atom_site_label
  _atom_site_symmetry_multiplicity
  _atom_site_fract_x
  _atom_site_fract_y
  _atom_site_fract_z
  _atom_site_occupancy
  B   B1        1.0  0.17900  0.49500  0.02520  1.0000
  B   B2        1.0  0.97000  0.15400  0.47500  1.0000
  B   B3        1.0  0.02990  0.84600  0.52500  1.0000
  B   B4        1.0  0.82100  0.50500  0.97500  1.0000
  Ni  Ni1       1.0  0.66700  0.72100  0.20000  1.0000
  Ni  Ni2       1.0  0.02110  0.46800  0.30000  1.0000
  Ni  Ni3       1.0  0.97900  0.53200  0.70000  1.0000
  Ni  Ni4       1.0  0.33300  0.27900  0.80000  1.0000
  Y   Y1        1.0  0.36700  0.11700  0.25000  1.0000
  Y   Y2        1.0  0.63300  0.88300  0.75000  1.0000
