data_image0
_chemical_formula_structural       Al4Ge2La4
_chemical_formula_sum              "Al4 Ge2 La4"
_cell_length_a       4.15103
_cell_length_b       4.57607
_cell_length_c       13.7184
_cell_angle_alpha    90
_cell_angle_beta     81.298
_cell_angle_gamma    90

_space_group_name_H-M_alt    "P 1"
_space_group_IT_number       1

loop_
  _space_group_symop_operation_xyz
  'x, y, z'

loop_
  _atom_site_type_symbol
  _atom_site_label
  _atom_site_symmetry_multiplicity
  _atom_site_fract_x
  _atom_site_fract_y
  _atom_site_fract_z
  _atom_site_occupancy
  Al  Al1       1.0  0.97700  0.75000  0.04630  1.0000
  Al  Al2       1.0  0.88200  0.75000  0.23700  1.0000
  Al  Al3       1.0  0.11800  0.25000  0.76300  1.0000
  Al  Al4       1.0  0.02310  0.25000  0.95400  1.0000
  Ge  Ge1       1.0  0.32600  0.75000  0.34800  1.0000
  Ge  Ge2       1.0  0.67400  0.25000  0.65200  1.0000
  La  La1       1.0  0.42500  0.25000  0.14900  1.0000
  La  La2       1.0  0.79600  0.25000  0.40900  1.0000
  La  La3       1.0  0.20400  0.75000  0.59100  1.0000
  La  La4       1.0  0.57500  0.75000  0.85100  1.0000
