data_image0
_chemical_formula_structural       B4Os4Sm2
_chemical_formula_sum              "B4 Os4 Sm2"
_cell_length_a       5.62293
_cell_length_b       5.62293
_cell_length_c       5.98633
_cell_angle_alpha    109.236
_cell_angle_beta     109.236
_cell_angle_gamma    107.368

_space_group_name_H-M_alt    "P 1"
_space_group_IT_number       1

loop_
  _space_group_symop_operation_xyz
  'x, y, z'

loop_
  _atom_site_type_symbol
  _atom_site_label
  _atom_site_symmetry_multiplicity
  _atom_site_fract_x
  _atom_site_fract_y
  _atom_site_fract_z
  _atom_site_occupancy
  B   B1        1.0  0.68800  0.31200  0.00000  1.0000
  B   B2        1.0  0.31200  0.68800  0.00000  1.0000
  B   B3        1.0  0.93800  0.06190  0.50000  1.0000
  B   B4        1.0  0.56200  0.43800  0.50000  1.0000
  Os  Os1       1.0  0.61300  0.11300  0.22500  1.0000
  Os  Os2       1.0  0.63800  0.63800  0.27500  1.0000
  Os  Os3       1.0  0.36200  0.36200  0.72500  1.0000
  Os  Os4       1.0  0.88700  0.38700  0.77500  1.0000
  Sm  Sm1       1.0  0.00000  0.00000  0.00000  1.0000
  Sm  Sm2       1.0  0.25000  0.75000  0.50000  1.0000
