data_image0
_chemical_formula_structural       Au4In2Y4
_chemical_formula_sum              "Au4 In2 Y4"
_cell_length_a       7.93261
_cell_length_b       7.93261
_cell_length_c       3.76463
_cell_angle_alpha    90
_cell_angle_beta     90
_cell_angle_gamma    90

_space_group_name_H-M_alt    "P 1"
_space_group_IT_number       1

loop_
  _space_group_symop_operation_xyz
  'x, y, z'

loop_
  _atom_site_type_symbol
  _atom_site_label
  _atom_site_symmetry_multiplicity
  _atom_site_fract_x
  _atom_site_fract_y
  _atom_site_fract_z
  _atom_site_occupancy
  Au  Au1       1.0  0.62900  0.12900  0.00000  1.0000
  Au  Au2       1.0  0.12900  0.37100  0.00000  1.0000
  Au  Au3       1.0  0.87100  0.62900  0.00000  1.0000
  Au  Au4       1.0  0.37100  0.87100  0.00000  1.0000
  In  In1       1.0  0.00000  0.00000  0.00000  1.0000
  In  In2       1.0  0.50000  0.50000  0.00000  1.0000
  Y   Y1        1.0  0.33000  0.17000  0.50000  1.0000
  Y   Y2        1.0  0.83000  0.33000  0.50000  1.0000
  Y   Y3        1.0  0.17000  0.67000  0.50000  1.0000
  Y   Y4        1.0  0.67000  0.83000  0.50000  1.0000
