data_image0
_chemical_formula_structural       F6K2NaSc
_chemical_formula_sum              "F6 K2 Na1 Sc1"
_cell_length_a       5.84717
_cell_length_b       5.84717
_cell_length_c       5.84717
_cell_angle_alpha    120
_cell_angle_beta     90
_cell_angle_gamma    120

_space_group_name_H-M_alt    "P 1"
_space_group_IT_number       1

loop_
  _space_group_symop_operation_xyz
  'x, y, z'

loop_
  _atom_site_type_symbol
  _atom_site_label
  _atom_site_symmetry_multiplicity
  _atom_site_fract_x
  _atom_site_fract_y
  _atom_site_fract_z
  _atom_site_occupancy
  F   F1        1.0  0.24100  0.00000  0.24100  1.0000
  F   F2        1.0  0.24100  0.48200  0.24100  1.0000
  F   F3        1.0  0.75900  0.00000  0.24100  1.0000
  F   F4        1.0  0.24100  0.00000  0.75900  1.0000
  F   F5        1.0  0.75900  0.00000  0.75900  1.0000
  F   F6        1.0  0.75900  0.51800  0.75900  1.0000
  K   K1        1.0  0.75000  0.50000  0.25000  1.0000
  K   K2        1.0  0.25000  0.50000  0.75000  1.0000
  Na  Na1       1.0  0.50000  0.00000  0.50000  1.0000
  Sc  Sc1       1.0  0.00000  0.00000  0.00000  1.0000
