data_image0
_chemical_formula_structural       F8Pd2
_chemical_formula_sum              "F8 Pd2"
_cell_length_a       5.23954
_cell_length_b       5.23954
_cell_length_c       5.36691
_cell_angle_alpha    105.273
_cell_angle_beta     105.273
_cell_angle_gamma    117.411

_space_group_name_H-M_alt    "P 1"
_space_group_IT_number       1

loop_
  _space_group_symop_operation_xyz
  'x, y, z'

loop_
  _atom_site_type_symbol
  _atom_site_label
  _atom_site_symmetry_multiplicity
  _atom_site_fract_x
  _atom_site_fract_y
  _atom_site_fract_z
  _atom_site_occupancy
  F   F1        1.0  0.46700  0.22300  0.16100  1.0000
  F   F2        1.0  0.96400  0.71300  0.16900  1.0000
  F   F3        1.0  0.54500  0.79400  0.33100  1.0000
  F   F4        1.0  0.05620  0.31200  0.33900  1.0000
  F   F5        1.0  0.97300  0.71700  0.66100  1.0000
  F   F6        1.0  0.46300  0.21400  0.66900  1.0000
  F   F7        1.0  0.54400  0.79500  0.83100  1.0000
  F   F8        1.0  0.06230  0.30600  0.83900  1.0000
  Pd  Pd1       1.0  0.99000  0.99000  0.00000  1.0000
  Pd  Pd2       1.0  0.74000  0.24000  0.50000  1.0000
