data_image0
_chemical_formula_structural       As2C2Cr6
_chemical_formula_sum              "As2 C2 Cr6"
_cell_length_a       2.96538
_cell_length_b       5.32195
_cell_length_c       7.48533
_cell_angle_alpha    90
_cell_angle_beta     90
_cell_angle_gamma    73.8234

_space_group_name_H-M_alt    "P 1"
_space_group_IT_number       1

loop_
  _space_group_symop_operation_xyz
  'x, y, z'

loop_
  _atom_site_type_symbol
  _atom_site_label
  _atom_site_symmetry_multiplicity
  _atom_site_fract_x
  _atom_site_fract_y
  _atom_site_fract_z
  _atom_site_occupancy
  As  As1       1.0  0.73800  0.52500  0.25000  1.0000
  As  As2       1.0  0.26200  0.47500  0.75000  1.0000
  C   C1        1.0  0.00000  0.00000  0.00000  1.0000
  C   C2        1.0  0.00000  0.00000  0.50000  1.0000
  Cr  Cr1       1.0  0.37600  0.24700  0.05070  1.0000
  Cr  Cr2       1.0  0.03610  0.92800  0.25000  1.0000
  Cr  Cr3       1.0  0.37600  0.24700  0.44900  1.0000
  Cr  Cr4       1.0  0.62400  0.75300  0.55100  1.0000
  Cr  Cr5       1.0  0.96400  0.07220  0.75000  1.0000
  Cr  Cr6       1.0  0.62400  0.75300  0.94900  1.0000
