data_image0
_chemical_formula_structural       As2Te3
_chemical_formula_sum              "As2 Te3"
_cell_length_a       4.093
_cell_length_b       4.09301
_cell_length_c       10.296
_cell_angle_alpha    101.465
_cell_angle_beta     78.5352
_cell_angle_gamma    120

_space_group_name_H-M_alt    "P 1"
_space_group_IT_number       1

loop_
  _space_group_symop_operation_xyz
  'x, y, z'

loop_
  _atom_site_type_symbol
  _atom_site_label
  _atom_site_symmetry_multiplicity
  _atom_site_fract_x
  _atom_site_fract_y
  _atom_site_fract_z
  _atom_site_occupancy
  As  As1       1.0  0.60600  0.39400  0.18300  1.0000
  As  As2       1.0  0.39600  0.60400  0.81300  1.0000
  Te  Te1       1.0  0.21900  0.78100  0.34300  1.0000
  Te  Te2       1.0  0.78200  0.21800  0.65400  1.0000
  Te  Te3       1.0  0.00070  0.99900  0.99800  1.0000
