data_image0
_chemical_formula_structural       P4Pr2Rh4
_chemical_formula_sum              "P4 Pr2 Rh4"
_cell_length_a       4.1826
_cell_length_b       4.1826
_cell_length_c       9.63829
_cell_angle_alpha    90
_cell_angle_beta     90
_cell_angle_gamma    90

_space_group_name_H-M_alt    "P 1"
_space_group_IT_number       1

loop_
  _space_group_symop_operation_xyz
  'x, y, z'

loop_
  _atom_site_type_symbol
  _atom_site_label
  _atom_site_symmetry_multiplicity
  _atom_site_fract_x
  _atom_site_fract_y
  _atom_site_fract_z
  _atom_site_occupancy
  P   P1        1.0  0.25000  0.25000  0.13800  1.0000
  P   P2        1.0  0.75000  0.25000  0.50000  1.0000
  P   P3        1.0  0.25000  0.75000  0.50000  1.0000
  P   P4        1.0  0.75000  0.75000  0.86200  1.0000
  Pr  Pr1       1.0  0.75000  0.75000  0.25800  1.0000
  Pr  Pr2       1.0  0.25000  0.25000  0.74200  1.0000
  Rh  Rh1       1.0  0.75000  0.25000  0.00000  1.0000
  Rh  Rh2       1.0  0.25000  0.75000  0.00000  1.0000
  Rh  Rh3       1.0  0.25000  0.25000  0.38800  1.0000
  Rh  Rh4       1.0  0.75000  0.75000  0.61200  1.0000
