data_image0
_chemical_formula_structural       InNi2Y2
_chemical_formula_sum              "In1 Ni2 Y2"
_cell_length_a       3.61701
_cell_length_b       3.84112
_cell_length_c       7.28515
_cell_angle_alpha    74.7146
_cell_angle_beta     90
_cell_angle_gamma    90

_space_group_name_H-M_alt    "P 1"
_space_group_IT_number       1

loop_
  _space_group_symop_operation_xyz
  'x, y, z'

loop_
  _atom_site_type_symbol
  _atom_site_label
  _atom_site_symmetry_multiplicity
  _atom_site_fract_x
  _atom_site_fract_y
  _atom_site_fract_z
  _atom_site_occupancy
  In  In1       1.0  0.00000  0.00000  0.00015  1.0000
  Ni  Ni1       1.0  0.00000  0.80100  0.39800  1.0000
  Ni  Ni2       1.0  0.00000  0.19900  0.60200  1.0000
  Y   Y1        1.0  0.50000  0.36400  0.27200  1.0000
  Y   Y2        1.0  0.50000  0.63600  0.72800  1.0000
