data_image0
_chemical_formula_structural       Br8U2
_chemical_formula_sum              "Br8 U2"
_cell_length_a       7.41114
_cell_length_b       7.1647
_cell_length_c       7.1647
_cell_angle_alpha    76.5727
_cell_angle_beta     93.2035
_cell_angle_gamma    93.2034

_space_group_name_H-M_alt    "P 1"
_space_group_IT_number       1

loop_
  _space_group_symop_operation_xyz
  'x, y, z'

loop_
  _atom_site_type_symbol
  _atom_site_label
  _atom_site_symmetry_multiplicity
  _atom_site_fract_x
  _atom_site_fract_y
  _atom_site_fract_z
  _atom_site_occupancy
  Br  Br1       1.0  0.74100  0.05200  0.05200  1.0000
  Br  Br2       1.0  0.65900  0.55300  0.17000  1.0000
  Br  Br3       1.0  0.15400  0.32600  0.32600  1.0000
  Br  Br4       1.0  0.34100  0.83000  0.44700  1.0000
  Br  Br5       1.0  0.65900  0.17000  0.55300  1.0000
  Br  Br6       1.0  0.84600  0.67400  0.67400  1.0000
  Br  Br7       1.0  0.34100  0.44700  0.83000  1.0000
  Br  Br8       1.0  0.25900  0.94800  0.94800  1.0000
  U   U1        1.0  0.44200  0.19700  0.19700  1.0000
  U   U2        1.0  0.55800  0.80300  0.80300  1.0000
