data_image0
_chemical_formula_structural       C2Cl4F4
_chemical_formula_sum              "C2 Cl4 F4"
_cell_length_a       4.91128
_cell_length_b       5.44782
_cell_length_c       7.64719
_cell_angle_alpha    98.3225
_cell_angle_beta     71.2695
_cell_angle_gamma    116.792

_space_group_name_H-M_alt    "P 1"
_space_group_IT_number       1

loop_
  _space_group_symop_operation_xyz
  'x, y, z'

loop_
  _atom_site_type_symbol
  _atom_site_label
  _atom_site_symmetry_multiplicity
  _atom_site_fract_x
  _atom_site_fract_y
  _atom_site_fract_z
  _atom_site_occupancy
  C   C1        1.0  0.99600  0.00000  0.00000  1.0000
  C   C2        1.0  0.24600  0.50000  0.50000  1.0000
  Cl  Cl1       1.0  0.89900  0.27600  0.07630  1.0000
  Cl  Cl2       1.0  0.22500  0.77600  0.42400  1.0000
  Cl  Cl3       1.0  0.87300  0.22400  0.57600  1.0000
  Cl  Cl4       1.0  0.69900  0.72400  0.92400  1.0000
  F   F1        1.0  0.04960  0.91400  0.14000  1.0000
  F   F2        1.0  0.43900  0.41400  0.36000  1.0000
  F   F3        1.0  0.38600  0.58600  0.64000  1.0000
  F   F4        1.0  0.27500  0.08600  0.86000  1.0000
