data_image0
_chemical_formula_structural       Ce2Ni4Sb4
_chemical_formula_sum              "Ce2 Ni4 Sb4"
_cell_length_a       4.49767
_cell_length_b       4.49767
_cell_length_c       10.0601
_cell_angle_alpha    90
_cell_angle_beta     90
_cell_angle_gamma    90

_space_group_name_H-M_alt    "P 1"
_space_group_IT_number       1

loop_
  _space_group_symop_operation_xyz
  'x, y, z'

loop_
  _atom_site_type_symbol
  _atom_site_label
  _atom_site_symmetry_multiplicity
  _atom_site_fract_x
  _atom_site_fract_y
  _atom_site_fract_z
  _atom_site_occupancy
  Ce  Ce1       1.0  0.75000  0.75000  0.24000  1.0000
  Ce  Ce2       1.0  0.25000  0.25000  0.76000  1.0000
  Ni  Ni1       1.0  0.75000  0.25000  0.00000  1.0000
  Ni  Ni2       1.0  0.25000  0.75000  0.00000  1.0000
  Ni  Ni3       1.0  0.25000  0.25000  0.37600  1.0000
  Ni  Ni4       1.0  0.75000  0.75000  0.62400  1.0000
  Sb  Sb1       1.0  0.25000  0.25000  0.12500  1.0000
  Sb  Sb2       1.0  0.75000  0.25000  0.50000  1.0000
  Sb  Sb3       1.0  0.25000  0.75000  0.50000  1.0000
  Sb  Sb4       1.0  0.75000  0.75000  0.87500  1.0000
