data_image0
_chemical_formula_structural       Cu4In2Nd4
_chemical_formula_sum              "Cu4 In2 Nd4"
_cell_length_a       7.72333
_cell_length_b       7.72333
_cell_length_c       3.86369
_cell_angle_alpha    90
_cell_angle_beta     90
_cell_angle_gamma    90

_space_group_name_H-M_alt    "P 1"
_space_group_IT_number       1

loop_
  _space_group_symop_operation_xyz
  'x, y, z'

loop_
  _atom_site_type_symbol
  _atom_site_label
  _atom_site_symmetry_multiplicity
  _atom_site_fract_x
  _atom_site_fract_y
  _atom_site_fract_z
  _atom_site_occupancy
  Cu  Cu1       1.0  0.61700  0.11700  0.00000  1.0000
  Cu  Cu2       1.0  0.11700  0.38300  0.00000  1.0000
  Cu  Cu3       1.0  0.88300  0.61700  0.00000  1.0000
  Cu  Cu4       1.0  0.38300  0.88300  0.00000  1.0000
  In  In1       1.0  0.00000  0.00000  0.00000  1.0000
  In  In2       1.0  0.50000  0.50000  0.00000  1.0000
  Nd  Nd1       1.0  0.32300  0.17700  0.50000  1.0000
  Nd  Nd2       1.0  0.82300  0.32300  0.50000  1.0000
  Nd  Nd3       1.0  0.17700  0.67700  0.50000  1.0000
  Nd  Nd4       1.0  0.67700  0.82300  0.50000  1.0000
