data_image0
_chemical_formula_structural       Ba2O6PbU
_chemical_formula_sum              "Ba2 O6 Pb1 U1"
_cell_length_a       6.32213
_cell_length_b       6.32213
_cell_length_c       6.32213
_cell_angle_alpha    120
_cell_angle_beta     90
_cell_angle_gamma    120

_space_group_name_H-M_alt    "P 1"
_space_group_IT_number       1

loop_
  _space_group_symop_operation_xyz
  'x, y, z'

loop_
  _atom_site_type_symbol
  _atom_site_label
  _atom_site_symmetry_multiplicity
  _atom_site_fract_x
  _atom_site_fract_y
  _atom_site_fract_z
  _atom_site_occupancy
  Ba  Ba1       1.0  0.75000  0.50000  0.25000  1.0000
  Ba  Ba2       1.0  0.25000  0.50000  0.75000  1.0000
  O   O1        1.0  0.76600  0.00000  0.23400  1.0000
  O   O2        1.0  0.23400  0.00000  0.23400  1.0000
  O   O3        1.0  0.23400  0.46800  0.23400  1.0000
  O   O4        1.0  0.76600  0.00000  0.76600  1.0000
  O   O5        1.0  0.23400  0.00000  0.76600  1.0000
  O   O6        1.0  0.76600  0.53200  0.76600  1.0000
  Pb  Pb1       1.0  0.50000  0.00000  0.50000  1.0000
  U   U1        1.0  0.00000  0.00000  0.00000  1.0000
