data_image0
_chemical_formula_structural       Eu2Ge4Pt4
_chemical_formula_sum              "Eu2 Ge4 Pt4"
_cell_length_a       4.38746
_cell_length_b       4.40221
_cell_length_c       10.0014
_cell_angle_alpha    90
_cell_angle_beta     89.6952
_cell_angle_gamma    90

_space_group_name_H-M_alt    "P 1"
_space_group_IT_number       1

loop_
  _space_group_symop_operation_xyz
  'x, y, z'

loop_
  _atom_site_type_symbol
  _atom_site_label
  _atom_site_symmetry_multiplicity
  _atom_site_fract_x
  _atom_site_fract_y
  _atom_site_fract_z
  _atom_site_occupancy
  Eu  Eu1       1.0  0.75000  0.75000  0.25500  1.0000
  Eu  Eu2       1.0  0.25000  0.25000  0.74500  1.0000
  Ge  Ge1       1.0  0.24700  0.27300  0.12800  1.0000
  Ge  Ge2       1.0  0.74800  0.23300  0.50000  1.0000
  Ge  Ge3       1.0  0.25200  0.73300  0.50000  1.0000
  Ge  Ge4       1.0  0.75300  0.77300  0.87200  1.0000
  Pt  Pt1       1.0  0.25300  0.77600  0.00194  1.0000
  Pt  Pt2       1.0  0.25200  0.23400  0.37400  1.0000
  Pt  Pt3       1.0  0.74800  0.73400  0.62600  1.0000
  Pt  Pt4       1.0  0.74700  0.27600  0.99800  1.0000
