data_image0
_chemical_formula_structural       B4Ni4Sm2
_chemical_formula_sum              "B4 Ni4 Sm2"
_cell_length_a       5.05718
_cell_length_b       5.05718
_cell_length_c       6.15101
_cell_angle_alpha    102.818
_cell_angle_beta     104.491
_cell_angle_gamma    115.202

_space_group_name_H-M_alt    "P 1"
_space_group_IT_number       1

loop_
  _space_group_symop_operation_xyz
  'x, y, z'

loop_
  _atom_site_type_symbol
  _atom_site_label
  _atom_site_symmetry_multiplicity
  _atom_site_fract_x
  _atom_site_fract_y
  _atom_site_fract_z
  _atom_site_occupancy
  B   B1        1.0  0.17800  0.49600  0.02410  1.0000
  B   B2        1.0  0.97200  0.15400  0.47600  1.0000
  B   B3        1.0  0.02760  0.84600  0.52400  1.0000
  B   B4        1.0  0.82200  0.50400  0.97600  1.0000
  Ni  Ni1       1.0  0.66800  0.72000  0.20000  1.0000
  Ni  Ni2       1.0  0.02040  0.46900  0.30000  1.0000
  Ni  Ni3       1.0  0.98000  0.53100  0.70000  1.0000
  Ni  Ni4       1.0  0.33200  0.28000  0.80000  1.0000
  Sm  Sm1       1.0  0.37100  0.12100  0.25000  1.0000
  Sm  Sm2       1.0  0.62900  0.87900  0.75000  1.0000
