data_image0
_chemical_formula_structural       Ag4Eu6
_chemical_formula_sum              "Ag4 Eu6"
_cell_length_a       8.25564
_cell_length_b       8.25564
_cell_length_c       4.3948
_cell_angle_alpha    90
_cell_angle_beta     90
_cell_angle_gamma    90

_space_group_name_H-M_alt    "P 1"
_space_group_IT_number       1

loop_
  _space_group_symop_operation_xyz
  'x, y, z'

loop_
  _atom_site_type_symbol
  _atom_site_label
  _atom_site_symmetry_multiplicity
  _atom_site_fract_x
  _atom_site_fract_y
  _atom_site_fract_z
  _atom_site_occupancy
  Ag  Ag1       1.0  0.62600  0.12600  0.00000  1.0000
  Ag  Ag2       1.0  0.12600  0.37400  0.00000  1.0000
  Ag  Ag3       1.0  0.87400  0.62600  0.00000  1.0000
  Ag  Ag4       1.0  0.37400  0.87400  0.00000  1.0000
  Eu  Eu1       1.0  0.00000  0.00000  0.00000  1.0000
  Eu  Eu2       1.0  0.50000  0.50000  0.00000  1.0000
  Eu  Eu3       1.0  0.33500  0.16500  0.50000  1.0000
  Eu  Eu4       1.0  0.83500  0.33500  0.50000  1.0000
  Eu  Eu5       1.0  0.16500  0.66500  0.50000  1.0000
  Eu  Eu6       1.0  0.66500  0.83500  0.50000  1.0000
