data_image0
_chemical_formula_structural       F8Ir2
_chemical_formula_sum              "F8 Ir2"
_cell_length_a       5.26537
_cell_length_b       5.26537
_cell_length_c       5.45438
_cell_angle_alpha    104.542
_cell_angle_beta     104.544
_cell_angle_gamma    118.671

_space_group_name_H-M_alt    "P 1"
_space_group_IT_number       1

loop_
  _space_group_symop_operation_xyz
  'x, y, z'

loop_
  _atom_site_type_symbol
  _atom_site_label
  _atom_site_symmetry_multiplicity
  _atom_site_fract_x
  _atom_site_fract_y
  _atom_site_fract_z
  _atom_site_occupancy
  F   F1        1.0  0.47000  0.22100  0.16200  1.0000
  F   F2        1.0  0.97000  0.71500  0.16700  1.0000
  F   F3        1.0  0.55200  0.79700  0.33200  1.0000
  F   F4        1.0  0.05810  0.30900  0.33800  1.0000
  F   F5        1.0  0.97100  0.72000  0.66200  1.0000
  F   F6        1.0  0.46500  0.22000  0.66700  1.0000
  F   F7        1.0  0.54700  0.80200  0.83200  1.0000
  F   F8        1.0  0.05870  0.30800  0.83800  1.0000
  Ir  Ir1       1.0  0.99400  0.99400  0.00000  1.0000
  Ir  Ir2       1.0  0.74400  0.24400  0.50000  1.0000
