data_image0
_chemical_formula_structural       Ta2Te8
_chemical_formula_sum              "Ta2 Te8"
_cell_length_a       6.62265
_cell_length_b       6.62265
_cell_length_c       6.91384
_cell_angle_alpha    90
_cell_angle_beta     90
_cell_angle_gamma    90

_space_group_name_H-M_alt    "P 1"
_space_group_IT_number       1

loop_
  _space_group_symop_operation_xyz
  'x, y, z'

loop_
  _atom_site_type_symbol
  _atom_site_label
  _atom_site_symmetry_multiplicity
  _atom_site_fract_x
  _atom_site_fract_y
  _atom_site_fract_z
  _atom_site_occupancy
  Ta  Ta1       1.0  0.00000  0.00000  0.24700  1.0000
  Ta  Ta2       1.0  0.00000  0.00000  0.74700  1.0000
  Te  Te1       1.0  0.67800  0.14100  0.99800  1.0000
  Te  Te2       1.0  0.14100  0.32200  0.99800  1.0000
  Te  Te3       1.0  0.85900  0.67800  0.99800  1.0000
  Te  Te4       1.0  0.32200  0.85900  0.99800  1.0000
  Te  Te5       1.0  0.32200  0.14100  0.49800  1.0000
  Te  Te6       1.0  0.85900  0.32200  0.49800  1.0000
  Te  Te7       1.0  0.14100  0.67800  0.49800  1.0000
  Te  Te8       1.0  0.67800  0.85900  0.49800  1.0000
