data_image0
_chemical_formula_structural       Br6O2Pa2
_chemical_formula_sum              "Br6 O2 Pa2"
_cell_length_a       4.05752
_cell_length_b       9.00074
_cell_length_c       9.79994
_cell_angle_alpha    114.894
_cell_angle_beta     90
_cell_angle_gamma    103.026

_space_group_name_H-M_alt    "P 1"
_space_group_IT_number       1

loop_
  _space_group_symop_operation_xyz
  'x, y, z'

loop_
  _atom_site_type_symbol
  _atom_site_label
  _atom_site_symmetry_multiplicity
  _atom_site_fract_x
  _atom_site_fract_y
  _atom_site_fract_z
  _atom_site_occupancy
  Br  Br1       1.0  0.61800  0.23600  0.07510  1.0000
  Br  Br2       1.0  0.33000  0.66000  0.25900  1.0000
  Br  Br3       1.0  0.04790  0.09590  0.34300  1.0000
  Br  Br4       1.0  0.95200  0.90400  0.65700  1.0000
  Br  Br5       1.0  0.67000  0.34000  0.74100  1.0000
  Br  Br6       1.0  0.38200  0.76400  0.92500  1.0000
  O   O1        1.0  0.72800  0.45500  0.41900  1.0000
  O   O2        1.0  0.27200  0.54500  0.58100  1.0000
  Pa  Pa1       1.0  0.19400  0.38900  0.31800  1.0000
  Pa  Pa2       1.0  0.80600  0.61100  0.68200  1.0000
