data_image0
_chemical_formula_structural       Pt4Si6
_chemical_formula_sum              "Pt4 Si6"
_cell_length_a       3.93707
_cell_length_b       3.93689
_cell_length_c       12.1183
_cell_angle_alpha    90
_cell_angle_beta     90
_cell_angle_gamma    120.002

_space_group_name_H-M_alt    "P 1"
_space_group_IT_number       1

loop_
  _space_group_symop_operation_xyz
  'x, y, z'

loop_
  _atom_site_type_symbol
  _atom_site_label
  _atom_site_symmetry_multiplicity
  _atom_site_fract_x
  _atom_site_fract_y
  _atom_site_fract_z
  _atom_site_occupancy
  Pt  Pt1       1.0  0.33300  0.66700  0.13700  1.0000
  Pt  Pt2       1.0  0.33300  0.66700  0.36300  1.0000
  Pt  Pt3       1.0  0.66700  0.33300  0.63700  1.0000
  Pt  Pt4       1.0  0.66700  0.33300  0.86300  1.0000
  Si  Si1       1.0  0.66700  0.33300  0.06470  1.0000
  Si  Si2       1.0  0.00000  0.00000  0.25000  1.0000
  Si  Si3       1.0  0.66700  0.33300  0.43500  1.0000
  Si  Si4       1.0  0.33300  0.66700  0.56500  1.0000
  Si  Si5       1.0  0.00001  0.00002  0.75000  1.0000
  Si  Si6       1.0  0.33300  0.66700  0.93500  1.0000
