data_image0
_chemical_formula_structural       I8Ti2
_chemical_formula_sum              "I8 Ti2"
_cell_length_a       6.94722
_cell_length_b       8.02484
_cell_length_c       8.02484
_cell_angle_alpha    62.5797
_cell_angle_beta     90.9275
_cell_angle_gamma    90.9275

_space_group_name_H-M_alt    "P 1"
_space_group_IT_number       1

loop_
  _space_group_symop_operation_xyz
  'x, y, z'

loop_
  _atom_site_type_symbol
  _atom_site_label
  _atom_site_symmetry_multiplicity
  _atom_site_fract_x
  _atom_site_fract_y
  _atom_site_fract_z
  _atom_site_occupancy
  I   I1        1.0  0.10600  0.73700  0.01330  1.0000
  I   I2        1.0  0.39400  0.98700  0.26300  1.0000
  I   I3        1.0  0.57100  0.49600  0.28100  1.0000
  I   I4        1.0  0.07080  0.28100  0.49600  1.0000
  I   I5        1.0  0.92900  0.71900  0.50400  1.0000
  I   I6        1.0  0.42900  0.50400  0.71900  1.0000
  I   I7        1.0  0.60600  0.01330  0.73700  1.0000
  I   I8        1.0  0.89400  0.26300  0.98700  1.0000
  Ti  Ti1       1.0  0.25000  0.65900  0.34100  1.0000
  Ti  Ti2       1.0  0.75000  0.34100  0.65900  1.0000
