data_image0
_chemical_formula_structural       Ga4Se4Te2
_chemical_formula_sum              "Ga4 Se4 Te2"
_cell_length_a       7.40368
_cell_length_b       7.40368
_cell_length_c       7.55318
_cell_angle_alpha    119.347
_cell_angle_beta     119.347
_cell_angle_gamma    90

_space_group_name_H-M_alt    "P 1"
_space_group_IT_number       1

loop_
  _space_group_symop_operation_xyz
  'x, y, z'

loop_
  _atom_site_type_symbol
  _atom_site_label
  _atom_site_symmetry_multiplicity
  _atom_site_fract_x
  _atom_site_fract_y
  _atom_site_fract_z
  _atom_site_occupancy
  Ga  Ga1       1.0  0.90200  0.17600  0.35200  1.0000
  Ga  Ga2       1.0  0.45000  0.17600  0.35200  1.0000
  Ga  Ga3       1.0  0.42600  0.65200  0.85200  1.0000
  Ga  Ga4       1.0  0.42600  0.20000  0.85200  1.0000
  Se  Se1       1.0  0.65100  0.90200  0.30200  1.0000
  Se  Se2       1.0  0.65100  0.40000  0.30200  1.0000
  Se  Se3       1.0  0.65000  0.40100  0.80200  1.0000
  Se  Se4       1.0  0.15200  0.40100  0.80200  1.0000
  Te  Te1       1.0  0.02690  0.02690  0.05390  1.0000
  Te  Te2       1.0  0.27700  0.77700  0.55400  1.0000
