data_image0
_chemical_formula_structural       Ge4Pt6
_chemical_formula_sum              "Ge4 Pt6"
_cell_length_a       3.52348
_cell_length_b       6.3985
_cell_length_c       7.67783
_cell_angle_alpha    90
_cell_angle_beta     90
_cell_angle_gamma    74.0179

_space_group_name_H-M_alt    "P 1"
_space_group_IT_number       1

loop_
  _space_group_symop_operation_xyz
  'x, y, z'

loop_
  _atom_site_type_symbol
  _atom_site_label
  _atom_site_symmetry_multiplicity
  _atom_site_fract_x
  _atom_site_fract_y
  _atom_site_fract_z
  _atom_site_occupancy
  Ge  Ge1       1.0  0.50000  0.00000  0.00000  1.0000
  Ge  Ge2       1.0  0.75600  0.48700  0.25000  1.0000
  Ge  Ge3       1.0  0.50000  0.00000  0.50000  1.0000
  Ge  Ge4       1.0  0.24400  0.51300  0.75000  1.0000
  Pt  Pt1       1.0  0.16000  0.67900  0.05880  1.0000
  Pt  Pt2       1.0  0.96600  0.06790  0.25000  1.0000
  Pt  Pt3       1.0  0.16000  0.67900  0.44100  1.0000
  Pt  Pt4       1.0  0.84000  0.32100  0.55900  1.0000
  Pt  Pt5       1.0  0.03400  0.93200  0.75000  1.0000
  Pt  Pt6       1.0  0.84000  0.32100  0.94100  1.0000
