data_image0
_chemical_formula_structural       I6K2Tm2
_chemical_formula_sum              "I6 K2 Tm2"
_cell_length_a       4.12934
_cell_length_b       8.284
_cell_length_c       11.5692
_cell_angle_alpha    90.0001
_cell_angle_beta     90
_cell_angle_gamma    75.5677

_space_group_name_H-M_alt    "P 1"
_space_group_IT_number       1

loop_
  _space_group_symop_operation_xyz
  'x, y, z'

loop_
  _atom_site_type_symbol
  _atom_site_label
  _atom_site_symmetry_multiplicity
  _atom_site_fract_x
  _atom_site_fract_y
  _atom_site_fract_z
  _atom_site_occupancy
  I   I1        1.0  0.36400  0.27300  0.05340  1.0000
  I   I2        1.0  0.05950  0.88100  0.25000  1.0000
  I   I3        1.0  0.36400  0.27300  0.44700  1.0000
  I   I4        1.0  0.63600  0.72700  0.55300  1.0000
  I   I5        1.0  0.94100  0.11900  0.75000  1.0000
  I   I6        1.0  0.63600  0.72700  0.94700  1.0000
  K   K1        1.0  0.74300  0.51400  0.25000  1.0000
  K   K2        1.0  0.25700  0.48600  0.75000  1.0000
  Tm  Tm1       1.0  0.00000  0.00000  0.00000  1.0000
  Tm  Tm2       1.0  0.00000  0.00000  0.50000  1.0000
