data_image0
_chemical_formula_structural       Si6Tb4
_chemical_formula_sum              "Si6 Tb4"
_cell_length_a       4.33887
_cell_length_b       4.20105
_cell_length_c       12.119
_cell_angle_alpha    80.0188
_cell_angle_beta     90
_cell_angle_gamma    90

_space_group_name_H-M_alt    "P 1"
_space_group_IT_number       1

loop_
  _space_group_symop_operation_xyz
  'x, y, z'

loop_
  _atom_site_type_symbol
  _atom_site_label
  _atom_site_symmetry_multiplicity
  _atom_site_fract_x
  _atom_site_fract_y
  _atom_site_fract_z
  _atom_site_occupancy
  Si  Si1       1.0  0.25000  0.48100  0.03890  1.0000
  Si  Si2       1.0  0.25000  0.93200  0.13500  1.0000
  Si  Si3       1.0  0.25000  0.83600  0.32800  1.0000
  Si  Si4       1.0  0.75000  0.16400  0.67200  1.0000
  Si  Si5       1.0  0.75000  0.06770  0.86500  1.0000
  Si  Si6       1.0  0.75000  0.51900  0.96100  1.0000
  Tb  Tb1       1.0  0.75000  0.38500  0.23000  1.0000
  Tb  Tb2       1.0  0.25000  0.25300  0.49400  1.0000
  Tb  Tb3       1.0  0.75000  0.74700  0.50600  1.0000
  Tb  Tb4       1.0  0.25000  0.61500  0.77000  1.0000
