data_image0
_chemical_formula_structural       Ce2Ir4Sn4
_chemical_formula_sum              "Ce2 Ir4 Sn4"
_cell_length_a       4.50958
_cell_length_b       4.50958
_cell_length_c       10.9204
_cell_angle_alpha    90
_cell_angle_beta     90
_cell_angle_gamma    90

_space_group_name_H-M_alt    "P 1"
_space_group_IT_number       1

loop_
  _space_group_symop_operation_xyz
  'x, y, z'

loop_
  _atom_site_type_symbol
  _atom_site_label
  _atom_site_symmetry_multiplicity
  _atom_site_fract_x
  _atom_site_fract_y
  _atom_site_fract_z
  _atom_site_occupancy
  Ce  Ce1       1.0  0.00000  0.50000  0.24800  1.0000
  Ce  Ce2       1.0  0.50000  0.00000  0.75200  1.0000
  Ir  Ir1       1.0  0.00000  0.00000  0.00000  1.0000
  Ir  Ir2       1.0  0.50000  0.50000  0.00000  1.0000
  Ir  Ir3       1.0  0.50000  0.00000  0.36800  1.0000
  Ir  Ir4       1.0  0.00000  0.50000  0.63200  1.0000
  Sn  Sn1       1.0  0.50000  0.00000  0.13100  1.0000
  Sn  Sn2       1.0  0.00000  0.00000  0.50000  1.0000
  Sn  Sn3       1.0  0.50000  0.50000  0.50000  1.0000
  Sn  Sn4       1.0  0.00000  0.50000  0.86900  1.0000
