data_image0
_chemical_formula_structural       As4Mn6
_chemical_formula_sum              "As4 Mn6"
_cell_length_a       3.4645
_cell_length_b       6.6291
_cell_length_c       6.72693
_cell_angle_alpha    91.4295
_cell_angle_beta     104.922
_cell_angle_gamma    105.148

_space_group_name_H-M_alt    "P 1"
_space_group_IT_number       1

loop_
  _space_group_symop_operation_xyz
  'x, y, z'

loop_
  _atom_site_type_symbol
  _atom_site_label
  _atom_site_symmetry_multiplicity
  _atom_site_fract_x
  _atom_site_fract_y
  _atom_site_fract_z
  _atom_site_occupancy
  As  As1       1.0  0.92900  0.68000  0.17900  1.0000
  As  As2       1.0  0.28500  0.22500  0.34500  1.0000
  As  As3       1.0  0.71500  0.77500  0.65500  1.0000
  As  As4       1.0  0.07050  0.32000  0.82100  1.0000
  Mn  Mn1       1.0  0.00000  0.00000  0.00000  1.0000
  Mn  Mn2       1.0  0.69800  0.30400  0.09090  1.0000
  Mn  Mn3       1.0  0.63100  0.93500  0.32600  1.0000
  Mn  Mn4       1.0  0.00000  0.50000  0.50000  1.0000
  Mn  Mn5       1.0  0.36900  0.06480  0.67400  1.0000
  Mn  Mn6       1.0  0.30200  0.69600  0.90900  1.0000
