data_image0
_chemical_formula_structural       F2K2O4S2
_chemical_formula_sum              "F2 K2 O4 S2"
_cell_length_a       6.63312
_cell_length_b       5.53535
_cell_length_c       4.52475
_cell_angle_alpha    90
_cell_angle_beta     107.056
_cell_angle_gamma    90

_space_group_name_H-M_alt    "P 1"
_space_group_IT_number       1

loop_
  _space_group_symop_operation_xyz
  'x, y, z'

loop_
  _atom_site_type_symbol
  _atom_site_label
  _atom_site_symmetry_multiplicity
  _atom_site_fract_x
  _atom_site_fract_y
  _atom_site_fract_z
  _atom_site_occupancy
  F   F1        1.0  0.11800  0.75000  0.18100  1.0000
  F   F2        1.0  0.88200  0.25000  0.81900  1.0000
  K   K1        1.0  0.28800  0.25000  0.16200  1.0000
  K   K2        1.0  0.71200  0.75000  0.83800  1.0000
  O   O1        1.0  0.69100  0.03010  0.32800  1.0000
  O   O2        1.0  0.69100  0.47000  0.32800  1.0000
  O   O3        1.0  0.30900  0.53000  0.67200  1.0000
  O   O4        1.0  0.30900  0.97000  0.67200  1.0000
  S   S1        1.0  0.82200  0.25000  0.39500  1.0000
  S   S2        1.0  0.17800  0.75000  0.60500  1.0000
