data_image0
_chemical_formula_structural       Nd2Se6Yb2
_chemical_formula_sum              "Nd2 Se6 Yb2"
_cell_length_a       4.11748
_cell_length_b       7.51818
_cell_length_c       9.23991
_cell_angle_alpha    90
_cell_angle_beta     90
_cell_angle_gamma    74.1074

_space_group_name_H-M_alt    "P 1"
_space_group_IT_number       1

loop_
  _space_group_symop_operation_xyz
  'x, y, z'

loop_
  _atom_site_type_symbol
  _atom_site_label
  _atom_site_symmetry_multiplicity
  _atom_site_fract_x
  _atom_site_fract_y
  _atom_site_fract_z
  _atom_site_occupancy
  Nd  Nd1       1.0  0.75100  0.49900  0.25000  1.0000
  Nd  Nd2       1.0  0.24900  0.50100  0.75000  1.0000
  Se  Se1       1.0  0.35900  0.28200  0.07590  1.0000
  Se  Se2       1.0  0.11000  0.78100  0.25000  1.0000
  Se  Se3       1.0  0.35900  0.28200  0.42400  1.0000
  Se  Se4       1.0  0.64100  0.71800  0.57600  1.0000
  Se  Se5       1.0  0.89000  0.21900  0.75000  1.0000
  Se  Se6       1.0  0.64100  0.71800  0.92400  1.0000
  Yb  Yb1       1.0  0.00000  0.00000  0.00000  1.0000
  Yb  Yb2       1.0  0.00000  0.00000  0.50000  1.0000
