data_image0
_chemical_formula_structural       F8Pt2
_chemical_formula_sum              "F8 Pt2"
_cell_length_a       5.27879
_cell_length_b       5.27879
_cell_length_c       5.43988
_cell_angle_alpha    104.627
_cell_angle_beta     104.627
_cell_angle_gamma    118.654

_space_group_name_H-M_alt    "P 1"
_space_group_IT_number       1

loop_
  _space_group_symop_operation_xyz
  'x, y, z'

loop_
  _atom_site_type_symbol
  _atom_site_label
  _atom_site_symmetry_multiplicity
  _atom_site_fract_x
  _atom_site_fract_y
  _atom_site_fract_z
  _atom_site_occupancy
  F   F1        1.0  0.48400  0.23200  0.15800  1.0000
  F   F2        1.0  0.97900  0.72200  0.16600  1.0000
  F   F3        1.0  0.56300  0.80600  0.33400  1.0000
  F   F4        1.0  0.07590  0.32400  0.34200  1.0000
  F   F5        1.0  0.98200  0.73400  0.65800  1.0000
  F   F6        1.0  0.47200  0.22900  0.66600  1.0000
  F   F7        1.0  0.55600  0.81300  0.83400  1.0000
  F   F8        1.0  0.07420  0.32600  0.84200  1.0000
  Pt  Pt1       1.0  0.00474  0.00474  0.00000  1.0000
  Pt  Pt2       1.0  0.75500  0.25500  0.50000  1.0000
