data_image0
_chemical_formula_structural       Cd2F6Na2
_chemical_formula_sum              "Cd2 F6 Na2"
_cell_length_a       5.86968
_cell_length_b       5.86968
_cell_length_c       5.86968
_cell_angle_alpha    57.6649
_cell_angle_beta     57.6649
_cell_angle_gamma    57.6649

_space_group_name_H-M_alt    "P 1"
_space_group_IT_number       1

loop_
  _space_group_symop_operation_xyz
  'x, y, z'

loop_
  _atom_site_type_symbol
  _atom_site_label
  _atom_site_symmetry_multiplicity
  _atom_site_fract_x
  _atom_site_fract_y
  _atom_site_fract_z
  _atom_site_occupancy
  Cd  Cd1       1.0  0.00583  0.00583  0.00584  1.0000
  Cd  Cd2       1.0  0.50600  0.50600  0.50600  1.0000
  F   F1        1.0  0.39800  0.69600  0.10400  1.0000
  F   F2        1.0  0.89800  0.60400  0.19600  1.0000
  F   F3        1.0  0.69600  0.10400  0.39800  1.0000
  F   F4        1.0  0.19600  0.89800  0.60400  1.0000
  F   F5        1.0  0.10400  0.39800  0.69600  1.0000
  F   F6        1.0  0.60400  0.19600  0.89800  1.0000
  Na  Na1       1.0  0.29100  0.29100  0.29100  1.0000
  Na  Na2       1.0  0.79100  0.79100  0.79100  1.0000
