data_image0
_chemical_formula_structural       Au2Sn8
_chemical_formula_sum              "Au2 Sn8"
_cell_length_a       6.7912
_cell_length_b       6.58407
_cell_length_c       6.58651
_cell_angle_alpha    90
_cell_angle_beta     119.008
_cell_angle_gamma    90

_space_group_name_H-M_alt    "P 1"
_space_group_IT_number       1

loop_
  _space_group_symop_operation_xyz
  'x, y, z'

loop_
  _atom_site_type_symbol
  _atom_site_label
  _atom_site_symmetry_multiplicity
  _atom_site_fract_x
  _atom_site_fract_y
  _atom_site_fract_z
  _atom_site_occupancy
  Au  Au1       1.0  0.98500  0.00000  0.99300  1.0000
  Au  Au2       1.0  0.98500  0.50000  0.49300  1.0000
  Sn  Sn1       1.0  0.72200  0.33300  0.02350  1.0000
  Sn  Sn2       1.0  0.72200  0.83300  0.19800  1.0000
  Sn  Sn3       1.0  0.24600  0.66700  0.28600  1.0000
  Sn  Sn4       1.0  0.24600  0.16700  0.46000  1.0000
  Sn  Sn5       1.0  0.72200  0.16700  0.52400  1.0000
  Sn  Sn6       1.0  0.72200  0.66700  0.69800  1.0000
  Sn  Sn7       1.0  0.24600  0.83300  0.78600  1.0000
  Sn  Sn8       1.0  0.24600  0.33300  0.96000  1.0000
