data_image0
_chemical_formula_structural       Be2Cs2H6
_chemical_formula_sum              "Be2 Cs2 H6"
_cell_length_a       4.91519
_cell_length_b       5.76328
_cell_length_c       7.60127
_cell_angle_alpha    90
_cell_angle_beta     110.104
_cell_angle_gamma    90

_space_group_name_H-M_alt    "P 1"
_space_group_IT_number       1

loop_
  _space_group_symop_operation_xyz
  'x, y, z'

loop_
  _atom_site_type_symbol
  _atom_site_label
  _atom_site_symmetry_multiplicity
  _atom_site_fract_x
  _atom_site_fract_y
  _atom_site_fract_z
  _atom_site_occupancy
  Be  Be1       1.0  0.23900  0.75000  0.24000  1.0000
  Be  Be2       1.0  0.76100  0.25000  0.76000  1.0000
  Cs  Cs1       1.0  0.82000  0.25000  0.23400  1.0000
  Cs  Cs2       1.0  0.18000  0.75000  0.76600  1.0000
  H   H1        1.0  0.30500  0.54100  0.16900  1.0000
  H   H2        1.0  0.30500  0.95900  0.16900  1.0000
  H   H3        1.0  0.08580  0.75000  0.36500  1.0000
  H   H4        1.0  0.91400  0.25000  0.63500  1.0000
  H   H5        1.0  0.69500  0.04060  0.83100  1.0000
  H   H6        1.0  0.69500  0.45900  0.83100  1.0000
