data_image0
_chemical_formula_structural       La2Se6Yb2
_chemical_formula_sum              "La2 Se6 Yb2"
_cell_length_a       4.15698
_cell_length_b       7.06658
_cell_length_c       10.031
_cell_angle_alpha    90
_cell_angle_beta     90
_cell_angle_gamma    72.8946

_space_group_name_H-M_alt    "P 1"
_space_group_IT_number       1

loop_
  _space_group_symop_operation_xyz
  'x, y, z'

loop_
  _atom_site_type_symbol
  _atom_site_label
  _atom_site_symmetry_multiplicity
  _atom_site_fract_x
  _atom_site_fract_y
  _atom_site_fract_z
  _atom_site_occupancy
  La  La1       1.0  0.74500  0.51000  0.25000  1.0000
  La  La2       1.0  0.25500  0.49000  0.75000  1.0000
  Se  Se1       1.0  0.35100  0.29800  0.07160  1.0000
  Se  Se2       1.0  0.08960  0.82100  0.25000  1.0000
  Se  Se3       1.0  0.35100  0.29800  0.42800  1.0000
  Se  Se4       1.0  0.64900  0.70200  0.57200  1.0000
  Se  Se5       1.0  0.91000  0.17900  0.75000  1.0000
  Se  Se6       1.0  0.64900  0.70200  0.92800  1.0000
  Yb  Yb1       1.0  0.00000  0.00000  0.00000  1.0000
  Yb  Yb2       1.0  0.00000  0.00000  0.50000  1.0000
