data_image0
_chemical_formula_structural       La2S6Yb2
_chemical_formula_sum              "La2 S6 Yb2"
_cell_length_a       4.04695
_cell_length_b       7.25672
_cell_length_c       8.8298
_cell_angle_alpha    90
_cell_angle_beta     90
_cell_angle_gamma    73.8089

_space_group_name_H-M_alt    "P 1"
_space_group_IT_number       1

loop_
  _space_group_symop_operation_xyz
  'x, y, z'

loop_
  _atom_site_type_symbol
  _atom_site_label
  _atom_site_symmetry_multiplicity
  _atom_site_fract_x
  _atom_site_fract_y
  _atom_site_fract_z
  _atom_site_occupancy
  La  La1       1.0  0.74800  0.50500  0.25000  1.0000
  La  La2       1.0  0.25200  0.49500  0.75000  1.0000
  S   S1        1.0  0.36300  0.27500  0.08220  1.0000
  S   S2        1.0  0.10800  0.78400  0.25000  1.0000
  S   S3        1.0  0.36300  0.27500  0.41800  1.0000
  S   S4        1.0  0.63700  0.72500  0.58200  1.0000
  S   S5        1.0  0.89200  0.21600  0.75000  1.0000
  S   S6        1.0  0.63700  0.72500  0.91800  1.0000
  Yb  Yb1       1.0  0.00000  0.00000  0.00000  1.0000
  Yb  Yb2       1.0  0.00000  0.00000  0.50000  1.0000
