data_image0
_chemical_formula_structural       As6Rb4
_chemical_formula_sum              "As6 Rb4"
_cell_length_a       6.91997
_cell_length_b       6.91997
_cell_length_c       9.0241
_cell_angle_alpha    110.381
_cell_angle_beta     110.381
_cell_angle_gamma    95.2608

_space_group_name_H-M_alt    "P 1"
_space_group_IT_number       1

loop_
  _space_group_symop_operation_xyz
  'x, y, z'

loop_
  _atom_site_type_symbol
  _atom_site_label
  _atom_site_symmetry_multiplicity
  _atom_site_fract_x
  _atom_site_fract_y
  _atom_site_fract_z
  _atom_site_occupancy
  As  As1       1.0  0.30300  0.30300  0.15700  1.0000
  As  As2       1.0  0.85400  0.85400  0.15700  1.0000
  As  As3       1.0  0.15800  0.15800  0.31600  1.0000
  As  As4       1.0  0.84200  0.84200  0.68400  1.0000
  As  As5       1.0  0.14600  0.14600  0.84300  1.0000
  As  As6       1.0  0.69700  0.69700  0.84300  1.0000
  Rb  Rb1       1.0  0.73600  0.26400  0.00000  1.0000
  Rb  Rb2       1.0  0.26400  0.73600  0.00000  1.0000
  Rb  Rb3       1.0  0.75000  0.25000  0.50000  1.0000
  Rb  Rb4       1.0  0.25000  0.75000  0.50000  1.0000
