data_image0
_chemical_formula_structural       F6HoNaRb2
_chemical_formula_sum              "F6 Ho1 Na1 Rb2"
_cell_length_a       6.07712
_cell_length_b       6.07712
_cell_length_c       6.1011
_cell_angle_alpha    119.87
_cell_angle_beta     119.87
_cell_angle_gamma    90

_space_group_name_H-M_alt    "P 1"
_space_group_IT_number       1

loop_
  _space_group_symop_operation_xyz
  'x, y, z'

loop_
  _atom_site_type_symbol
  _atom_site_label
  _atom_site_symmetry_multiplicity
  _atom_site_fract_x
  _atom_site_fract_y
  _atom_site_fract_z
  _atom_site_occupancy
  F   F1        1.0  0.27800  0.22800  0.00000  1.0000
  F   F2        1.0  0.22800  0.72200  0.00000  1.0000
  F   F3        1.0  0.77200  0.27800  0.00000  1.0000
  F   F4        1.0  0.72200  0.77200  0.00000  1.0000
  F   F5        1.0  0.74700  0.74700  0.49400  1.0000
  F   F6        1.0  0.25300  0.25300  0.50600  1.0000
  Ho  Ho1       1.0  0.50000  0.50000  0.00000  1.0000
  Na  Na1       1.0  0.00000  0.00000  0.00000  1.0000
  Rb  Rb1       1.0  0.75000  0.25000  0.50000  1.0000
  Rb  Rb2       1.0  0.25000  0.75000  0.50000  1.0000
