data_image0
_chemical_formula_structural       Pr2Se6Yb2
_chemical_formula_sum              "Pr2 Se6 Yb2"
_cell_length_a       4.13783
_cell_length_b       7.53841
_cell_length_c       9.24958
_cell_angle_alpha    90
_cell_angle_beta     90
_cell_angle_gamma    74.0708

_space_group_name_H-M_alt    "P 1"
_space_group_IT_number       1

loop_
  _space_group_symop_operation_xyz
  'x, y, z'

loop_
  _atom_site_type_symbol
  _atom_site_label
  _atom_site_symmetry_multiplicity
  _atom_site_fract_x
  _atom_site_fract_y
  _atom_site_fract_z
  _atom_site_occupancy
  Pr  Pr1       1.0  0.75100  0.49900  0.25000  1.0000
  Pr  Pr2       1.0  0.24900  0.50100  0.75000  1.0000
  Se  Se1       1.0  0.36000  0.28100  0.07530  1.0000
  Se  Se2       1.0  0.10900  0.78200  0.25000  1.0000
  Se  Se3       1.0  0.36000  0.28100  0.42500  1.0000
  Se  Se4       1.0  0.64000  0.71900  0.57500  1.0000
  Se  Se5       1.0  0.89100  0.21800  0.75000  1.0000
  Se  Se6       1.0  0.64000  0.71900  0.92500  1.0000
  Yb  Yb1       1.0  0.00000  0.00000  0.00000  1.0000
  Yb  Yb2       1.0  0.00000  0.00000  0.50000  1.0000
