data_image0
_chemical_formula_structural       Eu6Ga4
_chemical_formula_sum              "Eu6 Ga4"
_cell_length_a       5.89962
_cell_length_b       5.89962
_cell_length_c       8.54619
_cell_angle_alpha    103.575
_cell_angle_beta     76.425
_cell_angle_gamma    90.9866

_space_group_name_H-M_alt    "P 1"
_space_group_IT_number       1

loop_
  _space_group_symop_operation_xyz
  'x, y, z'

loop_
  _atom_site_type_symbol
  _atom_site_label
  _atom_site_symmetry_multiplicity
  _atom_site_fract_x
  _atom_site_fract_y
  _atom_site_fract_z
  _atom_site_occupancy
  Eu  Eu1       1.0  0.74700  0.33500  0.03100  1.0000
  Eu  Eu2       1.0  0.16900  0.16900  0.25000  1.0000
  Eu  Eu3       1.0  0.33500  0.74700  0.46900  1.0000
  Eu  Eu4       1.0  0.66500  0.25300  0.53100  1.0000
  Eu  Eu5       1.0  0.83100  0.83100  0.75000  1.0000
  Eu  Eu6       1.0  0.25300  0.66500  0.96900  1.0000
  Ga  Ga1       1.0  0.69300  0.88400  0.15900  1.0000
  Ga  Ga2       1.0  0.88400  0.69300  0.34100  1.0000
  Ga  Ga3       1.0  0.11600  0.30700  0.65900  1.0000
  Ga  Ga4       1.0  0.30700  0.11600  0.84100  1.0000
