data_image0
_chemical_formula_structural       Ce4In2Ni4
_chemical_formula_sum              "Ce4 In2 Ni4"
_cell_length_a       7.61845
_cell_length_b       7.61845
_cell_length_c       3.90287
_cell_angle_alpha    90
_cell_angle_beta     90
_cell_angle_gamma    90

_space_group_name_H-M_alt    "P 1"
_space_group_IT_number       1

loop_
  _space_group_symop_operation_xyz
  'x, y, z'

loop_
  _atom_site_type_symbol
  _atom_site_label
  _atom_site_symmetry_multiplicity
  _atom_site_fract_x
  _atom_site_fract_y
  _atom_site_fract_z
  _atom_site_occupancy
  Ce  Ce1       1.0  0.32500  0.17500  0.50000  1.0000
  Ce  Ce2       1.0  0.82500  0.32500  0.50000  1.0000
  Ce  Ce3       1.0  0.17500  0.67500  0.50000  1.0000
  Ce  Ce4       1.0  0.67500  0.82500  0.50000  1.0000
  In  In1       1.0  0.00000  0.00000  0.00000  1.0000
  In  In2       1.0  0.50000  0.50000  0.00000  1.0000
  Ni  Ni1       1.0  0.61900  0.11900  0.00000  1.0000
  Ni  Ni2       1.0  0.11900  0.38100  0.00000  1.0000
  Ni  Ni3       1.0  0.88100  0.61900  0.00000  1.0000
  Ni  Ni4       1.0  0.38100  0.88100  0.00000  1.0000
