data_image0
_chemical_formula_structural       I4Te4Th2
_chemical_formula_sum              "I4 Te4 Th2"
_cell_length_a       7.82963
_cell_length_b       8.21407
_cell_length_c       8.22005
_cell_angle_alpha    98.2878
_cell_angle_beta     61.5591
_cell_angle_gamma    107.618

_space_group_name_H-M_alt    "P 1"
_space_group_IT_number       1

loop_
  _space_group_symop_operation_xyz
  'x, y, z'

loop_
  _atom_site_type_symbol
  _atom_site_label
  _atom_site_symmetry_multiplicity
  _atom_site_fract_x
  _atom_site_fract_y
  _atom_site_fract_z
  _atom_site_occupancy
  I   I1        1.0  0.55600  0.24100  0.42200  1.0000
  I   I2        1.0  0.02270  0.75900  0.42200  1.0000
  I   I3        1.0  0.97700  0.24100  0.57800  1.0000
  I   I4        1.0  0.44400  0.75900  0.57800  1.0000
  Te  Te1       1.0  0.32800  0.10500  0.00000  1.0000
  Te  Te2       1.0  0.11300  0.31600  0.00000  1.0000
  Te  Te3       1.0  0.88700  0.68400  0.00000  1.0000
  Te  Te4       1.0  0.67200  0.89500  0.00000  1.0000
  Th  Th1       1.0  0.85700  1.00000  0.28700  1.0000
  Th  Th2       1.0  0.14300  0.00000  0.71300  1.0000
