data_image0
_chemical_formula_structural       Ce2Se6Yb2
_chemical_formula_sum              "Ce2 Se6 Yb2"
_cell_length_a       4.16797
_cell_length_b       7.5247
_cell_length_c       9.33171
_cell_angle_alpha    90
_cell_angle_beta     90
_cell_angle_gamma    73.9216

_space_group_name_H-M_alt    "P 1"
_space_group_IT_number       1

loop_
  _space_group_symop_operation_xyz
  'x, y, z'

loop_
  _atom_site_type_symbol
  _atom_site_label
  _atom_site_symmetry_multiplicity
  _atom_site_fract_x
  _atom_site_fract_y
  _atom_site_fract_z
  _atom_site_occupancy
  Ce  Ce1       1.0  0.75100  0.49900  0.25000  1.0000
  Ce  Ce2       1.0  0.24900  0.50100  0.75000  1.0000
  Se  Se1       1.0  0.36000  0.27900  0.07490  1.0000
  Se  Se2       1.0  0.10700  0.78600  0.25000  1.0000
  Se  Se3       1.0  0.36000  0.27900  0.42500  1.0000
  Se  Se4       1.0  0.64000  0.72100  0.57500  1.0000
  Se  Se5       1.0  0.89300  0.21400  0.75000  1.0000
  Se  Se6       1.0  0.64000  0.72100  0.92500  1.0000
  Yb  Yb1       1.0  0.00000  0.00000  0.00000  1.0000
  Yb  Yb2       1.0  0.00000  0.00000  0.50000  1.0000
