data_image0
_chemical_formula_structural       Er6Ru4
_chemical_formula_sum              "Er6 Ru4"
_cell_length_a       7.56581
_cell_length_b       7.56577
_cell_length_c       4.62051
_cell_angle_alpha    90
_cell_angle_beta     90
_cell_angle_gamma    120

_space_group_name_H-M_alt    "P 1"
_space_group_IT_number       1

loop_
  _space_group_symop_operation_xyz
  'x, y, z'

loop_
  _atom_site_type_symbol
  _atom_site_label
  _atom_site_symmetry_multiplicity
  _atom_site_fract_x
  _atom_site_fract_y
  _atom_site_fract_z
  _atom_site_occupancy
  Er  Er1       1.0  0.38500  0.08150  0.25000  1.0000
  Er  Er2       1.0  0.91900  0.30400  0.25000  1.0000
  Er  Er3       1.0  0.69600  0.61500  0.25000  1.0000
  Er  Er4       1.0  0.30400  0.38500  0.75000  1.0000
  Er  Er5       1.0  0.08150  0.69600  0.75000  1.0000
  Er  Er6       1.0  0.61500  0.91900  0.75000  1.0000
  Ru  Ru1       1.0  0.00000  0.00000  0.00000  1.0000
  Ru  Ru2       1.0  0.33300  0.66700  0.25000  1.0000
  Ru  Ru3       1.0  0.00000  0.00000  0.50000  1.0000
  Ru  Ru4       1.0  0.66700  0.33300  0.75000  1.0000
