data_image0
_chemical_formula_structural       As6Cs4
_chemical_formula_sum              "As6 Cs4"
_cell_length_a       7.23604
_cell_length_b       7.23604
_cell_length_c       9.38152
_cell_angle_alpha    111.066
_cell_angle_beta     111.066
_cell_angle_gamma    93.8982

_space_group_name_H-M_alt    "P 1"
_space_group_IT_number       1

loop_
  _space_group_symop_operation_xyz
  'x, y, z'

loop_
  _atom_site_type_symbol
  _atom_site_label
  _atom_site_symmetry_multiplicity
  _atom_site_fract_x
  _atom_site_fract_y
  _atom_site_fract_z
  _atom_site_occupancy
  As  As1       1.0  0.28700  0.28700  0.15100  1.0000
  As  As2       1.0  0.86400  0.86400  0.15100  1.0000
  As  As3       1.0  0.15300  0.15300  0.30500  1.0000
  As  As4       1.0  0.84700  0.84700  0.69500  1.0000
  As  As5       1.0  0.13600  0.13600  0.84900  1.0000
  As  As6       1.0  0.71300  0.71300  0.84900  1.0000
  Cs  Cs1       1.0  0.72900  0.27100  0.00000  1.0000
  Cs  Cs2       1.0  0.27100  0.72900  0.00000  1.0000
  Cs  Cs3       1.0  0.75000  0.25000  0.50000  1.0000
  Cs  Cs4       1.0  0.25000  0.75000  0.50000  1.0000
