data_image0
_chemical_formula_structural       Br5Cs3Li2
_chemical_formula_sum              "Br5 Cs3 Li2"
_cell_length_a       4.41329
_cell_length_b       6.19751
_cell_length_c       13.3125
_cell_angle_alpha    103.484
_cell_angle_beta     99.5727
_cell_angle_gamma    89.8651

_space_group_name_H-M_alt    "P 1"
_space_group_IT_number       1

loop_
  _space_group_symop_operation_xyz
  'x, y, z'

loop_
  _atom_site_type_symbol
  _atom_site_label
  _atom_site_symmetry_multiplicity
  _atom_site_fract_x
  _atom_site_fract_y
  _atom_site_fract_z
  _atom_site_occupancy
  Br  Br1       1.0  0.26800  0.47300  0.00000  1.0000
  Br  Br2       1.0  0.36800  0.08940  0.23600  1.0000
  Br  Br3       1.0  0.49500  0.64600  0.47800  1.0000
  Br  Br4       1.0  0.01680  0.16800  0.52200  1.0000
  Br  Br5       1.0  0.13300  0.85400  0.76400  1.0000
  Cs  Cs1       1.0  0.75400  0.97600  0.00000  1.0000
  Cs  Cs2       1.0  0.87500  0.60400  0.24600  1.0000
  Cs  Cs3       1.0  0.62900  0.35800  0.75400  1.0000
  Li  Li1       1.0  0.47000  0.22100  0.43100  1.0000
  Li  Li2       1.0  0.03920  0.79100  0.56900  1.0000
