data_image0
_chemical_formula_structural       Mg2Si4Yb4
_chemical_formula_sum              "Mg2 Si4 Yb4"
_cell_length_a       7.21576
_cell_length_b       7.21576
_cell_length_c       4.47133
_cell_angle_alpha    90
_cell_angle_beta     90
_cell_angle_gamma    90

_space_group_name_H-M_alt    "P 1"
_space_group_IT_number       1

loop_
  _space_group_symop_operation_xyz
  'x, y, z'

loop_
  _atom_site_type_symbol
  _atom_site_label
  _atom_site_symmetry_multiplicity
  _atom_site_fract_x
  _atom_site_fract_y
  _atom_site_fract_z
  _atom_site_occupancy
  Mg  Mg1       1.0  0.00000  0.00000  0.00000  1.0000
  Mg  Mg2       1.0  0.50000  0.50000  0.00000  1.0000
  Si  Si1       1.0  0.61700  0.11700  0.00000  1.0000
  Si  Si2       1.0  0.11700  0.38300  0.00000  1.0000
  Si  Si3       1.0  0.88300  0.61700  0.00000  1.0000
  Si  Si4       1.0  0.38300  0.88300  0.00000  1.0000
  Yb  Yb1       1.0  0.32500  0.17500  0.50000  1.0000
  Yb  Yb2       1.0  0.82500  0.32500  0.50000  1.0000
  Yb  Yb3       1.0  0.17500  0.67500  0.50000  1.0000
  Yb  Yb4       1.0  0.67500  0.82500  0.50000  1.0000
