data_image0
_chemical_formula_structural       B2Se6Tl2
_chemical_formula_sum              "B2 Se6 Tl2"
_cell_length_a       6.23716
_cell_length_b       7.25646
_cell_length_c       7.22247
_cell_angle_alpha    109.274
_cell_angle_beta     103.378
_cell_angle_gamma    113.513

_space_group_name_H-M_alt    "P 1"
_space_group_IT_number       1

loop_
  _space_group_symop_operation_xyz
  'x, y, z'

loop_
  _atom_site_type_symbol
  _atom_site_label
  _atom_site_symmetry_multiplicity
  _atom_site_fract_x
  _atom_site_fract_y
  _atom_site_fract_z
  _atom_site_occupancy
  B   B1        1.0  0.34900  0.77300  0.04500  1.0000
  B   B2        1.0  0.80400  0.72800  0.95500  1.0000
  Se  Se1       1.0  0.56400  0.62800  0.10200  1.0000
  Se  Se2       1.0  0.09270  0.07380  0.13000  1.0000
  Se  Se3       1.0  0.41700  0.02800  0.32900  1.0000
  Se  Se4       1.0  0.58800  0.69900  0.67100  1.0000
  Se  Se5       1.0  0.46300  0.94400  0.87000  1.0000
  Se  Se6       1.0  0.96200  0.52600  0.89800  1.0000
  Tl  Tl1       1.0  0.93200  0.45000  0.34200  1.0000
  Tl  Tl2       1.0  0.08980  0.10800  0.65800  1.0000
