data_image0
_chemical_formula_structural       Nb4Te6
_chemical_formula_sum              "Nb4 Te6"
_cell_length_a       3.70147
_cell_length_b       7.85169
_cell_length_c       9.24051
_cell_angle_alpha    98.0254
_cell_angle_beta     101.554
_cell_angle_gamma    103.634

_space_group_name_H-M_alt    "P 1"
_space_group_IT_number       1

loop_
  _space_group_symop_operation_xyz
  'x, y, z'

loop_
  _atom_site_type_symbol
  _atom_site_label
  _atom_site_symmetry_multiplicity
  _atom_site_fract_x
  _atom_site_fract_y
  _atom_site_fract_z
  _atom_site_occupancy
  Nb  Nb1       1.0  0.78600  0.45300  0.11900  1.0000
  Nb  Nb2       1.0  0.12900  0.88600  0.37300  1.0000
  Nb  Nb3       1.0  0.87100  0.11400  0.62700  1.0000
  Nb  Nb4       1.0  0.21400  0.54700  0.88100  1.0000
  Te  Te1       1.0  0.91500  0.78700  0.04210  1.0000
  Te  Te2       1.0  0.73500  0.14600  0.32300  1.0000
  Te  Te3       1.0  0.47400  0.59700  0.35100  1.0000
  Te  Te4       1.0  0.52600  0.40300  0.64900  1.0000
  Te  Te5       1.0  0.26500  0.85400  0.67700  1.0000
  Te  Te6       1.0  0.08540  0.21300  0.95800  1.0000
