data_image0
_chemical_formula_structural       Cl2Mn2O6
_chemical_formula_sum              "Cl2 Mn2 O6"
_cell_length_a       4.80673
_cell_length_b       5.95743
_cell_length_c       5.95743
_cell_angle_alpha    109.819
_cell_angle_beta     90
_cell_angle_gamma    90

_space_group_name_H-M_alt    "P 1"
_space_group_IT_number       1

loop_
  _space_group_symop_operation_xyz
  'x, y, z'

loop_
  _atom_site_type_symbol
  _atom_site_label
  _atom_site_symmetry_multiplicity
  _atom_site_fract_x
  _atom_site_fract_y
  _atom_site_fract_z
  _atom_site_occupancy
  Cl  Cl1       1.0  0.77700  0.87700  0.12300  1.0000
  Cl  Cl2       1.0  0.27700  0.12300  0.87700  1.0000
  Mn  Mn1       1.0  0.90800  0.67300  0.32700  1.0000
  Mn  Mn2       1.0  0.40800  0.32700  0.67300  1.0000
  O   O1        1.0  0.79100  0.41000  0.21000  1.0000
  O   O2        1.0  0.23800  0.67200  0.32800  1.0000
  O   O3        1.0  0.29100  0.21000  0.41000  1.0000
  O   O4        1.0  0.79100  0.79000  0.59000  1.0000
  O   O5        1.0  0.73800  0.32800  0.67200  1.0000
  O   O6        1.0  0.29100  0.59000  0.79000  1.0000
