data_image0
_chemical_formula_structural       C8Ir2
_chemical_formula_sum              "C8 Ir2"
_cell_length_a       4.11191
_cell_length_b       3.77812
_cell_length_c       5.60291
_cell_angle_alpha    90
_cell_angle_beta     80.4475
_cell_angle_gamma    90

_space_group_name_H-M_alt    "P 1"
_space_group_IT_number       1

loop_
  _space_group_symop_operation_xyz
  'x, y, z'

loop_
  _atom_site_type_symbol
  _atom_site_label
  _atom_site_symmetry_multiplicity
  _atom_site_fract_x
  _atom_site_fract_y
  _atom_site_fract_z
  _atom_site_occupancy
  C   C1        1.0  0.55200  0.41700  0.10700  1.0000
  C   C2        1.0  0.30700  0.17100  0.23700  1.0000
  C   C3        1.0  0.69300  0.67100  0.26300  1.0000
  C   C4        1.0  0.44800  0.91700  0.39300  1.0000
  C   C5        1.0  0.55200  0.08270  0.60700  1.0000
  C   C6        1.0  0.30700  0.32900  0.73700  1.0000
  C   C7        1.0  0.69300  0.82900  0.76300  1.0000
  C   C8        1.0  0.44800  0.58300  0.89300  1.0000
  Ir  Ir1       1.0  0.00000  0.00000  0.00000  1.0000
  Ir  Ir2       1.0  0.00000  0.50000  0.50000  1.0000
