data_image0
_chemical_formula_structural       Ge2Pd2S6
_chemical_formula_sum              "Ge2 Pd2 S6"
_cell_length_a       3.49944
_cell_length_b       7.58981
_cell_length_c       9.23104
_cell_angle_alpha    107.078
_cell_angle_beta     90
_cell_angle_gamma    103.329

_space_group_name_H-M_alt    "P 1"
_space_group_IT_number       1

loop_
  _space_group_symop_operation_xyz
  'x, y, z'

loop_
  _atom_site_type_symbol
  _atom_site_label
  _atom_site_symmetry_multiplicity
  _atom_site_fract_x
  _atom_site_fract_y
  _atom_site_fract_z
  _atom_site_occupancy
  Ge  Ge1       1.0  0.08480  0.17000  0.30500  1.0000
  Ge  Ge2       1.0  0.91500  0.83000  0.69500  1.0000
  Pd  Pd1       1.0  0.38800  0.77600  0.02850  1.0000
  Pd  Pd2       1.0  0.61200  0.22400  0.97200  1.0000
  S   S1        1.0  0.17400  0.34800  0.14300  1.0000
  S   S2        1.0  0.92500  0.84900  0.20600  1.0000
  S   S3        1.0  0.62800  0.25600  0.46400  1.0000
  S   S4        1.0  0.37200  0.74400  0.53600  1.0000
  S   S5        1.0  0.07530  0.15100  0.79400  1.0000
  S   S6        1.0  0.82600  0.65200  0.85700  1.0000
