data_image0
_chemical_formula_structural       CaF2
_chemical_formula_sum              "Ca1 F2"
_cell_length_a       3.74462
_cell_length_b       3.74462
_cell_length_c       3.74462
_cell_angle_alpha    119.039
_cell_angle_beta     119.038
_cell_angle_gamma    60.9615

_space_group_name_H-M_alt    "P 1"
_space_group_IT_number       1

loop_
  _space_group_symop_operation_xyz
  'x, y, z'

loop_
  _atom_site_type_symbol
  _atom_site_label
  _atom_site_symmetry_multiplicity
  _atom_site_fract_x
  _atom_site_fract_y
  _atom_site_fract_z
  _atom_site_occupancy
  Ca  Ca1       1.0  0.00000  0.00000  0.00000  1.0000
  F   F1        1.0  0.74800  0.74800  0.25200  1.0000
  F   F2        1.0  0.25200  0.25200  0.74800  1.0000
