data_image0
_chemical_formula_structural       Si4W6
_chemical_formula_sum              "Si4 W6"
_cell_length_a       6.63197
_cell_length_b       6.63197
_cell_length_c       3.31251
_cell_angle_alpha    90
_cell_angle_beta     90
_cell_angle_gamma    90

_space_group_name_H-M_alt    "P 1"
_space_group_IT_number       1

loop_
  _space_group_symop_operation_xyz
  'x, y, z'

loop_
  _atom_site_type_symbol
  _atom_site_label
  _atom_site_symmetry_multiplicity
  _atom_site_fract_x
  _atom_site_fract_y
  _atom_site_fract_z
  _atom_site_occupancy
  Si  Si1       1.0  0.63400  0.13400  0.00000  1.0000
  Si  Si2       1.0  0.13400  0.36600  0.00000  1.0000
  Si  Si3       1.0  0.86600  0.63400  0.00000  1.0000
  Si  Si4       1.0  0.36600  0.86600  0.00000  1.0000
  W   W1        1.0  0.00000  0.00000  0.00000  1.0000
  W   W2        1.0  0.50000  0.50000  0.00000  1.0000
  W   W3        1.0  0.34000  0.16000  0.50000  1.0000
  W   W4        1.0  0.84000  0.34000  0.50000  1.0000
  W   W5        1.0  0.16000  0.66000  0.50000  1.0000
  W   W6        1.0  0.66000  0.84000  0.50000  1.0000
