data_image0
_chemical_formula_structural       Ge8Li4Pr4
_chemical_formula_sum              "Ge8 Li4 Pr4"
_cell_length_a       7.82064
_cell_length_b       3.98118
_cell_length_c       10.7514
_cell_angle_alpha    90
_cell_angle_beta     90
_cell_angle_gamma    90

_space_group_name_H-M_alt    "P 1"
_space_group_IT_number       1

loop_
  _space_group_symop_operation_xyz
  'x, y, z'

loop_
  _atom_site_type_symbol
  _atom_site_label
  _atom_site_symmetry_multiplicity
  _atom_site_fract_x
  _atom_site_fract_y
  _atom_site_fract_z
  _atom_site_occupancy
  Ge  Ge1       1.0  0.71900  0.25000  0.06680  1.0000
  Ge  Ge2       1.0  0.84300  0.75000  0.18300  1.0000
  Ge  Ge3       1.0  0.34300  0.75000  0.31700  1.0000
  Ge  Ge4       1.0  0.21900  0.25000  0.43300  1.0000
  Ge  Ge5       1.0  0.78100  0.75000  0.56700  1.0000
  Ge  Ge6       1.0  0.65700  0.25000  0.68300  1.0000
  Ge  Ge7       1.0  0.15700  0.25000  0.81700  1.0000
  Ge  Ge8       1.0  0.28100  0.75000  0.93300  1.0000
  Li  Li1       1.0  0.50900  0.75000  0.11100  1.0000
  Li  Li2       1.0  0.00935  0.75000  0.38900  1.0000
  Li  Li3       1.0  0.99100  0.25000  0.61100  1.0000
  Li  Li4       1.0  0.49100  0.25000  0.88900  1.0000
  Pr  Pr1       1.0  0.14000  0.25000  0.13400  1.0000
  Pr  Pr2       1.0  0.64000  0.25000  0.36600  1.0000
  Pr  Pr3       1.0  0.36000  0.75000  0.63400  1.0000
  Pr  Pr4       1.0  0.86000  0.75000  0.86600  1.0000
