data_image0
_chemical_formula_structural       Bi4Ni4Tb2
_chemical_formula_sum              "Bi4 Ni4 Tb2"
_cell_length_a       4.60356
_cell_length_b       4.60356
_cell_length_c       10.1459
_cell_angle_alpha    90
_cell_angle_beta     90
_cell_angle_gamma    90

_space_group_name_H-M_alt    "P 1"
_space_group_IT_number       1

loop_
  _space_group_symop_operation_xyz
  'x, y, z'

loop_
  _atom_site_type_symbol
  _atom_site_label
  _atom_site_symmetry_multiplicity
  _atom_site_fract_x
  _atom_site_fract_y
  _atom_site_fract_z
  _atom_site_occupancy
  Bi  Bi1       1.0  0.25000  0.25000  0.12500  1.0000
  Bi  Bi2       1.0  0.75000  0.25000  0.50000  1.0000
  Bi  Bi3       1.0  0.25000  0.75000  0.50000  1.0000
  Bi  Bi4       1.0  0.75000  0.75000  0.87500  1.0000
  Ni  Ni1       1.0  0.75000  0.25000  0.00000  1.0000
  Ni  Ni2       1.0  0.25000  0.75000  0.00000  1.0000
  Ni  Ni3       1.0  0.25000  0.25000  0.37200  1.0000
  Ni  Ni4       1.0  0.75000  0.75000  0.62800  1.0000
  Tb  Tb1       1.0  0.75000  0.75000  0.22500  1.0000
  Tb  Tb2       1.0  0.25000  0.25000  0.77500  1.0000
