data_image0
_chemical_formula_structural       Cd2P2Se6
_chemical_formula_sum              "Cd2 P2 Se6"
_cell_length_a       6.596
_cell_length_b       6.596
_cell_length_c       7.94243
_cell_angle_alpha    65.4657
_cell_angle_beta     114.534
_cell_angle_gamma    120

_space_group_name_H-M_alt    "P 1"
_space_group_IT_number       1

loop_
  _space_group_symop_operation_xyz
  'x, y, z'

loop_
  _atom_site_type_symbol
  _atom_site_label
  _atom_site_symmetry_multiplicity
  _atom_site_fract_x
  _atom_site_fract_y
  _atom_site_fract_z
  _atom_site_occupancy
  Cd  Cd1       1.0  0.83100  0.16900  0.49400  1.0000
  Cd  Cd2       1.0  0.16900  0.83100  0.50600  1.0000
  P   P1        1.0  0.44500  0.55500  0.33600  1.0000
  P   P2        1.0  0.55500  0.44500  0.66400  1.0000
  Se  Se1       1.0  0.40900  0.90300  0.24300  1.0000
  Se  Se2       1.0  0.73800  0.59100  0.24300  1.0000
  Se  Se3       1.0  0.09670  0.26200  0.24300  1.0000
  Se  Se4       1.0  0.90300  0.73800  0.75700  1.0000
  Se  Se5       1.0  0.26200  0.40900  0.75700  1.0000
  Se  Se6       1.0  0.59100  0.09670  0.75700  1.0000
