data_image0
_chemical_formula_structural       Nb6Si4
_chemical_formula_sum              "Nb6 Si4"
_cell_length_a       6.75595
_cell_length_b       6.75595
_cell_length_c       3.51449
_cell_angle_alpha    90
_cell_angle_beta     90
_cell_angle_gamma    90

_space_group_name_H-M_alt    "P 1"
_space_group_IT_number       1

loop_
  _space_group_symop_operation_xyz
  'x, y, z'

loop_
  _atom_site_type_symbol
  _atom_site_label
  _atom_site_symmetry_multiplicity
  _atom_site_fract_x
  _atom_site_fract_y
  _atom_site_fract_z
  _atom_site_occupancy
  Nb  Nb1       1.0  0.00000  0.00000  0.00000  1.0000
  Nb  Nb2       1.0  0.50000  0.50000  0.00000  1.0000
  Nb  Nb3       1.0  0.32900  0.17100  0.50000  1.0000
  Nb  Nb4       1.0  0.82900  0.32900  0.50000  1.0000
  Nb  Nb5       1.0  0.17100  0.67100  0.50000  1.0000
  Nb  Nb6       1.0  0.67100  0.82900  0.50000  1.0000
  Si  Si1       1.0  0.62800  0.12800  0.00000  1.0000
  Si  Si2       1.0  0.12800  0.37200  0.00000  1.0000
  Si  Si3       1.0  0.87200  0.62800  0.00000  1.0000
  Si  Si4       1.0  0.37200  0.87200  0.00000  1.0000
