data_image0
_chemical_formula_structural       Mg2P2Se6
_chemical_formula_sum              "Mg2 P2 Se6"
_cell_length_a       6.44812
_cell_length_b       6.44812
_cell_length_c       8.09443
_cell_angle_alpha    66.5277
_cell_angle_beta     113.472
_cell_angle_gamma    120

_space_group_name_H-M_alt    "P 1"
_space_group_IT_number       1

loop_
  _space_group_symop_operation_xyz
  'x, y, z'

loop_
  _atom_site_type_symbol
  _atom_site_label
  _atom_site_symmetry_multiplicity
  _atom_site_fract_x
  _atom_site_fract_y
  _atom_site_fract_z
  _atom_site_occupancy
  Mg  Mg1       1.0  0.83200  0.16800  0.49700  1.0000
  Mg  Mg2       1.0  0.16800  0.83200  0.50300  1.0000
  P   P1        1.0  0.44800  0.55200  0.34400  1.0000
  P   P2        1.0  0.55200  0.44800  0.65600  1.0000
  Se  Se1       1.0  0.09070  0.24800  0.25900  1.0000
  Se  Se2       1.0  0.75200  0.58400  0.25900  1.0000
  Se  Se3       1.0  0.41600  0.90900  0.25900  1.0000
  Se  Se4       1.0  0.58400  0.09070  0.74100  1.0000
  Se  Se5       1.0  0.24800  0.41600  0.74100  1.0000
  Se  Se6       1.0  0.90900  0.75200  0.74100  1.0000
