data_image0
_chemical_formula_structural       Ce2S6Yb2
_chemical_formula_sum              "Ce2 S6 Yb2"
_cell_length_a       4.02321
_cell_length_b       7.25524
_cell_length_c       8.86039
_cell_angle_alpha    90
_cell_angle_beta     90
_cell_angle_gamma    73.9031

_space_group_name_H-M_alt    "P 1"
_space_group_IT_number       1

loop_
  _space_group_symop_operation_xyz
  'x, y, z'

loop_
  _atom_site_type_symbol
  _atom_site_label
  _atom_site_symmetry_multiplicity
  _atom_site_fract_x
  _atom_site_fract_y
  _atom_site_fract_z
  _atom_site_occupancy
  Ce  Ce1       1.0  0.25200  0.49600  0.00000  1.0000
  Ce  Ce2       1.0  0.74800  0.50400  0.50000  1.0000
  S   S1        1.0  0.89300  0.21400  0.00000  1.0000
  S   S2        1.0  0.63600  0.72300  0.17100  1.0000
  S   S3        1.0  0.35900  0.27700  0.32900  1.0000
  S   S4        1.0  0.10700  0.78600  0.50000  1.0000
  S   S5        1.0  0.36400  0.27700  0.67100  1.0000
  S   S6        1.0  0.64100  0.72300  0.82900  1.0000
  Yb  Yb1       1.0  0.99700  0.00000  0.25000  1.0000
  Yb  Yb2       1.0  0.00323  0.00000  0.75000  1.0000
