data_image0
_chemical_formula_structural       Ge8Li4Yb4
_chemical_formula_sum              "Ge8 Li4 Yb4"
_cell_length_a       7.90411
_cell_length_b       3.90882
_cell_length_c       10.5547
_cell_angle_alpha    90
_cell_angle_beta     90
_cell_angle_gamma    90

_space_group_name_H-M_alt    "P 1"
_space_group_IT_number       1

loop_
  _space_group_symop_operation_xyz
  'x, y, z'

loop_
  _atom_site_type_symbol
  _atom_site_label
  _atom_site_symmetry_multiplicity
  _atom_site_fract_x
  _atom_site_fract_y
  _atom_site_fract_z
  _atom_site_occupancy
  Ge  Ge1       1.0  0.23200  0.25000  0.06090  1.0000
  Ge  Ge2       1.0  0.34500  0.75000  0.18100  1.0000
  Ge  Ge3       1.0  0.84500  0.75000  0.31900  1.0000
  Ge  Ge4       1.0  0.73200  0.25000  0.43900  1.0000
  Ge  Ge5       1.0  0.26800  0.75000  0.56100  1.0000
  Ge  Ge6       1.0  0.15500  0.25000  0.68100  1.0000
  Ge  Ge7       1.0  0.65500  0.25000  0.81900  1.0000
  Ge  Ge8       1.0  0.76800  0.75000  0.93900  1.0000
  Li  Li1       1.0  0.01080  0.75000  0.10900  1.0000
  Li  Li2       1.0  0.51100  0.75000  0.39100  1.0000
  Li  Li3       1.0  0.48900  0.25000  0.60900  1.0000
  Li  Li4       1.0  0.98900  0.25000  0.89100  1.0000
  Yb  Yb1       1.0  0.63500  0.25000  0.13600  1.0000
  Yb  Yb2       1.0  0.13500  0.25000  0.36400  1.0000
  Yb  Yb3       1.0  0.86500  0.75000  0.63600  1.0000
  Yb  Yb4       1.0  0.36500  0.75000  0.86400  1.0000
