data_image0
_chemical_formula_structural       H6Li2Mg2
_chemical_formula_sum              "H6 Li2 Mg2"
_cell_length_a       4.85269
_cell_length_b       4.85269
_cell_length_c       5.1572
_cell_angle_alpha    90
_cell_angle_beta     61.9347
_cell_angle_gamma    120

_space_group_name_H-M_alt    "P 1"
_space_group_IT_number       1

loop_
  _space_group_symop_operation_xyz
  'x, y, z'

loop_
  _atom_site_type_symbol
  _atom_site_label
  _atom_site_symmetry_multiplicity
  _atom_site_fract_x
  _atom_site_fract_y
  _atom_site_fract_z
  _atom_site_occupancy
  H   H1        1.0  0.90700  0.60500  0.19100  1.0000
  H   H2        1.0  0.20400  0.30200  0.19100  1.0000
  H   H3        1.0  0.50700  0.90200  0.19100  1.0000
  H   H4        1.0  0.50700  0.10500  0.69100  1.0000
  H   H5        1.0  0.90700  0.80200  0.69100  1.0000
  H   H6        1.0  0.20400  0.40200  0.69100  1.0000
  Li  Li1       1.0  0.42200  0.21100  0.36700  1.0000
  Li  Li2       1.0  0.42200  0.71100  0.86700  1.0000
  Mg  Mg1       1.0  0.00008  0.50000  0.50000  1.0000
  Mg  Mg2       1.0  0.00008  0.00004  0.00000  1.0000
