data_image0
_chemical_formula_structural       Fe2Ge4Tm2
_chemical_formula_sum              "Fe2 Ge4 Tm2"
_cell_length_a       4.15762
_cell_length_b       4.09142
_cell_length_c       8.58444
_cell_angle_alpha    76.2135
_cell_angle_beta     90
_cell_angle_gamma    90

_space_group_name_H-M_alt    "P 1"
_space_group_IT_number       1

loop_
  _space_group_symop_operation_xyz
  'x, y, z'

loop_
  _atom_site_type_symbol
  _atom_site_label
  _atom_site_symmetry_multiplicity
  _atom_site_fract_x
  _atom_site_fract_y
  _atom_site_fract_z
  _atom_site_occupancy
  Fe  Fe1       1.0  0.75000  0.32100  0.35900  1.0000
  Fe  Fe2       1.0  0.25000  0.67900  0.64100  1.0000
  Ge  Ge1       1.0  0.75000  0.45600  0.08880  1.0000
  Ge  Ge2       1.0  0.25000  0.25100  0.49800  1.0000
  Ge  Ge3       1.0  0.75000  0.74900  0.50200  1.0000
  Ge  Ge4       1.0  0.25000  0.54400  0.91100  1.0000
  Tm  Tm1       1.0  0.25000  0.89000  0.22000  1.0000
  Tm  Tm2       1.0  0.75000  0.11000  0.78000  1.0000
