data_image0
_chemical_formula_structural       C4Ce4Cl2
_chemical_formula_sum              "C4 Ce4 Cl2"
_cell_length_a       4.20966
_cell_length_b       6.81791
_cell_length_c       7.78304
_cell_angle_alpha    101.491
_cell_angle_beta     105.69
_cell_angle_gamma    90

_space_group_name_H-M_alt    "P 1"
_space_group_IT_number       1

loop_
  _space_group_symop_operation_xyz
  'x, y, z'

loop_
  _atom_site_type_symbol
  _atom_site_label
  _atom_site_symmetry_multiplicity
  _atom_site_fract_x
  _atom_site_fract_y
  _atom_site_fract_z
  _atom_site_occupancy
  C   C1        1.0  0.08330  0.52600  0.44400  1.0000
  C   C2        1.0  0.36000  0.02600  0.44400  1.0000
  C   C3        1.0  0.64000  0.97400  0.55600  1.0000
  C   C4        1.0  0.91700  0.47400  0.55600  1.0000
  Ce  Ce1       1.0  0.84400  0.15100  0.29900  1.0000
  Ce  Ce2       1.0  0.45500  0.65100  0.29900  1.0000
  Ce  Ce3       1.0  0.15600  0.84900  0.70100  1.0000
  Ce  Ce4       1.0  0.54500  0.34900  0.70100  1.0000
  Cl  Cl1       1.0  0.78500  0.75000  0.00000  1.0000
  Cl  Cl2       1.0  0.21500  0.25000  0.00000  1.0000
