data_image0
_chemical_formula_structural       Al4O6
_chemical_formula_sum              "Al4 O6"
_cell_length_a       2.91275
_cell_length_b       5.62426
_cell_length_c       6.06242
_cell_angle_alpha    103.526
_cell_angle_beta     103.9
_cell_angle_gamma    90

_space_group_name_H-M_alt    "P 1"
_space_group_IT_number       1

loop_
  _space_group_symop_operation_xyz
  'x, y, z'

loop_
  _atom_site_type_symbol
  _atom_site_label
  _atom_site_symmetry_multiplicity
  _atom_site_fract_x
  _atom_site_fract_y
  _atom_site_fract_z
  _atom_site_occupancy
  Al  Al1       1.0  0.09110  0.79700  0.18200  1.0000
  Al  Al2       1.0  0.65800  0.31700  0.31700  1.0000
  Al  Al3       1.0  0.34200  0.68300  0.68300  1.0000
  Al  Al4       1.0  0.90900  0.20300  0.81800  1.0000
  O   O1        1.0  0.50500  0.74500  0.00958  1.0000
  O   O2        1.0  0.16300  0.10900  0.32700  1.0000
  O   O3        1.0  0.17300  0.56500  0.34500  1.0000
  O   O4        1.0  0.82700  0.43500  0.65500  1.0000
  O   O5        1.0  0.83700  0.89100  0.67300  1.0000
  O   O6        1.0  0.49500  0.25500  0.99000  1.0000
