data_image0
_chemical_formula_structural       H8Sn2
_chemical_formula_sum              "H8 Sn2"
_cell_length_a       4.30721
_cell_length_b       4.7013
_cell_length_c       7.55195
_cell_angle_alpha    99.1165
_cell_angle_beta     106.569
_cell_angle_gamma    62.7363

_space_group_name_H-M_alt    "P 1"
_space_group_IT_number       1

loop_
  _space_group_symop_operation_xyz
  'x, y, z'

loop_
  _atom_site_type_symbol
  _atom_site_label
  _atom_site_symmetry_multiplicity
  _atom_site_fract_x
  _atom_site_fract_y
  _atom_site_fract_z
  _atom_site_occupancy
  H   H1        1.0  0.26300  0.14300  0.06510  1.0000
  H   H2        1.0  0.65100  0.56600  0.19100  1.0000
  H   H3        1.0  0.02550  0.93400  0.30900  1.0000
  H   H4        1.0  0.34000  0.35700  0.43500  1.0000
  H   H5        1.0  0.66000  0.64300  0.56500  1.0000
  H   H6        1.0  0.97400  0.06640  0.69100  1.0000
  H   H7        1.0  0.34900  0.43400  0.80900  1.0000
  H   H8        1.0  0.73700  0.85700  0.93500  1.0000
  Sn  Sn1       1.0  0.06880  0.25000  0.25000  1.0000
  Sn  Sn2       1.0  0.93100  0.75000  0.75000  1.0000
