data_image0
_chemical_formula_structural       Br5Cs2Li3
_chemical_formula_sum              "Br5 Cs2 Li3"
_cell_length_a       4.41377
_cell_length_b       8.14637
_cell_length_c       10.0825
_cell_angle_alpha    106.635
_cell_angle_beta     102.643
_cell_angle_gamma    105.718

_space_group_name_H-M_alt    "P 1"
_space_group_IT_number       1

loop_
  _space_group_symop_operation_xyz
  'x, y, z'

loop_
  _atom_site_type_symbol
  _atom_site_label
  _atom_site_symmetry_multiplicity
  _atom_site_fract_x
  _atom_site_fract_y
  _atom_site_fract_z
  _atom_site_occupancy
  Br  Br1       1.0  0.65900  0.25600  0.06300  1.0000
  Br  Br2       1.0  0.16200  0.02960  0.29400  1.0000
  Br  Br3       1.0  0.00000  0.50000  0.50000  1.0000
  Br  Br4       1.0  0.83800  0.97000  0.70600  1.0000
  Br  Br5       1.0  0.34100  0.74400  0.93700  1.0000
  Cs  Cs1       1.0  0.45900  0.64400  0.27300  1.0000
  Cs  Cs2       1.0  0.54100  0.35600  0.72700  1.0000
  Li  Li1       1.0  0.00000  0.00000  0.00000  1.0000
  Li  Li2       1.0  0.74200  0.19100  0.29300  1.0000
  Li  Li3       1.0  0.25800  0.80900  0.70700  1.0000
