data_image0
_chemical_formula_structural       I8U2
_chemical_formula_sum              "I8 U2"
_cell_length_a       7.65476
_cell_length_b       8.62236
_cell_length_c       8.62237
_cell_angle_alpha    61.6502
_cell_angle_beta     90.9905
_cell_angle_gamma    90.9904

_space_group_name_H-M_alt    "P 1"
_space_group_IT_number       1

loop_
  _space_group_symop_operation_xyz
  'x, y, z'

loop_
  _atom_site_type_symbol
  _atom_site_label
  _atom_site_symmetry_multiplicity
  _atom_site_fract_x
  _atom_site_fract_y
  _atom_site_fract_z
  _atom_site_occupancy
  I   I1        1.0  0.42500  0.22900  0.00000  1.0000
  I   I2        1.0  0.57500  0.77100  0.00002  1.0000
  I   I3        1.0  0.92500  0.00000  0.22900  1.0000
  I   I4        1.0  0.11100  0.51000  0.24000  1.0000
  I   I5        1.0  0.38900  0.76000  0.49000  1.0000
  I   I6        1.0  0.61100  0.24000  0.51000  1.0000
  I   I7        1.0  0.88900  0.49000  0.76000  1.0000
  I   I8        1.0  0.07540  0.00002  0.77100  1.0000
  U   U1        1.0  0.25000  0.85800  0.14200  1.0000
  U   U2        1.0  0.75000  0.14200  0.85800  1.0000
