data_image0
_chemical_formula_structural       Ga4O6
_chemical_formula_sum              "Ga4 O6"
_cell_length_a       5.00951
_cell_length_b       5.00951
_cell_length_c       5.33974
_cell_angle_alpha    117.974
_cell_angle_beta     62.0255
_cell_angle_gamma    120

_space_group_name_H-M_alt    "P 1"
_space_group_IT_number       1

loop_
  _space_group_symop_operation_xyz
  'x, y, z'

loop_
  _atom_site_type_symbol
  _atom_site_label
  _atom_site_symmetry_multiplicity
  _atom_site_fract_x
  _atom_site_fract_y
  _atom_site_fract_z
  _atom_site_occupancy
  Ga  Ga1       1.0  0.64400  0.35600  0.06720  1.0000
  Ga  Ga2       1.0  0.85600  0.14400  0.43300  1.0000
  Ga  Ga3       1.0  0.14400  0.85600  0.56700  1.0000
  Ga  Ga4       1.0  0.35600  0.64400  0.93300  1.0000
  O   O1        1.0  0.25000  0.05340  0.25000  1.0000
  O   O2        1.0  0.94700  0.44700  0.25000  1.0000
  O   O3        1.0  0.55300  0.75000  0.25000  1.0000
  O   O4        1.0  0.44700  0.25000  0.75000  1.0000
  O   O5        1.0  0.05340  0.55300  0.75000  1.0000
  O   O6        1.0  0.75000  0.94700  0.75000  1.0000
