data_image0
_chemical_formula_structural       H4O4V2
_chemical_formula_sum              "H4 O4 V2"
_cell_length_a       5.26883
_cell_length_b       4.83472
_cell_length_c       3.22656
_cell_angle_alpha    90
_cell_angle_beta     90
_cell_angle_gamma    89.9999

_space_group_name_H-M_alt    "P 1"
_space_group_IT_number       1

loop_
  _space_group_symop_operation_xyz
  'x, y, z'

loop_
  _atom_site_type_symbol
  _atom_site_label
  _atom_site_symmetry_multiplicity
  _atom_site_fract_x
  _atom_site_fract_y
  _atom_site_fract_z
  _atom_site_occupancy
  H   H1        1.0  0.84200  0.47300  0.00000  1.0000
  H   H2        1.0  0.15800  0.52700  0.00000  1.0000
  H   H3        1.0  0.34200  0.02660  0.50000  1.0000
  H   H4        1.0  0.65800  0.97300  0.50000  1.0000
  O   O1        1.0  0.25600  0.35500  0.00000  1.0000
  O   O2        1.0  0.74400  0.64500  0.00000  1.0000
  O   O3        1.0  0.75600  0.14500  0.50000  1.0000
  O   O4        1.0  0.24400  0.85500  0.50000  1.0000
  V   V1        1.0  0.00000  0.00000  0.00000  1.0000
  V   V2        1.0  0.50000  0.50000  0.50000  1.0000
