data_image0
_chemical_formula_structural       Eu4I4O2
_chemical_formula_sum              "Eu4 I4 O2"
_cell_length_a       6.30194
_cell_length_b       7.33203
_cell_length_c       7.99955
_cell_angle_alpha    117.276
_cell_angle_beta     113.197
_cell_angle_gamma    90

_space_group_name_H-M_alt    "P 1"
_space_group_IT_number       1

loop_
  _space_group_symop_operation_xyz
  'x, y, z'

loop_
  _atom_site_type_symbol
  _atom_site_label
  _atom_site_symmetry_multiplicity
  _atom_site_fract_x
  _atom_site_fract_y
  _atom_site_fract_z
  _atom_site_occupancy
  Eu  Eu1       1.0  0.58800  0.75700  0.17700  1.0000
  Eu  Eu2       1.0  0.08830  0.41900  0.17700  1.0000
  Eu  Eu3       1.0  0.91200  0.58100  0.82300  1.0000
  Eu  Eu4       1.0  0.41200  0.24300  0.82300  1.0000
  I   I1        1.0  0.15000  0.99700  0.30000  1.0000
  I   I2        1.0  0.65000  0.30300  0.30000  1.0000
  I   I3        1.0  0.35000  0.69700  0.70000  1.0000
  I   I4        1.0  0.85000  0.00292  0.70000  1.0000
  O   O1        1.0  0.75000  0.50000  0.00000  1.0000
  O   O2        1.0  0.25000  0.50000  0.00000  1.0000
