data_image0
_chemical_formula_structural       F6O2Rh
_chemical_formula_sum              "F6 O2 Rh1"
_cell_length_a       4.60765
_cell_length_b       4.60774
_cell_length_c       4.6479
_cell_angle_alpha    77.9086
_cell_angle_beta     91.818
_cell_angle_gamma    76.9475

_space_group_name_H-M_alt    "P 1"
_space_group_IT_number       1

loop_
  _space_group_symop_operation_xyz
  'x, y, z'

loop_
  _atom_site_type_symbol
  _atom_site_label
  _atom_site_symmetry_multiplicity
  _atom_site_fract_x
  _atom_site_fract_y
  _atom_site_fract_z
  _atom_site_occupancy
  F   F1        1.0  0.77600  0.36500  0.07720  1.0000
  F   F2        1.0  0.33900  0.05280  0.19300  1.0000
  F   F3        1.0  0.92200  0.77900  0.36600  1.0000
  F   F4        1.0  0.07780  0.22100  0.63400  1.0000
  F   F5        1.0  0.66100  0.94700  0.80700  1.0000
  F   F6        1.0  0.22400  0.63500  0.92300  1.0000
  O   O1        1.0  0.49300  0.38800  0.46100  1.0000
  O   O2        1.0  0.50700  0.61200  0.53900  1.0000
  Rh  Rh1       1.0  0.00000  0.00000  0.00000  1.0000
