data_image0
_chemical_formula_structural       C2F8
_chemical_formula_sum              "C2 F8"
_cell_length_a       3.80474
_cell_length_b       4.2401
_cell_length_c       6.76299
_cell_angle_alpha    97.5815
_cell_angle_beta     106.337
_cell_angle_gamma    63.3422

_space_group_name_H-M_alt    "P 1"
_space_group_IT_number       1

loop_
  _space_group_symop_operation_xyz
  'x, y, z'

loop_
  _atom_site_type_symbol
  _atom_site_label
  _atom_site_symmetry_multiplicity
  _atom_site_fract_x
  _atom_site_fract_y
  _atom_site_fract_z
  _atom_site_occupancy
  C   C1        1.0  0.81100  0.25000  0.25000  1.0000
  C   C2        1.0  0.18900  0.75000  0.75000  1.0000
  F   F1        1.0  0.89400  0.32800  0.08900  1.0000
  F   F2        1.0  0.72100  0.97500  0.20100  1.0000
  F   F3        1.0  0.49500  0.52500  0.29900  1.0000
  F   F4        1.0  0.13300  0.17200  0.41100  1.0000
  F   F5        1.0  0.86700  0.82800  0.58900  1.0000
  F   F6        1.0  0.50500  0.47500  0.70100  1.0000
  F   F7        1.0  0.27900  0.02540  0.79900  1.0000
  F   F8        1.0  0.10600  0.67200  0.91100  1.0000
