data_image0
_chemical_formula_structural       F7KYb2
_chemical_formula_sum              "F7 K1 Yb2"
_cell_length_a       5.87017
_cell_length_b       4.1084
_cell_length_c       5.78289
_cell_angle_alpha    90
_cell_angle_beta     109.213
_cell_angle_gamma    90

_space_group_name_H-M_alt    "P 1"
_space_group_IT_number       1

loop_
  _space_group_symop_operation_xyz
  'x, y, z'

loop_
  _atom_site_type_symbol
  _atom_site_label
  _atom_site_symmetry_multiplicity
  _atom_site_fract_x
  _atom_site_fract_y
  _atom_site_fract_z
  _atom_site_occupancy
  F   F1        1.0  0.81400  0.03970  0.06690  1.0000
  F   F2        1.0  0.21700  0.53800  0.25200  1.0000
  F   F3        1.0  0.56000  0.03920  0.31800  1.0000
  F   F4        1.0  0.00000  0.54600  0.50000  1.0000
  F   F5        1.0  0.44000  0.03920  0.68200  1.0000
  F   F6        1.0  0.78300  0.53800  0.74800  1.0000
  F   F7        1.0  0.18600  0.03970  0.93300  1.0000
  K   K1        1.0  0.50000  0.53900  0.00000  1.0000
  Yb  Yb1       1.0  0.17700  0.03720  0.32100  1.0000
  Yb  Yb2       1.0  0.82300  0.03720  0.67900  1.0000
