data_image0
_chemical_formula_structural       Ba3In2O6
_chemical_formula_sum              "Ba3 In2 O6"
_cell_length_a       4.21185
_cell_length_b       4.21185
_cell_length_c       11.2423
_cell_angle_alpha    100.796
_cell_angle_beta     100.796
_cell_angle_gamma    90

_space_group_name_H-M_alt    "P 1"
_space_group_IT_number       1

loop_
  _space_group_symop_operation_xyz
  'x, y, z'

loop_
  _atom_site_type_symbol
  _atom_site_label
  _atom_site_symmetry_multiplicity
  _atom_site_fract_x
  _atom_site_fract_y
  _atom_site_fract_z
  _atom_site_occupancy
  Ba  Ba1       1.0  0.50000  0.50000  0.00000  1.0000
  Ba  Ba2       1.0  0.68300  0.68300  0.36600  1.0000
  Ba  Ba3       1.0  0.31700  0.31700  0.63400  1.0000
  In  In1       1.0  0.10200  0.10200  0.20400  1.0000
  In  In2       1.0  0.89800  0.89800  0.79600  1.0000
  O   O1        1.0  0.58300  0.08330  0.16700  1.0000
  O   O2        1.0  0.08330  0.58300  0.16700  1.0000
  O   O3        1.0  0.19900  0.19900  0.39700  1.0000
  O   O4        1.0  0.80100  0.80100  0.60300  1.0000
  O   O5        1.0  0.91700  0.41700  0.83300  1.0000
  O   O6        1.0  0.41700  0.91700  0.83300  1.0000
