data_image0
_chemical_formula_structural       Ge4Na3Pt4
_chemical_formula_sum              "Ge4 Na3 Pt4"
_cell_length_a       6.67377
_cell_length_b       6.67377
_cell_length_c       6.67377
_cell_angle_alpha    109.471
_cell_angle_beta     109.471
_cell_angle_gamma    109.471

_space_group_name_H-M_alt    "P 1"
_space_group_IT_number       1

loop_
  _space_group_symop_operation_xyz
  'x, y, z'

loop_
  _atom_site_type_symbol
  _atom_site_label
  _atom_site_symmetry_multiplicity
  _atom_site_fract_x
  _atom_site_fract_y
  _atom_site_fract_z
  _atom_site_occupancy
  Ge  Ge1       1.0  0.63300  0.00000  0.00000  1.0000
  Ge  Ge2       1.0  0.00000  0.63300  0.00000  1.0000
  Ge  Ge3       1.0  0.36700  0.36700  0.36700  1.0000
  Ge  Ge4       1.0  0.00000  0.00000  0.63300  1.0000
  Na  Na1       1.0  0.50000  0.50000  0.00000  1.0000
  Na  Na2       1.0  0.50000  0.00000  0.50000  1.0000
  Na  Na3       1.0  0.00000  0.50000  0.50000  1.0000
  Pt  Pt1       1.0  0.27800  0.00000  0.00000  1.0000
  Pt  Pt2       1.0  0.00000  0.27800  0.00000  1.0000
  Pt  Pt3       1.0  0.00000  0.00000  0.27800  1.0000
  Pt  Pt4       1.0  0.72200  0.72200  0.72200  1.0000
