data_image0
_chemical_formula_structural       Cs2S6Sn2
_chemical_formula_sum              "Cs2 S6 Sn2"
_cell_length_a       7.53365
_cell_length_b       7.73659
_cell_length_c       6.84405
_cell_angle_alpha    114.37
_cell_angle_beta     107.839
_cell_angle_gamma    99.2506

_space_group_name_H-M_alt    "P 1"
_space_group_IT_number       1

loop_
  _space_group_symop_operation_xyz
  'x, y, z'

loop_
  _atom_site_type_symbol
  _atom_site_label
  _atom_site_symmetry_multiplicity
  _atom_site_fract_x
  _atom_site_fract_y
  _atom_site_fract_z
  _atom_site_occupancy
  Cs  Cs1       1.0  0.18400  0.85900  0.23100  1.0000
  Cs  Cs2       1.0  0.81600  0.14100  0.76900  1.0000
  S   S1        1.0  0.60100  0.11300  0.17000  1.0000
  S   S2        1.0  0.69900  0.71500  0.21900  1.0000
  S   S3        1.0  0.23900  0.43900  0.34000  1.0000
  S   S4        1.0  0.76100  0.56100  0.66000  1.0000
  S   S5        1.0  0.30100  0.28500  0.78100  1.0000
  S   S6        1.0  0.39900  0.88700  0.83000  1.0000
  Sn  Sn1       1.0  0.51300  0.42600  0.22300  1.0000
  Sn  Sn2       1.0  0.48700  0.57400  0.77700  1.0000
