data_image0
_chemical_formula_structural       Ni2O7P2
_chemical_formula_sum              "Ni2 O7 P2"
_cell_length_a       4.45905
_cell_length_b       5.20635
_cell_length_c       5.20635
_cell_angle_alpha    104.059
_cell_angle_beta     98.0824
_cell_angle_gamma    98.0824

_space_group_name_H-M_alt    "P 1"
_space_group_IT_number       1

loop_
  _space_group_symop_operation_xyz
  'x, y, z'

loop_
  _atom_site_type_symbol
  _atom_site_label
  _atom_site_symmetry_multiplicity
  _atom_site_fract_x
  _atom_site_fract_y
  _atom_site_fract_z
  _atom_site_occupancy
  Ni  Ni1       1.0  0.50000  0.68700  0.31300  1.0000
  Ni  Ni2       1.0  0.50000  0.31300  0.68700  1.0000
  O   O1        1.0  0.00000  0.00000  0.00000  1.0000
  O   O2        1.0  0.72000  0.38500  0.07320  1.0000
  O   O3        1.0  0.21800  0.38300  0.38300  1.0000
  O   O4        1.0  0.72000  0.07320  0.38500  1.0000
  O   O5        1.0  0.28000  0.92700  0.61500  1.0000
  O   O6        1.0  0.78200  0.61700  0.61700  1.0000
  O   O7        1.0  0.28000  0.61500  0.92700  1.0000
  P   P1        1.0  0.90600  0.22100  0.22100  1.0000
  P   P2        1.0  0.09400  0.77900  0.77900  1.0000
