data_image0
_chemical_formula_structural       Al6C3N2
_chemical_formula_sum              "Al6 C3 N2"
_cell_length_a       13.5785
_cell_length_b       13.5785
_cell_length_c       13.5785
_cell_angle_alpha    13.8076
_cell_angle_beta     13.8076
_cell_angle_gamma    13.8076

_space_group_name_H-M_alt    "P 1"
_space_group_IT_number       1

loop_
  _space_group_symop_operation_xyz
  'x, y, z'

loop_
  _atom_site_type_symbol
  _atom_site_label
  _atom_site_symmetry_multiplicity
  _atom_site_fract_x
  _atom_site_fract_y
  _atom_site_fract_z
  _atom_site_occupancy
  Al  Al1       1.0  0.08670  0.08670  0.08670  1.0000
  Al  Al2       1.0  0.18900  0.18900  0.18900  1.0000
  Al  Al3       1.0  0.30900  0.30900  0.30900  1.0000
  Al  Al4       1.0  0.69100  0.69100  0.69100  1.0000
  Al  Al5       1.0  0.81000  0.81000  0.81000  1.0000
  Al  Al6       1.0  0.91300  0.91300  0.91300  1.0000
  C   C1        1.0  0.00000  0.00000  0.00000  1.0000
  C   C2        1.0  0.13500  0.13500  0.13500  1.0000
  C   C3        1.0  0.86500  0.86500  0.86500  1.0000
  N   N1        1.0  0.26300  0.26300  0.26300  1.0000
  N   N2        1.0  0.73600  0.73600  0.73600  1.0000
