data_image0
_chemical_formula_structural       Ge8Li4Nd4
_chemical_formula_sum              "Ge8 Li4 Nd4"
_cell_length_a       7.78796
_cell_length_b       3.96329
_cell_length_c       10.6786
_cell_angle_alpha    90
_cell_angle_beta     90
_cell_angle_gamma    90

_space_group_name_H-M_alt    "P 1"
_space_group_IT_number       1

loop_
  _space_group_symop_operation_xyz
  'x, y, z'

loop_
  _atom_site_type_symbol
  _atom_site_label
  _atom_site_symmetry_multiplicity
  _atom_site_fract_x
  _atom_site_fract_y
  _atom_site_fract_z
  _atom_site_occupancy
  Ge  Ge1       1.0  0.72100  0.25000  0.06550  1.0000
  Ge  Ge2       1.0  0.84400  0.75000  0.18300  1.0000
  Ge  Ge3       1.0  0.34400  0.75000  0.31700  1.0000
  Ge  Ge4       1.0  0.22100  0.25000  0.43500  1.0000
  Ge  Ge5       1.0  0.77900  0.75000  0.56500  1.0000
  Ge  Ge6       1.0  0.65600  0.25000  0.68300  1.0000
  Ge  Ge7       1.0  0.15600  0.25000  0.81700  1.0000
  Ge  Ge8       1.0  0.27900  0.75000  0.93500  1.0000
  Li  Li1       1.0  0.50900  0.75000  0.11100  1.0000
  Li  Li2       1.0  0.00949  0.75000  0.38900  1.0000
  Li  Li3       1.0  0.99100  0.25000  0.61100  1.0000
  Li  Li4       1.0  0.49100  0.25000  0.88900  1.0000
  Nd  Nd1       1.0  0.13900  0.25000  0.13500  1.0000
  Nd  Nd2       1.0  0.63900  0.25000  0.36500  1.0000
  Nd  Nd3       1.0  0.36100  0.75000  0.63500  1.0000
  Nd  Nd4       1.0  0.86100  0.75000  0.86500  1.0000
