data_image0
_chemical_formula_structural       Cu2O7P2
_chemical_formula_sum              "Cu2 O7 P2"
_cell_length_a       4.52915
_cell_length_b       5.3136
_cell_length_c       5.3136
_cell_angle_alpha    99.8498
_cell_angle_beta     102.235
_cell_angle_gamma    102.235

_space_group_name_H-M_alt    "P 1"
_space_group_IT_number       1

loop_
  _space_group_symop_operation_xyz
  'x, y, z'

loop_
  _atom_site_type_symbol
  _atom_site_label
  _atom_site_symmetry_multiplicity
  _atom_site_fract_x
  _atom_site_fract_y
  _atom_site_fract_z
  _atom_site_occupancy
  Cu  Cu1       1.0  0.50000  0.69100  0.30900  1.0000
  Cu  Cu2       1.0  0.50000  0.30900  0.69100  1.0000
  O   O1        1.0  0.00000  0.00000  0.00000  1.0000
  O   O2        1.0  0.72700  0.36400  0.05100  1.0000
  O   O3        1.0  0.72700  0.05100  0.36400  1.0000
  O   O4        1.0  0.22400  0.38400  0.38400  1.0000
  O   O5        1.0  0.77600  0.61600  0.61600  1.0000
  O   O6        1.0  0.27300  0.94900  0.63600  1.0000
  O   O7        1.0  0.27300  0.63600  0.94900  1.0000
  P   P1        1.0  0.90800  0.20300  0.20300  1.0000
  P   P2        1.0  0.09210  0.79700  0.79700  1.0000
