data_image0
_chemical_formula_structural       As4Rh6Sr
_chemical_formula_sum              "As4 Rh6 Sr1"
_cell_length_a       7.27959
_cell_length_b       7.27999
_cell_length_c       3.85758
_cell_angle_alpha    90
_cell_angle_beta     90
_cell_angle_gamma    119.998

_space_group_name_H-M_alt    "P 1"
_space_group_IT_number       1

loop_
  _space_group_symop_operation_xyz
  'x, y, z'

loop_
  _atom_site_type_symbol
  _atom_site_label
  _atom_site_symmetry_multiplicity
  _atom_site_fract_x
  _atom_site_fract_y
  _atom_site_fract_z
  _atom_site_occupancy
  As  As1       1.0  0.33300  0.66700  0.00000  1.0000
  As  As2       1.0  0.38100  0.19100  0.50000  1.0000
  As  As3       1.0  0.80900  0.19100  0.50000  1.0000
  As  As4       1.0  0.80900  0.61900  0.50000  1.0000
  Rh  Rh1       1.0  0.53500  0.06950  0.00000  1.0000
  Rh  Rh2       1.0  0.53500  0.46500  0.00000  1.0000
  Rh  Rh3       1.0  0.93100  0.46500  0.00000  1.0000
  Rh  Rh4       1.0  0.20200  0.40400  0.50000  1.0000
  Rh  Rh5       1.0  0.20200  0.79800  0.50000  1.0000
  Rh  Rh6       1.0  0.59600  0.79800  0.50000  1.0000
  Sr  Sr1       1.0  0.00000  0.00000  0.00000  1.0000
