data_image0
_chemical_formula_structural       Ge8Li4Sm4
_chemical_formula_sum              "Ge8 Li4 Sm4"
_cell_length_a       7.77144
_cell_length_b       3.92658
_cell_length_c       10.5641
_cell_angle_alpha    90
_cell_angle_beta     90
_cell_angle_gamma    90

_space_group_name_H-M_alt    "P 1"
_space_group_IT_number       1

loop_
  _space_group_symop_operation_xyz
  'x, y, z'

loop_
  _atom_site_type_symbol
  _atom_site_label
  _atom_site_symmetry_multiplicity
  _atom_site_fract_x
  _atom_site_fract_y
  _atom_site_fract_z
  _atom_site_occupancy
  Ge  Ge1       1.0  0.72400  0.25000  0.06410  1.0000
  Ge  Ge2       1.0  0.84700  0.75000  0.18500  1.0000
  Ge  Ge3       1.0  0.34700  0.75000  0.31500  1.0000
  Ge  Ge4       1.0  0.22400  0.25000  0.43600  1.0000
  Ge  Ge5       1.0  0.77600  0.75000  0.56400  1.0000
  Ge  Ge6       1.0  0.65300  0.25000  0.68500  1.0000
  Ge  Ge7       1.0  0.15300  0.25000  0.81500  1.0000
  Ge  Ge8       1.0  0.27600  0.75000  0.93600  1.0000
  Li  Li1       1.0  0.51200  0.75000  0.10900  1.0000
  Li  Li2       1.0  0.01210  0.75000  0.39100  1.0000
  Li  Li3       1.0  0.98800  0.25000  0.60900  1.0000
  Li  Li4       1.0  0.48800  0.25000  0.89100  1.0000
  Sm  Sm1       1.0  0.13900  0.25000  0.13500  1.0000
  Sm  Sm2       1.0  0.63900  0.25000  0.36500  1.0000
  Sm  Sm3       1.0  0.36100  0.75000  0.63500  1.0000
  Sm  Sm4       1.0  0.86100  0.75000  0.86500  1.0000
