data_image0
_chemical_formula_structural       B4Cr
_chemical_formula_sum              "B4 Cr1"
_cell_length_a       2.84213
_cell_length_b       3.89452
_cell_length_c       3.89452
_cell_angle_alpha    105.058
_cell_angle_beta     68.5992
_cell_angle_gamma    111.401

_space_group_name_H-M_alt    "P 1"
_space_group_IT_number       1

loop_
  _space_group_symop_operation_xyz
  'x, y, z'

loop_
  _atom_site_type_symbol
  _atom_site_label
  _atom_site_symmetry_multiplicity
  _atom_site_fract_x
  _atom_site_fract_y
  _atom_site_fract_z
  _atom_site_occupancy
  B   B1        1.0  0.65800  0.46200  0.14700  1.0000
  B   B2        1.0  0.34200  0.14700  0.46200  1.0000
  B   B3        1.0  0.65800  0.85300  0.53800  1.0000
  B   B4        1.0  0.34200  0.53800  0.85300  1.0000
  Cr  Cr1       1.0  0.00000  0.00000  0.00000  1.0000
