data_image0
_chemical_formula_structural       Ga2Li4
_chemical_formula_sum              "Ga2 Li4"
_cell_length_a       4.32403
_cell_length_b       4.46516
_cell_length_c       5.19384
_cell_angle_alpha    64.5418
_cell_angle_beta     90
_cell_angle_gamma    90

_space_group_name_H-M_alt    "P 1"
_space_group_IT_number       1

loop_
  _space_group_symop_operation_xyz
  'x, y, z'

loop_
  _atom_site_type_symbol
  _atom_site_label
  _atom_site_symmetry_multiplicity
  _atom_site_fract_x
  _atom_site_fract_y
  _atom_site_fract_z
  _atom_site_occupancy
  Ga  Ga1       1.0  0.25000  0.92100  0.15800  1.0000
  Ga  Ga2       1.0  0.75000  0.07910  0.84200  1.0000
  Li  Li1       1.0  0.75000  0.41200  0.17600  1.0000
  Li  Li2       1.0  0.75000  0.75800  0.48400  1.0000
  Li  Li3       1.0  0.25000  0.24200  0.51600  1.0000
  Li  Li4       1.0  0.25000  0.58800  0.82400  1.0000
