data_image0
_chemical_formula_structural       Au4Eu4
_chemical_formula_sum              "Au4 Eu4"
_cell_length_a       7.57393
_cell_length_b       4.70772
_cell_length_c       5.94136
_cell_angle_alpha    90
_cell_angle_beta     90
_cell_angle_gamma    90

_space_group_name_H-M_alt    "P 1"
_space_group_IT_number       1

loop_
  _space_group_symop_operation_xyz
  'x, y, z'

loop_
  _atom_site_type_symbol
  _atom_site_label
  _atom_site_symmetry_multiplicity
  _atom_site_fract_x
  _atom_site_fract_y
  _atom_site_fract_z
  _atom_site_occupancy
  Au  Au1       1.0  0.45900  0.75000  0.15200  1.0000
  Au  Au2       1.0  0.95900  0.75000  0.34800  1.0000
  Au  Au3       1.0  0.04070  0.25000  0.65200  1.0000
  Au  Au4       1.0  0.54100  0.25000  0.84800  1.0000
  Eu  Eu1       1.0  0.18500  0.25000  0.14400  1.0000
  Eu  Eu2       1.0  0.68500  0.25000  0.35600  1.0000
  Eu  Eu3       1.0  0.31500  0.75000  0.64400  1.0000
  Eu  Eu4       1.0  0.81500  0.75000  0.85600  1.0000
