data_image0
_chemical_formula_structural       Li5Tl2
_chemical_formula_sum              "Li5 Tl2"
_cell_length_a       4.65237
_cell_length_b       4.65237
_cell_length_c       7.25384
_cell_angle_alpha    90
_cell_angle_beta     71.2958
_cell_angle_gamma    120

_space_group_name_H-M_alt    "P 1"
_space_group_IT_number       1

loop_
  _space_group_symop_operation_xyz
  'x, y, z'

loop_
  _atom_site_type_symbol
  _atom_site_label
  _atom_site_symmetry_multiplicity
  _atom_site_fract_x
  _atom_site_fract_y
  _atom_site_fract_z
  _atom_site_occupancy
  Li  Li1       1.0  0.29100  0.64600  0.06290  1.0000
  Li  Li2       1.0  0.42600  0.21300  0.36100  1.0000
  Li  Li3       1.0  0.00000  0.50000  0.50000  1.0000
  Li  Li4       1.0  0.57400  0.78700  0.63900  1.0000
  Li  Li5       1.0  0.70900  0.35400  0.93700  1.0000
  Tl  Tl1       1.0  0.84900  0.92400  0.22700  1.0000
  Tl  Tl2       1.0  0.15100  0.07560  0.77300  1.0000
