data_image0
_chemical_formula_structural       Ge4La2Ni2
_chemical_formula_sum              "Ge4 La2 Ni2"
_cell_length_a       4.26332
_cell_length_b       4.32517
_cell_length_c       8.75996
_cell_angle_alpha    75.7075
_cell_angle_beta     90
_cell_angle_gamma    90

_space_group_name_H-M_alt    "P 1"
_space_group_IT_number       1

loop_
  _space_group_symop_operation_xyz
  'x, y, z'

loop_
  _atom_site_type_symbol
  _atom_site_label
  _atom_site_symmetry_multiplicity
  _atom_site_fract_x
  _atom_site_fract_y
  _atom_site_fract_z
  _atom_site_occupancy
  Ge  Ge1       1.0  0.25000  0.95700  0.08560  1.0000
  Ge  Ge2       1.0  0.75000  0.75000  0.50000  1.0000
  Ge  Ge3       1.0  0.25000  0.25000  0.50000  1.0000
  Ge  Ge4       1.0  0.75000  0.04280  0.91400  1.0000
  La  La1       1.0  0.75000  0.39200  0.21700  1.0000
  La  La2       1.0  0.25000  0.60800  0.78300  1.0000
  Ni  Ni1       1.0  0.25000  0.81800  0.36500  1.0000
  Ni  Ni2       1.0  0.75000  0.18200  0.63500  1.0000
