data_image0
_chemical_formula_structural       Fe2Ge4Lu2
_chemical_formula_sum              "Fe2 Ge4 Lu2"
_cell_length_a       4.1496
_cell_length_b       4.05577
_cell_length_c       8.57671
_cell_angle_alpha    76.3234
_cell_angle_beta     90
_cell_angle_gamma    90

_space_group_name_H-M_alt    "P 1"
_space_group_IT_number       1

loop_
  _space_group_symop_operation_xyz
  'x, y, z'

loop_
  _atom_site_type_symbol
  _atom_site_label
  _atom_site_symmetry_multiplicity
  _atom_site_fract_x
  _atom_site_fract_y
  _atom_site_fract_z
  _atom_site_occupancy
  Fe  Fe1       1.0  0.75000  0.32100  0.35800  1.0000
  Fe  Fe2       1.0  0.25000  0.67900  0.64200  1.0000
  Ge  Ge1       1.0  0.75000  0.45600  0.08820  1.0000
  Ge  Ge2       1.0  0.25000  0.25100  0.49800  1.0000
  Ge  Ge3       1.0  0.75000  0.74900  0.50200  1.0000
  Ge  Ge4       1.0  0.25000  0.54400  0.91200  1.0000
  Lu  Lu1       1.0  0.25000  0.89000  0.21900  1.0000
  Lu  Lu2       1.0  0.75000  0.11000  0.78100  1.0000
