data_image0
_chemical_formula_structural       Cu2Ge4Nd2
_chemical_formula_sum              "Cu2 Ge4 Nd2"
_cell_length_a       4.22104
_cell_length_b       4.27497
_cell_length_c       8.96815
_cell_angle_alpha    76.2113
_cell_angle_beta     90
_cell_angle_gamma    90

_space_group_name_H-M_alt    "P 1"
_space_group_IT_number       1

loop_
  _space_group_symop_operation_xyz
  'x, y, z'

loop_
  _atom_site_type_symbol
  _atom_site_label
  _atom_site_symmetry_multiplicity
  _atom_site_fract_x
  _atom_site_fract_y
  _atom_site_fract_z
  _atom_site_occupancy
  Cu  Cu1       1.0  0.75000  0.32500  0.35000  1.0000
  Cu  Cu2       1.0  0.25000  0.67500  0.65000  1.0000
  Ge  Ge1       1.0  0.75000  0.46100  0.07760  1.0000
  Ge  Ge2       1.0  0.75000  0.75100  0.49800  1.0000
  Ge  Ge3       1.0  0.25000  0.24900  0.50200  1.0000
  Ge  Ge4       1.0  0.25000  0.53900  0.92200  1.0000
  Nd  Nd1       1.0  0.25000  0.89600  0.20700  1.0000
  Nd  Nd2       1.0  0.75000  0.10400  0.79300  1.0000
