data_image0
_chemical_formula_structural       N2SrZr
_chemical_formula_sum              "N2 Sr1 Zr1"
_cell_length_a       3.37881
_cell_length_b       3.37881
_cell_length_c       6.22572
_cell_angle_alpha    105.745
_cell_angle_beta     90
_cell_angle_gamma    120

_space_group_name_H-M_alt    "P 1"
_space_group_IT_number       1

loop_
  _space_group_symop_operation_xyz
  'x, y, z'

loop_
  _atom_site_type_symbol
  _atom_site_label
  _atom_site_symmetry_multiplicity
  _atom_site_fract_x
  _atom_site_fract_y
  _atom_site_fract_z
  _atom_site_occupancy
  N   N1        1.0  0.76600  0.53200  0.29700  1.0000
  N   N2        1.0  0.23400  0.46800  0.70300  1.0000
  Sr  Sr1       1.0  0.00000  0.00000  0.00000  1.0000
  Zr  Zr1       1.0  0.50000  0.00000  0.50000  1.0000
