data_image0
_chemical_formula_structural       Cu2Ge4La2
_chemical_formula_sum              "Cu2 Ge4 La2"
_cell_length_a       4.26639
_cell_length_b       4.38931
_cell_length_c       8.94121
_cell_angle_alpha    75.7913
_cell_angle_beta     90
_cell_angle_gamma    90

_space_group_name_H-M_alt    "P 1"
_space_group_IT_number       1

loop_
  _space_group_symop_operation_xyz
  'x, y, z'

loop_
  _atom_site_type_symbol
  _atom_site_label
  _atom_site_symmetry_multiplicity
  _atom_site_fract_x
  _atom_site_fract_y
  _atom_site_fract_z
  _atom_site_occupancy
  Cu  Cu1       1.0  0.75000  0.32200  0.35500  1.0000
  Cu  Cu2       1.0  0.25000  0.67800  0.64500  1.0000
  Ge  Ge1       1.0  0.75000  0.46100  0.07880  1.0000
  Ge  Ge2       1.0  0.75000  0.75200  0.49600  1.0000
  Ge  Ge3       1.0  0.25000  0.24800  0.50400  1.0000
  Ge  Ge4       1.0  0.25000  0.53900  0.92100  1.0000
  La  La1       1.0  0.25000  0.89400  0.21200  1.0000
  La  La2       1.0  0.75000  0.10600  0.78800  1.0000
