data_image0
_chemical_formula_structural       Ge4Ni2Pr2
_chemical_formula_sum              "Ge4 Ni2 Pr2"
_cell_length_a       4.25749
_cell_length_b       4.27411
_cell_length_c       8.67411
_cell_angle_alpha    75.7371
_cell_angle_beta     90
_cell_angle_gamma    90

_space_group_name_H-M_alt    "P 1"
_space_group_IT_number       1

loop_
  _space_group_symop_operation_xyz
  'x, y, z'

loop_
  _atom_site_type_symbol
  _atom_site_label
  _atom_site_symmetry_multiplicity
  _atom_site_fract_x
  _atom_site_fract_y
  _atom_site_fract_z
  _atom_site_occupancy
  Ge  Ge1       1.0  0.75000  0.45700  0.08530  1.0000
  Ge  Ge2       1.0  0.25000  0.25000  0.49900  1.0000
  Ge  Ge3       1.0  0.75000  0.75000  0.50100  1.0000
  Ge  Ge4       1.0  0.25000  0.54300  0.91500  1.0000
  Ni  Ni1       1.0  0.75000  0.31800  0.36400  1.0000
  Ni  Ni2       1.0  0.25000  0.68200  0.63600  1.0000
  Pr  Pr1       1.0  0.25000  0.89200  0.21600  1.0000
  Pr  Pr2       1.0  0.75000  0.10800  0.78400  1.0000
