data_image0
_chemical_formula_structural       Ni2Pr2
_chemical_formula_sum              "Ni2 Pr2"
_cell_length_a       3.84207
_cell_length_b       4.37183
_cell_length_c       5.62336
_cell_angle_alpha    90
_cell_angle_beta     70.0246
_cell_angle_gamma    90

_space_group_name_H-M_alt    "P 1"
_space_group_IT_number       1

loop_
  _space_group_symop_operation_xyz
  'x, y, z'

loop_
  _atom_site_type_symbol
  _atom_site_label
  _atom_site_symmetry_multiplicity
  _atom_site_fract_x
  _atom_site_fract_y
  _atom_site_fract_z
  _atom_site_occupancy
  Ni  Ni1       1.0  0.42800  0.75000  0.14400  1.0000
  Ni  Ni2       1.0  0.57200  0.25000  0.85600  1.0000
  Pr  Pr1       1.0  0.86200  0.25000  0.27600  1.0000
  Pr  Pr2       1.0  0.13800  0.75000  0.72400  1.0000
