data_image0
_chemical_formula_structural       Er2GeRh3
_chemical_formula_sum              "Er2 Ge1 Rh3"
_cell_length_a       5.09152
_cell_length_b       5.09152
_cell_length_c       5.09152
_cell_angle_alpha    113.556
_cell_angle_beta     66.4439
_cell_angle_gamma    113.556

_space_group_name_H-M_alt    "P 1"
_space_group_IT_number       1

loop_
  _space_group_symop_operation_xyz
  'x, y, z'

loop_
  _atom_site_type_symbol
  _atom_site_label
  _atom_site_symmetry_multiplicity
  _atom_site_fract_x
  _atom_site_fract_y
  _atom_site_fract_z
  _atom_site_occupancy
  Er  Er1       1.0  0.37000  0.63000  0.37000  1.0000
  Er  Er2       1.0  0.63000  0.37000  0.63000  1.0000
  Ge  Ge1       1.0  0.00000  0.00000  0.00000  1.0000
  Rh  Rh1       1.0  0.50000  0.00000  0.00000  1.0000
  Rh  Rh2       1.0  0.00000  0.50000  1.00000  1.0000
  Rh  Rh3       1.0  0.00000  1.00000  0.50000  1.0000
