data_image0
_chemical_formula_structural       Au4V
_chemical_formula_sum              "Au4 V1"
_cell_length_a       4.02615
_cell_length_b       4.99771
_cell_length_c       4.99771
_cell_angle_alpha    99.3374
_cell_angle_beta     66.2467
_cell_angle_gamma    113.753

_space_group_name_H-M_alt    "P 1"
_space_group_IT_number       1

loop_
  _space_group_symop_operation_xyz
  'x, y, z'

loop_
  _atom_site_type_symbol
  _atom_site_label
  _atom_site_symmetry_multiplicity
  _atom_site_fract_x
  _atom_site_fract_y
  _atom_site_fract_z
  _atom_site_occupancy
  Au  Au1       1.0  0.60300  0.39800  0.19100  1.0000
  Au  Au2       1.0  0.20500  0.80900  0.39800  1.0000
  Au  Au3       1.0  0.79500  0.19100  0.60200  1.0000
  Au  Au4       1.0  0.39700  0.60200  0.80900  1.0000
  V   V1        1.0  0.00000  0.00000  0.00000  1.0000
