data_image0
_chemical_formula_structural       Ge8Li4Sr4
_chemical_formula_sum              "Ge8 Li4 Sr4"
_cell_length_a       7.18838
_cell_length_b       4.45247
_cell_length_c       11.5633
_cell_angle_alpha    90
_cell_angle_beta     90
_cell_angle_gamma    90

_space_group_name_H-M_alt    "P 1"
_space_group_IT_number       1

loop_
  _space_group_symop_operation_xyz
  'x, y, z'

loop_
  _atom_site_type_symbol
  _atom_site_label
  _atom_site_symmetry_multiplicity
  _atom_site_fract_x
  _atom_site_fract_y
  _atom_site_fract_z
  _atom_site_occupancy
  Ge  Ge1       1.0  0.19100  0.25000  0.14300  1.0000
  Ge  Ge2       1.0  0.53700  0.25000  0.16100  1.0000
  Ge  Ge3       1.0  0.03660  0.25000  0.33900  1.0000
  Ge  Ge4       1.0  0.69100  0.25000  0.35700  1.0000
  Ge  Ge5       1.0  0.30900  0.75000  0.64300  1.0000
  Ge  Ge6       1.0  0.96300  0.75000  0.66100  1.0000
  Ge  Ge7       1.0  0.46300  0.75000  0.83900  1.0000
  Ge  Ge8       1.0  0.80900  0.75000  0.85700  1.0000
  Li  Li1       1.0  0.37500  0.75000  0.06000  1.0000
  Li  Li2       1.0  0.87500  0.75000  0.44000  1.0000
  Li  Li3       1.0  0.12500  0.25000  0.56000  1.0000
  Li  Li4       1.0  0.62500  0.25000  0.94000  1.0000
  Sr  Sr1       1.0  0.86300  0.75000  0.14400  1.0000
  Sr  Sr2       1.0  0.36300  0.75000  0.35600  1.0000
  Sr  Sr3       1.0  0.63700  0.25000  0.64400  1.0000
  Sr  Sr4       1.0  0.13700  0.25000  0.85600  1.0000
