data_image0
_chemical_formula_structural       Er3Sn7
_chemical_formula_sum              "Er3 Sn7"
_cell_length_a       4.36894
_cell_length_b       4.4937
_cell_length_c       13.1861
_cell_angle_alpha    90
_cell_angle_beta     80.4641
_cell_angle_gamma    90

_space_group_name_H-M_alt    "P 1"
_space_group_IT_number       1

loop_
  _space_group_symop_operation_xyz
  'x, y, z'

loop_
  _atom_site_type_symbol
  _atom_site_label
  _atom_site_symmetry_multiplicity
  _atom_site_fract_x
  _atom_site_fract_y
  _atom_site_fract_z
  _atom_site_occupancy
  Er  Er1       1.0  0.00000  0.50000  0.00000  1.0000
  Er  Er2       1.0  0.30900  0.00000  0.38100  1.0000
  Er  Er3       1.0  0.69100  0.00000  0.61900  1.0000
  Sn  Sn1       1.0  0.50000  0.00000  0.00000  1.0000
  Sn  Sn2       1.0  0.90300  0.00000  0.19300  1.0000
  Sn  Sn3       1.0  0.40200  0.50000  0.19600  1.0000
  Sn  Sn4       1.0  0.79000  0.50000  0.42000  1.0000
  Sn  Sn5       1.0  0.21000  0.50000  0.58000  1.0000
  Sn  Sn6       1.0  0.59800  0.50000  0.80400  1.0000
  Sn  Sn7       1.0  0.09660  0.00000  0.80700  1.0000
