data_image0
_chemical_formula_structural       Tb4Tl2
_chemical_formula_sum              "Tb4 Tl2"
_cell_length_a       5.40678
_cell_length_b       5.40664
_cell_length_c       6.72816
_cell_angle_alpha    90
_cell_angle_beta     90
_cell_angle_gamma    120.001

_space_group_name_H-M_alt    "P 1"
_space_group_IT_number       1

loop_
  _space_group_symop_operation_xyz
  'x, y, z'

loop_
  _atom_site_type_symbol
  _atom_site_label
  _atom_site_symmetry_multiplicity
  _atom_site_fract_x
  _atom_site_fract_y
  _atom_site_fract_z
  _atom_site_occupancy
  Tb  Tb1       1.0  0.00000  0.00000  0.00000  1.0000
  Tb  Tb2       1.0  0.66700  0.33300  0.25000  1.0000
  Tb  Tb3       1.0  0.00000  0.00000  0.50000  1.0000
  Tb  Tb4       1.0  0.33300  0.66700  0.75000  1.0000
  Tl  Tl1       1.0  0.33300  0.66700  0.25000  1.0000
  Tl  Tl2       1.0  0.66700  0.33300  0.75000  1.0000
