data_image0
_chemical_formula_structural       Ba2Pb2
_chemical_formula_sum              "Ba2 Pb2"
_cell_length_a       4.84176
_cell_length_b       5.36655
_cell_length_c       6.90327
_cell_angle_alpha    67.1266
_cell_angle_beta     90
_cell_angle_gamma    90

_space_group_name_H-M_alt    "P 1"
_space_group_IT_number       1

loop_
  _space_group_symop_operation_xyz
  'x, y, z'

loop_
  _atom_site_type_symbol
  _atom_site_label
  _atom_site_symmetry_multiplicity
  _atom_site_fract_x
  _atom_site_fract_y
  _atom_site_fract_z
  _atom_site_occupancy
  Ba  Ba1       1.0  0.25000  0.86700  0.26500  1.0000
  Ba  Ba2       1.0  0.75000  0.13300  0.73500  1.0000
  Pb  Pb1       1.0  0.75000  0.42000  0.16000  1.0000
  Pb  Pb2       1.0  0.25000  0.58000  0.84000  1.0000
