data_image0
_chemical_formula_structural       Li2N4P2
_chemical_formula_sum              "Li2 N4 P2"
_cell_length_a       4.5419
_cell_length_b       4.5419
_cell_length_c       4.82409
_cell_angle_alpha    118.083
_cell_angle_beta     118.083
_cell_angle_gamma    90

_space_group_name_H-M_alt    "P 1"
_space_group_IT_number       1

loop_
  _space_group_symop_operation_xyz
  'x, y, z'

loop_
  _atom_site_type_symbol
  _atom_site_label
  _atom_site_symmetry_multiplicity
  _atom_site_fract_x
  _atom_site_fract_y
  _atom_site_fract_z
  _atom_site_occupancy
  Li  Li1       1.0  0.50000  0.50000  0.00000  1.0000
  Li  Li2       1.0  0.75000  0.25000  0.50000  1.0000
  N   N1        1.0  0.29600  0.37500  0.25000  1.0000
  N   N2        1.0  0.95400  0.87500  0.25000  1.0000
  N   N3        1.0  0.62500  0.04560  0.75000  1.0000
  N   N4        1.0  0.12500  0.70400  0.75000  1.0000
  P   P1        1.0  0.00000  0.00000  0.00000  1.0000
  P   P2        1.0  0.25000  0.75000  0.50000  1.0000
