data_image0
_chemical_formula_structural       O24Sc16
_chemical_formula_sum              "O24 Sc16"
_cell_length_a       8.43457
_cell_length_b       8.43457
_cell_length_c       8.43457
_cell_angle_alpha    109.471
_cell_angle_beta     109.471
_cell_angle_gamma    109.471

_space_group_name_H-M_alt    "P 1"
_space_group_IT_number       1

loop_
  _space_group_symop_operation_xyz
  'x, y, z'

loop_
  _atom_site_type_symbol
  _atom_site_label
  _atom_site_symmetry_multiplicity
  _atom_site_fract_x
  _atom_site_fract_y
  _atom_site_fract_z
  _atom_site_occupancy
  O   O1        1.0  0.77300  0.54800  0.53500  1.0000
  O   O2        1.0  0.51200  0.23800  0.96500  1.0000
  O   O3        1.0  0.72700  0.26200  0.77500  1.0000
  O   O4        1.0  0.98800  0.95200  0.72500  1.0000
  O   O5        1.0  0.53500  0.77300  0.54800  1.0000
  O   O6        1.0  0.54800  0.53500  0.77300  1.0000
  O   O7        1.0  0.72500  0.98800  0.95200  1.0000
  O   O8        1.0  0.23800  0.96500  0.51200  1.0000
  O   O9        1.0  0.96500  0.51200  0.23800  1.0000
  O   O10       1.0  0.26200  0.77500  0.72700  1.0000
  O   O11       1.0  0.77500  0.72700  0.26200  1.0000
  O   O12       1.0  0.95200  0.72500  0.98800  1.0000
  O   O13       1.0  0.45200  0.46400  0.22600  1.0000
  O   O14       1.0  0.73800  0.22600  0.27400  1.0000
  O   O15       1.0  0.04770  0.27400  0.01210  1.0000
  O   O16       1.0  0.76200  0.03560  0.48800  1.0000
  O   O17       1.0  0.22600  0.45200  0.46400  1.0000
  O   O18       1.0  0.46400  0.22600  0.45200  1.0000
  O   O19       1.0  0.48800  0.76200  0.03560  1.0000
  O   O20       1.0  0.22600  0.27400  0.73800  1.0000
  O   O21       1.0  0.27400  0.73800  0.22600  1.0000
  O   O22       1.0  0.27400  0.01210  0.04770  1.0000
  O   O23       1.0  0.01210  0.04770  0.27400  1.0000
  O   O24       1.0  0.03560  0.48800  0.76200  1.0000
  Sc  Sc1       1.0  0.49900  0.49900  0.49900  1.0000
  Sc  Sc2       1.0  0.50000  0.00000  0.00097  1.0000
  Sc  Sc3       1.0  0.00097  0.50000  0.00000  1.0000
  Sc  Sc4       1.0  0.00000  0.00097  0.50000  1.0000
  Sc  Sc5       1.0  0.25000  0.71400  0.46400  1.0000
  Sc  Sc6       1.0  0.75000  0.78600  0.03560  1.0000
  Sc  Sc7       1.0  0.46400  0.25000  0.71400  1.0000
  Sc  Sc8       1.0  0.71400  0.46400  0.25000  1.0000
  Sc  Sc9       1.0  0.03560  0.75000  0.78600  1.0000
  Sc  Sc10      1.0  0.78600  0.03560  0.75000  1.0000
  Sc  Sc11      1.0  0.25000  0.21400  0.96400  1.0000
  Sc  Sc12      1.0  0.75000  0.28600  0.53600  1.0000
  Sc  Sc13      1.0  0.96400  0.25000  0.21400  1.0000
  Sc  Sc14      1.0  0.21400  0.96400  0.25000  1.0000
  Sc  Sc15      1.0  0.53600  0.75000  0.28600  1.0000
  Sc  Sc16      1.0  0.28600  0.53600  0.75000  1.0000
