data_image0
_chemical_formula_structural       FH6NaO6Te
_chemical_formula_sum              "F1 H6 Na1 O6 Te1"
_cell_length_a       5.5461
_cell_length_b       5.5461
_cell_length_c       5.5461
_cell_angle_alpha    116.189
_cell_angle_beta     63.8106
_cell_angle_gamma    116.189

_space_group_name_H-M_alt    "P 1"
_space_group_IT_number       1

loop_
  _space_group_symop_operation_xyz
  'x, y, z'

loop_
  _atom_site_type_symbol
  _atom_site_label
  _atom_site_symmetry_multiplicity
  _atom_site_fract_x
  _atom_site_fract_y
  _atom_site_fract_z
  _atom_site_occupancy
  F   F1        1.0  0.55500  0.44500  0.55500  1.0000
  H   H1        1.0  0.95400  0.52900  0.01450  1.0000
  H   H2        1.0  0.60400  0.20100  0.32700  1.0000
  H   H3        1.0  0.01450  0.04600  0.47100  1.0000
  H   H4        1.0  0.79900  0.67300  0.60400  1.0000
  H   H5        1.0  0.32700  0.39600  0.79900  1.0000
  H   H6        1.0  0.47100  0.98500  0.95400  1.0000
  Na  Na1       1.0  0.37100  0.62900  0.37100  1.0000
  O   O1        1.0  0.81700  0.62700  0.05620  1.0000
  O   O2        1.0  0.62200  0.02030  0.15700  1.0000
  O   O3        1.0  0.05620  0.18300  0.37300  1.0000
  O   O4        1.0  0.98000  0.84300  0.62200  1.0000
  O   O5        1.0  0.37300  0.94400  0.81700  1.0000
  O   O6        1.0  0.15700  0.37800  0.98000  1.0000
  Te  Te1       1.0  0.00479  0.99500  0.00479  1.0000
