data_image0
_chemical_formula_structural       H6K2O6Sn
_chemical_formula_sum              "H6 K2 O6 Sn1"
_cell_length_a       5.59934
_cell_length_b       5.59934
_cell_length_c       5.59934
_cell_angle_alpha    109.194
_cell_angle_beta     109.194
_cell_angle_gamma    70.8056

_space_group_name_H-M_alt    "P 1"
_space_group_IT_number       1

loop_
  _space_group_symop_operation_xyz
  'x, y, z'

loop_
  _atom_site_type_symbol
  _atom_site_label
  _atom_site_symmetry_multiplicity
  _atom_site_fract_x
  _atom_site_fract_y
  _atom_site_fract_z
  _atom_site_occupancy
  H   H1        1.0  0.24300  0.37100  0.19200  1.0000
  H   H2        1.0  0.62900  0.19200  0.24300  1.0000
  H   H3        1.0  0.19200  0.75700  0.37100  1.0000
  H   H4        1.0  0.80800  0.24300  0.62900  1.0000
  H   H5        1.0  0.37100  0.80800  0.75700  1.0000
  H   H6        1.0  0.75700  0.62900  0.80800  1.0000
  K   K1        1.0  0.71100  0.71100  0.28900  1.0000
  K   K2        1.0  0.28900  0.28900  0.71100  1.0000
  O   O1        1.0  0.20300  0.69700  0.18600  1.0000
  O   O2        1.0  0.30300  0.18600  0.20300  1.0000
  O   O3        1.0  0.81400  0.20300  0.30300  1.0000
  O   O4        1.0  0.18600  0.79700  0.69700  1.0000
  O   O5        1.0  0.69700  0.81400  0.79700  1.0000
  O   O6        1.0  0.79700  0.30300  0.81400  1.0000
  Sn  Sn1       1.0  0.00000  0.00000  0.00000  1.0000
