data_image0
_chemical_formula_structural       Ge4Ho2Ni2
_chemical_formula_sum              "Ge4 Ho2 Ni2"
_cell_length_a       4.05415
_cell_length_b       4.17291
_cell_length_c       8.61077
_cell_angle_alpha    90
_cell_angle_beta     76.3841
_cell_angle_gamma    90

_space_group_name_H-M_alt    "P 1"
_space_group_IT_number       1

loop_
  _space_group_symop_operation_xyz
  'x, y, z'

loop_
  _atom_site_type_symbol
  _atom_site_label
  _atom_site_symmetry_multiplicity
  _atom_site_fract_x
  _atom_site_fract_y
  _atom_site_fract_z
  _atom_site_occupancy
  Ge  Ge1       1.0  0.45900  0.75000  0.08120  1.0000
  Ge  Ge2       1.0  0.25200  0.25000  0.49700  1.0000
  Ge  Ge3       1.0  0.74800  0.75000  0.50300  1.0000
  Ge  Ge4       1.0  0.54100  0.25000  0.91900  1.0000
  Ho  Ho1       1.0  0.89200  0.25000  0.21600  1.0000
  Ho  Ho2       1.0  0.10800  0.75000  0.78400  1.0000
  Ni  Ni1       1.0  0.32300  0.75000  0.35500  1.0000
  Ni  Ni2       1.0  0.67700  0.25000  0.64500  1.0000
