data_image0
_chemical_formula_structural       S2Ti
_chemical_formula_sum              "S2 Ti1"
_cell_length_a       3.39144
_cell_length_b       3.39671
_cell_length_c       8.81392
_cell_angle_alpha    100.722
_cell_angle_beta     90
_cell_angle_gamma    119.949

_space_group_name_H-M_alt    "P 1"
_space_group_IT_number       1

loop_
  _space_group_symop_operation_xyz
  'x, y, z'

loop_
  _atom_site_type_symbol
  _atom_site_label
  _atom_site_symmetry_multiplicity
  _atom_site_fract_x
  _atom_site_fract_y
  _atom_site_fract_z
  _atom_site_occupancy
  S   S1        1.0  0.38700  0.77300  0.16500  1.0000
  S   S2        1.0  0.61300  0.22700  0.83500  1.0000
  Ti  Ti1       1.0  0.00000  0.00000  0.00000  1.0000
