data_image0
_chemical_formula_structural       H2O10U3
_chemical_formula_sum              "H2 O10 U3"
_cell_length_a       6.82874
_cell_length_b       7.40584
_cell_length_c       5.52892
_cell_angle_alpha    108.176
_cell_angle_beta     126.135
_cell_angle_gamma    88.4188

_space_group_name_H-M_alt    "P 1"
_space_group_IT_number       1

loop_
  _space_group_symop_operation_xyz
  'x, y, z'

loop_
  _atom_site_type_symbol
  _atom_site_label
  _atom_site_symmetry_multiplicity
  _atom_site_fract_x
  _atom_site_fract_y
  _atom_site_fract_z
  _atom_site_occupancy
  H   H1        1.0  0.25800  0.59200  0.12900  1.0000
  H   H2        1.0  0.74200  0.40800  0.87100  1.0000
  O   O1        1.0  0.68900  0.04140  0.99800  1.0000
  O   O2        1.0  0.31100  0.95900  0.00206  1.0000
  O   O3        1.0  0.70500  0.45800  0.02450  1.0000
  O   O4        1.0  0.94300  0.76700  0.02980  1.0000
  O   O5        1.0  0.63400  0.34900  0.43800  1.0000
  O   O6        1.0  0.75000  0.84500  0.43900  1.0000
  O   O7        1.0  0.25000  0.15500  0.56100  1.0000
  O   O8        1.0  0.36600  0.65100  0.56200  1.0000
  O   O9        1.0  0.05720  0.23300  0.97000  1.0000
  O   O10       1.0  0.29500  0.54200  0.97600  1.0000
  U   U1        1.0  0.55700  0.74600  0.99300  1.0000
  U   U2        1.0  0.00000  0.00000  0.00000  1.0000
  U   U3        1.0  0.44300  0.25400  0.00663  1.0000
