data_image0
_chemical_formula_structural       H6K2O6Pb
_chemical_formula_sum              "H6 K2 O6 Pb1"
_cell_length_a       5.68908
_cell_length_b       5.68908
_cell_length_c       5.68908
_cell_angle_alpha    109.64
_cell_angle_beta     70.3602
_cell_angle_gamma    109.64

_space_group_name_H-M_alt    "P 1"
_space_group_IT_number       1

loop_
  _space_group_symop_operation_xyz
  'x, y, z'

loop_
  _atom_site_type_symbol
  _atom_site_label
  _atom_site_symmetry_multiplicity
  _atom_site_fract_x
  _atom_site_fract_y
  _atom_site_fract_z
  _atom_site_occupancy
  H   H1        1.0  0.63400  0.25700  0.20000  1.0000
  H   H2        1.0  0.80000  0.63400  0.25700  1.0000
  H   H3        1.0  0.25700  0.20000  0.36600  1.0000
  H   H4        1.0  0.74300  0.80000  0.63400  1.0000
  H   H5        1.0  0.20000  0.36600  0.74300  1.0000
  H   H6        1.0  0.36600  0.74300  0.80000  1.0000
  K   K1        1.0  0.28600  0.71400  0.28600  1.0000
  K   K2        1.0  0.71400  0.28600  0.71400  1.0000
  O   O1        1.0  0.32100  0.21500  0.18400  1.0000
  O   O2        1.0  0.81600  0.32100  0.21500  1.0000
  O   O3        1.0  0.78500  0.81600  0.32100  1.0000
  O   O4        1.0  0.21500  0.18400  0.67900  1.0000
  O   O5        1.0  0.18400  0.67900  0.78500  1.0000
  O   O6        1.0  0.67900  0.78500  0.81600  1.0000
  Pb  Pb1       1.0  0.00000  0.00000  0.00000  1.0000
