data_image0
_chemical_formula_structural       Cl2H8N4Zn
_chemical_formula_sum              "Cl2 H8 N4 Zn1"
_cell_length_a       4.1092
_cell_length_b       5.92554
_cell_length_c       5.92554
_cell_angle_alpha    97.8257
_cell_angle_beta     101.74
_cell_angle_gamma    78.2597

_space_group_name_H-M_alt    "P 1"
_space_group_IT_number       1

loop_
  _space_group_symop_operation_xyz
  'x, y, z'

loop_
  _atom_site_type_symbol
  _atom_site_label
  _atom_site_symmetry_multiplicity
  _atom_site_fract_x
  _atom_site_fract_y
  _atom_site_fract_z
  _atom_site_occupancy
  Cl  Cl1       1.0  0.01060  0.71000  0.29000  1.0000
  Cl  Cl2       1.0  0.98900  0.29000  0.71000  1.0000
  H   H1        1.0  0.45200  0.32400  0.00362  1.0000
  H   H2        1.0  0.70500  0.37300  0.25700  1.0000
  H   H3        1.0  0.54800  0.00362  0.32400  1.0000
  H   H4        1.0  0.29500  0.25700  0.37300  1.0000
  H   H5        1.0  0.70500  0.74300  0.62700  1.0000
  H   H6        1.0  0.45200  0.99600  0.67600  1.0000
  H   H7        1.0  0.29500  0.62700  0.74300  1.0000
  H   H8        1.0  0.54800  0.67600  0.99600  1.0000
  N   N1        1.0  0.60700  0.24600  0.14200  1.0000
  N   N2        1.0  0.39300  0.14200  0.24600  1.0000
  N   N3        1.0  0.60700  0.85800  0.75400  1.0000
  N   N4        1.0  0.39300  0.75400  0.85800  1.0000
  Zn  Zn1       1.0  0.00000  0.00000  0.00000  1.0000
