data_image0
_chemical_formula_structural       Ca6Cr2HN6
_chemical_formula_sum              "Ca6 Cr2 H1 N6"
_cell_length_a       5.99397
_cell_length_b       5.99397
_cell_length_c       5.99397
_cell_angle_alpha    96.5167
_cell_angle_beta     96.5167
_cell_angle_gamma    96.5167

_space_group_name_H-M_alt    "P 1"
_space_group_IT_number       1

loop_
  _space_group_symop_operation_xyz
  'x, y, z'

loop_
  _atom_site_type_symbol
  _atom_site_label
  _atom_site_symmetry_multiplicity
  _atom_site_fract_x
  _atom_site_fract_y
  _atom_site_fract_z
  _atom_site_occupancy
  Ca  Ca1       1.0  0.78800  0.62800  0.11000  1.0000
  Ca  Ca2       1.0  0.37200  0.89000  0.21200  1.0000
  Ca  Ca3       1.0  0.89000  0.21200  0.37200  1.0000
  Ca  Ca4       1.0  0.11000  0.78800  0.62800  1.0000
  Ca  Ca5       1.0  0.62800  0.11000  0.78800  1.0000
  Ca  Ca6       1.0  0.21200  0.37200  0.89000  1.0000
  Cr  Cr1       1.0  0.38000  0.38000  0.38000  1.0000
  Cr  Cr2       1.0  0.62000  0.62000  0.62000  1.0000
  H   H1        1.0  0.00000  0.00000  0.00000  1.0000
  N   N1        1.0  0.53000  0.27500  0.15200  1.0000
  N   N2        1.0  0.15200  0.53000  0.27500  1.0000
  N   N3        1.0  0.72500  0.84800  0.47000  1.0000
  N   N4        1.0  0.27500  0.15200  0.53000  1.0000
  N   N5        1.0  0.84800  0.47000  0.72500  1.0000
  N   N6        1.0  0.47000  0.72500  0.84800  1.0000
