data_image0
_chemical_formula_structural       Ba8H2OSb4
_chemical_formula_sum              "Ba8 H2 O1 Sb4"
_cell_length_a       5.24293
_cell_length_b       5.24293
_cell_length_c       19.3897
_cell_angle_alpha    97.7701
_cell_angle_beta     97.7701
_cell_angle_gamma    90

_space_group_name_H-M_alt    "P 1"
_space_group_IT_number       1

loop_
  _space_group_symop_operation_xyz
  'x, y, z'

loop_
  _atom_site_type_symbol
  _atom_site_label
  _atom_site_symmetry_multiplicity
  _atom_site_fract_x
  _atom_site_fract_y
  _atom_site_fract_z
  _atom_site_occupancy
  Ba  Ba1       1.0  0.50000  0.00000  0.00000  1.0000
  Ba  Ba2       1.0  0.00000  0.50000  0.00000  1.0000
  Ba  Ba3       1.0  0.08480  0.08480  0.17000  1.0000
  Ba  Ba4       1.0  0.65900  0.65900  0.31900  1.0000
  Ba  Ba5       1.0  0.75000  0.25000  0.50000  1.0000
  Ba  Ba6       1.0  0.25000  0.75000  0.50000  1.0000
  Ba  Ba7       1.0  0.34100  0.34100  0.68100  1.0000
  Ba  Ba8       1.0  0.91500  0.91500  0.83000  1.0000
  H   H1        1.0  0.72900  0.72900  0.45800  1.0000
  H   H2        1.0  0.27100  0.27100  0.54200  1.0000
  O   O1        1.0  0.00000  0.00000  0.00000  1.0000
  Sb  Sb1       1.0  0.56700  0.56700  0.13400  1.0000
  Sb  Sb2       1.0  0.18000  0.18000  0.36000  1.0000
  Sb  Sb3       1.0  0.82000  0.82000  0.64000  1.0000
  Sb  Sb4       1.0  0.43300  0.43300  0.86600  1.0000
