data_image0
_chemical_formula_structural       H6HfNa2O6
_chemical_formula_sum              "H6 Hf1 Na2 O6"
_cell_length_a       5.76474
_cell_length_b       5.76477
_cell_length_c       5.76475
_cell_angle_alpha    61.6953
_cell_angle_beta     118.305
_cell_angle_gamma    118.304

_space_group_name_H-M_alt    "P 1"
_space_group_IT_number       1

loop_
  _space_group_symop_operation_xyz
  'x, y, z'

loop_
  _atom_site_type_symbol
  _atom_site_label
  _atom_site_symmetry_multiplicity
  _atom_site_fract_x
  _atom_site_fract_y
  _atom_site_fract_z
  _atom_site_occupancy
  H   H1        1.0  0.35400  0.33600  0.06110  1.0000
  H   H2        1.0  0.93900  0.64600  0.33600  1.0000
  H   H3        1.0  0.33600  0.93900  0.35400  1.0000
  H   H4        1.0  0.66400  0.06110  0.64600  1.0000
  H   H5        1.0  0.06110  0.35400  0.66400  1.0000
  H   H6        1.0  0.64600  0.66400  0.93900  1.0000
  Hf  Hf1       1.0  0.50000  0.50000  0.50000  1.0000
  Na  Na1       1.0  0.83500  0.16500  0.16500  1.0000
  Na  Na2       1.0  0.16500  0.83500  0.83500  1.0000
  O   O1        1.0  0.28800  0.41800  0.12300  1.0000
  O   O2        1.0  0.41800  0.87700  0.28800  1.0000
  O   O3        1.0  0.87700  0.71200  0.41800  1.0000
  O   O4        1.0  0.12300  0.28800  0.58200  1.0000
  O   O5        1.0  0.58200  0.12300  0.71200  1.0000
  O   O6        1.0  0.71200  0.58200  0.87700  1.0000
