data_image0
_chemical_formula_structural       H6N4O4Pd
_chemical_formula_sum              "H6 N4 O4 Pd1"
_cell_length_a       4.83128
_cell_length_b       5.25677
_cell_length_c       6.12177
_cell_angle_alpha    89.2389
_cell_angle_beta     115.353
_cell_angle_gamma    100.297

_space_group_name_H-M_alt    "P 1"
_space_group_IT_number       1

loop_
  _space_group_symop_operation_xyz
  'x, y, z'

loop_
  _atom_site_type_symbol
  _atom_site_label
  _atom_site_symmetry_multiplicity
  _atom_site_fract_x
  _atom_site_fract_y
  _atom_site_fract_z
  _atom_site_occupancy
  H   H1        1.0  0.93000  0.40300  0.24800  1.0000
  H   H2        1.0  0.58700  0.42700  0.24900  1.0000
  H   H3        1.0  0.80600  0.22800  0.43000  1.0000
  H   H4        1.0  0.19400  0.77200  0.57000  1.0000
  H   H5        1.0  0.41300  0.57300  0.75100  1.0000
  H   H6        1.0  0.06950  0.59700  0.75200  1.0000
  N   N1        1.0  0.29200  0.83600  0.20300  1.0000
  N   N2        1.0  0.73500  0.30200  0.26200  1.0000
  N   N3        1.0  0.26500  0.69800  0.73800  1.0000
  N   N4        1.0  0.70800  0.16400  0.79700  1.0000
  O   O1        1.0  0.28300  0.59700  0.23600  1.0000
  O   O2        1.0  0.16900  0.96400  0.29500  1.0000
  O   O3        1.0  0.83100  0.03630  0.70500  1.0000
  O   O4        1.0  0.71700  0.40300  0.76400  1.0000
  Pd  Pd1       1.0  0.50000  1.00000  1.00000  1.0000
