data_image0
_chemical_formula_structural       B2CaH10N2
_chemical_formula_sum              "B2 Ca1 H10 N2"
_cell_length_a       4.26774
_cell_length_b       5.01167
_cell_length_c       6.27272
_cell_angle_alpha    92.9334
_cell_angle_beta     90
_cell_angle_gamma    115.2

_space_group_name_H-M_alt    "P 1"
_space_group_IT_number       1

loop_
  _space_group_symop_operation_xyz
  'x, y, z'

loop_
  _atom_site_type_symbol
  _atom_site_label
  _atom_site_symmetry_multiplicity
  _atom_site_fract_x
  _atom_site_fract_y
  _atom_site_fract_z
  _atom_site_occupancy
  B   B1        1.0  0.13400  0.33600  0.21400  1.0000
  B   B2        1.0  0.79800  0.66400  0.78600  1.0000
  Ca  Ca1       1.0  0.44700  0.00000  0.00000  1.0000
  H   H1        1.0  0.13900  0.29200  0.01630  1.0000
  H   H2        1.0  0.83500  0.28500  0.26000  1.0000
  H   H3        1.0  0.20100  0.14700  0.29800  1.0000
  H   H4        1.0  0.62100  0.69000  0.31700  1.0000
  H   H5        1.0  0.29200  0.72000  0.42400  1.0000
  H   H6        1.0  0.57200  0.28000  0.57600  1.0000
  H   H7        1.0  0.93100  0.31000  0.68300  1.0000
  H   H8        1.0  0.05440  0.85300  0.70200  1.0000
  H   H9        1.0  0.55000  0.71500  0.74000  1.0000
  H   H10       1.0  0.84700  0.70800  0.98400  1.0000
  N   N1        1.0  0.37300  0.65900  0.28400  1.0000
  N   N2        1.0  0.71400  0.34100  0.71600  1.0000
