data_image0
_chemical_formula_structural       Ni2Ta4
_chemical_formula_sum              "Ni2 Ta4"
_cell_length_a       4.8614
_cell_length_b       5.01755
_cell_length_c       5.01755
_cell_angle_alpha    103.573
_cell_angle_beta     61.0242
_cell_angle_gamma    118.976

_space_group_name_H-M_alt    "P 1"
_space_group_IT_number       1

loop_
  _space_group_symop_operation_xyz
  'x, y, z'

loop_
  _atom_site_type_symbol
  _atom_site_label
  _atom_site_symmetry_multiplicity
  _atom_site_fract_x
  _atom_site_fract_y
  _atom_site_fract_z
  _atom_site_occupancy
  Ni  Ni1       1.0  0.25000  0.00000  0.00000  1.0000
  Ni  Ni2       1.0  0.75000  0.00000  0.00000  1.0000
  Ta  Ta1       1.0  0.15800  0.50000  0.18400  1.0000
  Ta  Ta2       1.0  0.34200  0.18400  0.50000  1.0000
  Ta  Ta3       1.0  0.65800  0.81600  0.50000  1.0000
  Ta  Ta4       1.0  0.84200  0.50000  0.81600  1.0000
