data_image0
_chemical_formula_structural       As2Cu2Na4
_chemical_formula_sum              "As2 Cu2 Na4"
_cell_length_a       5.30112
_cell_length_b       5.67533
_cell_length_c       5.67533
_cell_angle_alpha    78.4061
_cell_angle_beta     90
_cell_angle_gamma    90

_space_group_name_H-M_alt    "P 1"
_space_group_IT_number       1

loop_
  _space_group_symop_operation_xyz
  'x, y, z'

loop_
  _atom_site_type_symbol
  _atom_site_label
  _atom_site_symmetry_multiplicity
  _atom_site_fract_x
  _atom_site_fract_y
  _atom_site_fract_z
  _atom_site_occupancy
  As  As1       1.0  0.25000  0.76700  0.23300  1.0000
  As  As2       1.0  0.75000  0.23300  0.76700  1.0000
  Cu  Cu1       1.0  0.00000  0.50000  0.50000  1.0000
  Cu  Cu2       1.0  0.50000  0.50000  0.50000  1.0000
  Na  Na1       1.0  0.25000  0.31800  0.02980  1.0000
  Na  Na2       1.0  0.75000  0.02980  0.31800  1.0000
  Na  Na3       1.0  0.25000  0.97000  0.68200  1.0000
  Na  Na4       1.0  0.75000  0.68200  0.97000  1.0000
