data_image0
_chemical_formula_structural       Fe2Ge4Pr2
_chemical_formula_sum              "Fe2 Ge4 Pr2"
_cell_length_a       4.33779
_cell_length_b       4.39569
_cell_length_c       8.5035
_cell_angle_alpha    75.0211
_cell_angle_beta     90
_cell_angle_gamma    90

_space_group_name_H-M_alt    "P 1"
_space_group_IT_number       1

loop_
  _space_group_symop_operation_xyz
  'x, y, z'

loop_
  _atom_site_type_symbol
  _atom_site_label
  _atom_site_symmetry_multiplicity
  _atom_site_fract_x
  _atom_site_fract_y
  _atom_site_fract_z
  _atom_site_occupancy
  Fe  Fe1       1.0  0.75000  0.31000  0.38000  1.0000
  Fe  Fe2       1.0  0.25000  0.69000  0.62000  1.0000
  Ge  Ge1       1.0  0.75000  0.45200  0.09680  1.0000
  Ge  Ge2       1.0  0.75000  0.75100  0.49900  1.0000
  Ge  Ge3       1.0  0.25000  0.24900  0.50100  1.0000
  Ge  Ge4       1.0  0.25000  0.54800  0.90300  1.0000
  Pr  Pr1       1.0  0.25000  0.89500  0.20900  1.0000
  Pr  Pr2       1.0  0.75000  0.10500  0.79100  1.0000
