data_image0
_chemical_formula_structural       H6Na2O6Pt
_chemical_formula_sum              "H6 Na2 O6 Pt1"
_cell_length_a       5.73168
_cell_length_b       5.73168
_cell_length_c       4.44938
_cell_angle_alpha    89.9998
_cell_angle_beta     90.0002
_cell_angle_gamma    120

_space_group_name_H-M_alt    "P 1"
_space_group_IT_number       1

loop_
  _space_group_symop_operation_xyz
  'x, y, z'

loop_
  _atom_site_type_symbol
  _atom_site_label
  _atom_site_symmetry_multiplicity
  _atom_site_fract_x
  _atom_site_fract_y
  _atom_site_fract_z
  _atom_site_occupancy
  H   H1        1.0  0.81400  0.66500  0.42100  1.0000
  H   H2        1.0  0.85100  0.18600  0.42100  1.0000
  H   H3        1.0  0.33500  0.14900  0.42100  1.0000
  H   H4        1.0  0.66500  0.85100  0.57900  1.0000
  H   H5        1.0  0.14900  0.81400  0.57900  1.0000
  H   H6        1.0  0.18600  0.33500  0.57900  1.0000
  Na  Na1       1.0  0.33300  0.66700  0.04980  1.0000
  Na  Na2       1.0  0.66700  0.33300  0.95000  1.0000
  O   O1        1.0  0.30400  0.01770  0.25700  1.0000
  O   O2        1.0  0.98200  0.28700  0.25700  1.0000
  O   O3        1.0  0.71300  0.69600  0.25700  1.0000
  O   O4        1.0  0.28700  0.30400  0.74300  1.0000
  O   O5        1.0  0.01770  0.71300  0.74300  1.0000
  O   O6        1.0  0.69600  0.98200  0.74300  1.0000
  Pt  Pt1       1.0  0.00000  0.00000  0.00000  1.0000
