data_image0
_chemical_formula_structural       H6N4O4Pt
_chemical_formula_sum              "H6 N4 O4 Pt1"
_cell_length_a       4.28876
_cell_length_b       5.67081
_cell_length_c       5.67081
_cell_angle_alpha    102.155
_cell_angle_beta     93.6308
_cell_angle_gamma    93.6308

_space_group_name_H-M_alt    "P 1"
_space_group_IT_number       1

loop_
  _space_group_symop_operation_xyz
  'x, y, z'

loop_
  _atom_site_type_symbol
  _atom_site_label
  _atom_site_symmetry_multiplicity
  _atom_site_fract_x
  _atom_site_fract_y
  _atom_site_fract_z
  _atom_site_occupancy
  H   H1        1.0  0.55200  0.49600  0.00068  1.0000
  H   H2        1.0  0.40300  0.20400  0.33600  1.0000
  H   H3        1.0  0.44800  0.99900  0.50400  1.0000
  H   H4        1.0  0.15600  0.17700  0.54400  1.0000
  H   H5        1.0  0.59700  0.66400  0.79600  1.0000
  H   H6        1.0  0.84400  0.45600  0.82300  1.0000
  N   N1        1.0  1.00000  0.60600  0.39400  1.0000
  N   N2        1.0  0.28600  0.08150  0.41500  1.0000
  N   N3        1.0  0.71400  0.58500  0.91900  1.0000
  N   N4        1.0  1.00000  0.06120  0.93900  1.0000
  O   O1        1.0  0.78700  0.43900  0.37100  1.0000
  O   O2        1.0  0.21300  0.62900  0.56100  1.0000
  O   O3        1.0  0.79600  0.03200  0.76500  1.0000
  O   O4        1.0  0.20400  0.23500  0.96800  1.0000
  Pt  Pt1       1.0  1.00000  0.83400  0.16600  1.0000
