data_image0
_chemical_formula_structural       CuH6N4O4
_chemical_formula_sum              "Cu1 H6 N4 O4"
_cell_length_a       4.32162
_cell_length_b       5.3483
_cell_length_c       5.87234
_cell_angle_alpha    78.6875
_cell_angle_beta     74.8098
_cell_angle_gamma    80.6652

_space_group_name_H-M_alt    "P 1"
_space_group_IT_number       1

loop_
  _space_group_symop_operation_xyz
  'x, y, z'

loop_
  _atom_site_type_symbol
  _atom_site_label
  _atom_site_symmetry_multiplicity
  _atom_site_fract_x
  _atom_site_fract_y
  _atom_site_fract_z
  _atom_site_occupancy
  Cu  Cu1       1.0  0.00000  0.00000  0.00000  1.0000
  H   H1        1.0  0.12900  0.55900  0.23200  1.0000
  H   H2        1.0  0.78500  0.70100  0.38100  1.0000
  H   H3        1.0  0.13100  0.78100  0.39300  1.0000
  H   H4        1.0  0.86900  0.21900  0.60700  1.0000
  H   H5        1.0  0.21500  0.29900  0.61900  1.0000
  H   H6        1.0  0.87100  0.44100  0.76800  1.0000
  N   N1        1.0  0.59800  0.19000  0.19000  1.0000
  N   N2        1.0  0.01320  0.73200  0.28000  1.0000
  N   N3        1.0  0.98700  0.26800  0.72000  1.0000
  N   N4        1.0  0.40200  0.81000  0.81000  1.0000
  O   O1        1.0  0.35100  0.26000  0.10900  1.0000
  O   O2        1.0  0.61100  0.26600  0.37600  1.0000
  O   O3        1.0  0.38900  0.73400  0.62400  1.0000
  O   O4        1.0  0.64900  0.74000  0.89100  1.0000
