data_image0
_chemical_formula_structural       CaHK3O8P2
_chemical_formula_sum              "Ca1 H1 K3 O8 P2"
_cell_length_a       5.69254
_cell_length_b       5.69254
_cell_length_c       7.35672
_cell_angle_alpha    93.648
_cell_angle_beta     93.648
_cell_angle_gamma    60.0654

_space_group_name_H-M_alt    "P 1"
_space_group_IT_number       1

loop_
  _space_group_symop_operation_xyz
  'x, y, z'

loop_
  _atom_site_type_symbol
  _atom_site_label
  _atom_site_symmetry_multiplicity
  _atom_site_fract_x
  _atom_site_fract_y
  _atom_site_fract_z
  _atom_site_occupancy
  Ca  Ca1       1.0  0.00000  0.00000  0.00000  1.0000
  H   H1        1.0  0.50000  0.50000  0.50000  1.0000
  K   K1        1.0  0.67000  0.67000  0.18800  1.0000
  K   K2        1.0  0.00000  0.00000  0.50000  1.0000
  K   K3        1.0  0.33000  0.33000  0.81200  1.0000
  O   O1        1.0  0.62300  0.17900  0.17200  1.0000
  O   O2        1.0  0.17900  0.62300  0.17200  1.0000
  O   O3        1.0  0.18200  0.18200  0.22300  1.0000
  O   O4        1.0  0.37800  0.37800  0.46700  1.0000
  O   O5        1.0  0.62200  0.62200  0.53300  1.0000
  O   O6        1.0  0.81800  0.81800  0.77700  1.0000
  O   O7        1.0  0.82100  0.37700  0.82800  1.0000
  O   O8        1.0  0.37700  0.82100  0.82800  1.0000
  P   P1        1.0  0.33900  0.33900  0.25500  1.0000
  P   P2        1.0  0.66100  0.66100  0.74500  1.0000
