data_image0
_chemical_formula_structural       NaS2Tm
_chemical_formula_sum              "Na1 S2 Tm1"
_cell_length_a       3.92093
_cell_length_b       3.92093
_cell_length_c       7.00435
_cell_angle_alpha    90
_cell_angle_beta     106.254
_cell_angle_gamma    60

_space_group_name_H-M_alt    "P 1"
_space_group_IT_number       1

loop_
  _space_group_symop_operation_xyz
  'x, y, z'

loop_
  _atom_site_type_symbol
  _atom_site_label
  _atom_site_symmetry_multiplicity
  _atom_site_fract_x
  _atom_site_fract_y
  _atom_site_fract_z
  _atom_site_occupancy
  Na  Na1       1.0  0.00000  0.50000  0.50000  1.0000
  S   S1        1.0  0.48300  0.25800  0.22500  1.0000
  S   S2        1.0  0.51700  0.74200  0.77500  1.0000
  Tm  Tm1       1.0  0.00000  0.00000  0.00000  1.0000
