data_image0
_chemical_formula_structural       Eu2Ge4Ni2
_chemical_formula_sum              "Eu2 Ge4 Ni2"
_cell_length_a       4.14755
_cell_length_b       4.27612
_cell_length_c       8.81163
_cell_angle_alpha    75.9575
_cell_angle_beta     90
_cell_angle_gamma    90

_space_group_name_H-M_alt    "P 1"
_space_group_IT_number       1

loop_
  _space_group_symop_operation_xyz
  'x, y, z'

loop_
  _atom_site_type_symbol
  _atom_site_label
  _atom_site_symmetry_multiplicity
  _atom_site_fract_x
  _atom_site_fract_y
  _atom_site_fract_z
  _atom_site_occupancy
  Eu  Eu1       1.0  0.25000  0.89100  0.21900  1.0000
  Eu  Eu2       1.0  0.75000  0.10900  0.78100  1.0000
  Ge  Ge1       1.0  0.75000  0.45700  0.08570  1.0000
  Ge  Ge2       1.0  0.75000  0.75000  0.49900  1.0000
  Ge  Ge3       1.0  0.25000  0.25000  0.50100  1.0000
  Ge  Ge4       1.0  0.25000  0.54300  0.91400  1.0000
  Ni  Ni1       1.0  0.75000  0.32000  0.36000  1.0000
  Ni  Ni2       1.0  0.25000  0.68000  0.64000  1.0000
