data_image0
_chemical_formula_structural       BCF4H6N3
_chemical_formula_sum              "B1 C1 F4 H6 N3"
_cell_length_a       4.87579
_cell_length_b       4.87579
_cell_length_c       4.87579
_cell_angle_alpha    94.5362
_cell_angle_beta     94.5362
_cell_angle_gamma    94.5362

_space_group_name_H-M_alt    "P 1"
_space_group_IT_number       1

loop_
  _space_group_symop_operation_xyz
  'x, y, z'

loop_
  _atom_site_type_symbol
  _atom_site_label
  _atom_site_symmetry_multiplicity
  _atom_site_fract_x
  _atom_site_fract_y
  _atom_site_fract_z
  _atom_site_occupancy
  B   B1        1.0  0.42100  0.42100  0.42100  1.0000
  C   C1        1.0  0.00730  0.00730  0.00730  1.0000
  F   F1        1.0  0.46300  0.46300  0.14300  1.0000
  F   F2        1.0  0.46300  0.14300  0.46300  1.0000
  F   F3        1.0  0.14300  0.46300  0.46300  1.0000
  F   F4        1.0  0.60100  0.60100  0.60100  1.0000
  H   H1        1.0  0.73700  0.98000  0.30800  1.0000
  H   H2        1.0  0.98000  0.73700  0.30800  1.0000
  H   H3        1.0  0.30800  0.98000  0.73700  1.0000
  H   H4        1.0  0.98000  0.30800  0.73700  1.0000
  H   H5        1.0  0.30800  0.73700  0.98000  1.0000
  H   H6        1.0  0.73700  0.30800  0.98000  1.0000
  N   N1        1.0  0.90100  0.90100  0.22300  1.0000
  N   N2        1.0  0.90100  0.22300  0.90100  1.0000
  N   N3        1.0  0.22300  0.90100  0.90100  1.0000
