data_image0
_chemical_formula_structural       Br4H4O4Pb4
_chemical_formula_sum              "Br4 H4 O4 Pb4"
_cell_length_a       7.42585
_cell_length_b       4.09731
_cell_length_c       10.0476
_cell_angle_alpha    90
_cell_angle_beta     90
_cell_angle_gamma    90

_space_group_name_H-M_alt    "P 1"
_space_group_IT_number       1

loop_
  _space_group_symop_operation_xyz
  'x, y, z'

loop_
  _atom_site_type_symbol
  _atom_site_label
  _atom_site_symmetry_multiplicity
  _atom_site_fract_x
  _atom_site_fract_y
  _atom_site_fract_z
  _atom_site_occupancy
  Br  Br1       1.0  0.55300  0.75000  0.18100  1.0000
  Br  Br2       1.0  0.05250  0.75000  0.31900  1.0000
  Br  Br3       1.0  0.94700  0.25000  0.68100  1.0000
  Br  Br4       1.0  0.44700  0.25000  0.81900  1.0000
  H   H1        1.0  0.79800  0.25000  0.11700  1.0000
  H   H2        1.0  0.29800  0.25000  0.38300  1.0000
  H   H3        1.0  0.70200  0.75000  0.61700  1.0000
  H   H4        1.0  0.20200  0.75000  0.88300  1.0000
  O   O1        1.0  0.87800  0.25000  0.03920  1.0000
  O   O2        1.0  0.37800  0.25000  0.46100  1.0000
  O   O3        1.0  0.62200  0.75000  0.53900  1.0000
  O   O4        1.0  0.12200  0.75000  0.96100  1.0000
  Pb  Pb1       1.0  0.19700  0.25000  0.08550  1.0000
  Pb  Pb2       1.0  0.69700  0.25000  0.41400  1.0000
  Pb  Pb3       1.0  0.30300  0.75000  0.58600  1.0000
  Pb  Pb4       1.0  0.80300  0.75000  0.91400  1.0000
