data_image0
_chemical_formula_structural       PTe2Zr2
_chemical_formula_sum              "P1 Te2 Zr2"
_cell_length_a       3.83847
_cell_length_b       3.83844
_cell_length_c       10.0609
_cell_angle_alpha    79.0037
_cell_angle_beta     100.997
_cell_angle_gamma    120

_space_group_name_H-M_alt    "P 1"
_space_group_IT_number       1

loop_
  _space_group_symop_operation_xyz
  'x, y, z'

loop_
  _atom_site_type_symbol
  _atom_site_label
  _atom_site_symmetry_multiplicity
  _atom_site_fract_x
  _atom_site_fract_y
  _atom_site_fract_z
  _atom_site_occupancy
  P   P1        1.0  0.00000  0.00000  0.00000  1.0000
  Te  Te1       1.0  0.78100  0.21900  0.34200  1.0000
  Te  Te2       1.0  0.21900  0.78100  0.65800  1.0000
  Zr  Zr1       1.0  0.38300  0.61700  0.14800  1.0000
  Zr  Zr2       1.0  0.61700  0.38300  0.85200  1.0000
