data_image0
_chemical_formula_structural       Ge4La2Pt2
_chemical_formula_sum              "Ge4 La2 Pt2"
_cell_length_a       4.45718
_cell_length_b       4.42368
_cell_length_c       8.98647
_cell_angle_alpha    75.7514
_cell_angle_beta     90
_cell_angle_gamma    90

_space_group_name_H-M_alt    "P 1"
_space_group_IT_number       1

loop_
  _space_group_symop_operation_xyz
  'x, y, z'

loop_
  _atom_site_type_symbol
  _atom_site_label
  _atom_site_symmetry_multiplicity
  _atom_site_fract_x
  _atom_site_fract_y
  _atom_site_fract_z
  _atom_site_occupancy
  Ge  Ge1       1.0  0.75000  0.46400  0.07190  1.0000
  Ge  Ge2       1.0  0.25000  0.25000  0.49900  1.0000
  Ge  Ge3       1.0  0.75000  0.75000  0.50100  1.0000
  Ge  Ge4       1.0  0.25000  0.53600  0.92800  1.0000
  La  La1       1.0  0.25000  0.89100  0.21700  1.0000
  La  La2       1.0  0.75000  0.10900  0.78300  1.0000
  Pt  Pt1       1.0  0.75000  0.32200  0.35700  1.0000
  Pt  Pt2       1.0  0.25000  0.67800  0.64300  1.0000
