data_image0
_chemical_formula_structural       C2Ca2Cl2H4O6
_chemical_formula_sum              "C2 Ca2 Cl2 H4 O6"
_cell_length_a       6.10367
_cell_length_b       6.10367
_cell_length_c       6.33055
_cell_angle_alpha    107.588
_cell_angle_beta     112.672
_cell_angle_gamma    106.668

_space_group_name_H-M_alt    "P 1"
_space_group_IT_number       1

loop_
  _space_group_symop_operation_xyz
  'x, y, z'

loop_
  _atom_site_type_symbol
  _atom_site_label
  _atom_site_symmetry_multiplicity
  _atom_site_fract_x
  _atom_site_fract_y
  _atom_site_fract_z
  _atom_site_occupancy
  C   C1        1.0  0.89400  0.39400  0.50000  1.0000
  C   C2        1.0  0.10600  0.60600  0.50000  1.0000
  Ca  Ca1       1.0  0.25100  0.13500  0.38600  1.0000
  Ca  Ca2       1.0  0.74900  0.86500  0.61400  1.0000
  Cl  Cl1       1.0  0.35600  0.75900  0.11500  1.0000
  Cl  Cl2       1.0  0.64400  0.24100  0.88500  1.0000
  H   H1        1.0  0.66300  0.81700  0.03120  1.0000
  H   H2        1.0  0.21400  0.36800  0.03120  1.0000
  H   H3        1.0  0.33700  0.18300  0.96900  1.0000
  H   H4        1.0  0.78600  0.63200  0.96900  1.0000
  O   O1        1.0  0.80900  0.80900  1.00000  1.0000
  O   O2        1.0  0.19100  0.19100  0.00000  1.0000
  O   O3        1.0  0.06420  0.79600  0.49100  1.0000
  O   O4        1.0  0.69500  0.42700  0.49100  1.0000
  O   O5        1.0  0.30500  0.57300  0.50900  1.0000
  O   O6        1.0  0.93600  0.20400  0.50900  1.0000
