data_image0
_chemical_formula_structural       Cd2H4I6O2Rb2
_chemical_formula_sum              "Cd2 H4 I6 O2 Rb2"
_cell_length_a       7.46505
_cell_length_b       7.46505
_cell_length_c       8.87656
_cell_angle_alpha    90.3633
_cell_angle_beta     90.3633
_cell_angle_gamma    85.1896

_space_group_name_H-M_alt    "P 1"
_space_group_IT_number       1

loop_
  _space_group_symop_operation_xyz
  'x, y, z'

loop_
  _atom_site_type_symbol
  _atom_site_label
  _atom_site_symmetry_multiplicity
  _atom_site_fract_x
  _atom_site_fract_y
  _atom_site_fract_z
  _atom_site_occupancy
  Cd  Cd1       1.0  0.96500  0.03340  0.00000  1.0000
  Cd  Cd2       1.0  0.03340  0.96500  0.50000  1.0000
  H   H1        1.0  0.73000  0.34600  0.31900  1.0000
  H   H2        1.0  0.87000  0.48800  0.32200  1.0000
  H   H3        1.0  0.34600  0.73000  0.81900  1.0000
  H   H4        1.0  0.48800  0.87000  0.82200  1.0000
  I   I1        1.0  0.62000  0.19700  0.00554  1.0000
  I   I2        1.0  0.99200  0.66000  0.00561  1.0000
  I   I3        1.0  0.16900  0.15500  0.25100  1.0000
  I   I4        1.0  0.19700  0.62000  0.50600  1.0000
  I   I5        1.0  0.66000  0.99200  0.50600  1.0000
  I   I6        1.0  0.15500  0.16900  0.75100  1.0000
  O   O1        1.0  0.74600  0.47100  0.34900  1.0000
  O   O2        1.0  0.47100  0.74600  0.84900  1.0000
  Rb  Rb1       1.0  0.49200  0.71300  0.17500  1.0000
  Rb  Rb2       1.0  0.71300  0.49200  0.67500  1.0000
