data_image0
_chemical_formula_structural       Au2C4Cl2H6N2
_chemical_formula_sum              "Au2 C4 Cl2 H6 N2"
_cell_length_a       4.13049
_cell_length_b       6.22614
_cell_length_c       9.0834
_cell_angle_alpha    90
_cell_angle_beta     93.7905
_cell_angle_gamma    90

_space_group_name_H-M_alt    "P 1"
_space_group_IT_number       1

loop_
  _space_group_symop_operation_xyz
  'x, y, z'

loop_
  _atom_site_type_symbol
  _atom_site_label
  _atom_site_symmetry_multiplicity
  _atom_site_fract_x
  _atom_site_fract_y
  _atom_site_fract_z
  _atom_site_occupancy
  Au  Au1       1.0  0.86300  0.22900  0.41200  1.0000
  Au  Au2       1.0  0.13700  0.72900  0.58800  1.0000
  C   C1        1.0  0.56000  0.69500  0.14500  1.0000
  C   C2        1.0  0.32100  0.73200  0.39800  1.0000
  C   C3        1.0  0.67900  0.23200  0.60200  1.0000
  C   C4        1.0  0.44000  0.19500  0.85500  1.0000
  Cl  Cl1       1.0  0.07020  0.21500  0.18400  1.0000
  Cl  Cl2       1.0  0.93000  0.71500  0.81600  1.0000
  H   H1        1.0  0.38400  0.60400  0.07420  1.0000
  H   H2        1.0  0.60600  0.85200  0.09570  1.0000
  H   H3        1.0  0.78600  0.60200  0.16000  1.0000
  H   H4        1.0  0.21400  0.10200  0.84000  1.0000
  H   H5        1.0  0.39400  0.35200  0.90400  1.0000
  H   H6        1.0  0.61600  0.10400  0.92600  1.0000
  N   N1        1.0  0.43200  0.72300  0.28400  1.0000
  N   N2        1.0  0.56800  0.22300  0.71600  1.0000
