data_image0
_chemical_formula_structural       Ca2H2Na2O8Si2
_chemical_formula_sum              "Ca2 H2 Na2 O8 Si2"
_cell_length_a       5.69401
_cell_length_b       7.00983
_cell_length_c       5.44153
_cell_angle_alpha    90
_cell_angle_beta     122.365
_cell_angle_gamma    90

_space_group_name_H-M_alt    "P 1"
_space_group_IT_number       1

loop_
  _space_group_symop_operation_xyz
  'x, y, z'

loop_
  _atom_site_type_symbol
  _atom_site_label
  _atom_site_symmetry_multiplicity
  _atom_site_fract_x
  _atom_site_fract_y
  _atom_site_fract_z
  _atom_site_occupancy
  Ca  Ca1       1.0  0.99700  0.51200  0.99300  1.0000
  Ca  Ca2       1.0  0.00267  0.01230  0.00723  1.0000
  H   H1        1.0  0.96800  0.00265  0.49400  1.0000
  H   H2        1.0  0.03250  0.50300  0.50600  1.0000
  Na  Na1       1.0  0.63900  0.26600  0.37900  1.0000
  Na  Na2       1.0  0.36100  0.76600  0.62100  1.0000
  O   O1        1.0  0.76600  0.76000  0.05940  1.0000
  O   O2        1.0  0.32200  0.76200  0.12500  1.0000
  O   O3        1.0  0.79000  0.95300  0.49400  1.0000
  O   O4        1.0  0.20600  0.07230  0.49600  1.0000
  O   O5        1.0  0.79400  0.57200  0.50400  1.0000
  O   O6        1.0  0.21000  0.45300  0.50600  1.0000
  O   O7        1.0  0.67800  0.26200  0.87500  1.0000
  O   O8        1.0  0.23400  0.26000  0.94100  1.0000
  Si  Si1       1.0  0.65800  0.75500  0.28400  1.0000
  Si  Si2       1.0  0.34200  0.25500  0.71600  1.0000
