data_image0
_chemical_formula_structural       H8O6Sr2
_chemical_formula_sum              "H8 O6 Sr2"
_cell_length_a       6.54544
_cell_length_b       6.09359
_cell_length_c       3.64076
_cell_angle_alpha    90
_cell_angle_beta     90
_cell_angle_gamma    90

_space_group_name_H-M_alt    "P 1"
_space_group_IT_number       1

loop_
  _space_group_symop_operation_xyz
  'x, y, z'

loop_
  _atom_site_type_symbol
  _atom_site_label
  _atom_site_symmetry_multiplicity
  _atom_site_fract_x
  _atom_site_fract_y
  _atom_site_fract_z
  _atom_site_occupancy
  H   H1        1.0  0.82900  0.11700  0.21300  1.0000
  H   H2        1.0  0.32900  0.88300  0.21300  1.0000
  H   H3        1.0  0.09890  0.03390  0.50000  1.0000
  H   H4        1.0  0.60900  0.29500  0.50000  1.0000
  H   H5        1.0  0.10900  0.70500  0.50000  1.0000
  H   H6        1.0  0.59900  0.96600  0.50000  1.0000
  H   H7        1.0  0.82900  0.11700  0.78700  1.0000
  H   H8        1.0  0.32900  0.88300  0.78700  1.0000
  O   O1        1.0  0.87800  0.21300  0.00000  1.0000
  O   O2        1.0  0.37800  0.78700  0.00000  1.0000
  O   O3        1.0  0.24600  0.05720  0.50000  1.0000
  O   O4        1.0  0.53800  0.43700  0.50000  1.0000
  O   O5        1.0  0.03830  0.56300  0.50000  1.0000
  O   O6        1.0  0.74600  0.94300  0.50000  1.0000
  Sr  Sr1       1.0  0.25600  0.36900  0.00000  1.0000
  Sr  Sr2       1.0  0.75600  0.63100  0.00000  1.0000
