data_image0
_chemical_formula_structural       Bi2Sr4
_chemical_formula_sum              "Bi2 Sr4"
_cell_length_a       5.08408
_cell_length_b       5.08408
_cell_length_c       9.69879
_cell_angle_alpha    105.195
_cell_angle_beta     105.195
_cell_angle_gamma    90

_space_group_name_H-M_alt    "P 1"
_space_group_IT_number       1

loop_
  _space_group_symop_operation_xyz
  'x, y, z'

loop_
  _atom_site_type_symbol
  _atom_site_label
  _atom_site_symmetry_multiplicity
  _atom_site_fract_x
  _atom_site_fract_y
  _atom_site_fract_z
  _atom_site_occupancy
  Bi  Bi1       1.0  0.13600  0.13600  0.27200  1.0000
  Bi  Bi2       1.0  0.86400  0.86400  0.72800  1.0000
  Sr  Sr1       1.0  0.50000  0.00000  0.00000  1.0000
  Sr  Sr2       1.0  0.00000  0.50000  0.00000  1.0000
  Sr  Sr3       1.0  0.67700  0.67700  0.35400  1.0000
  Sr  Sr4       1.0  0.32300  0.32300  0.64600  1.0000
