data_image0
_chemical_formula_structural       CuI2O2Sr2
_chemical_formula_sum              "Cu1 I2 O2 Sr2"
_cell_length_a       4.0436
_cell_length_b       4.0436
_cell_length_c       10.3594
_cell_angle_alpha    101.254
_cell_angle_beta     101.254
_cell_angle_gamma    90

_space_group_name_H-M_alt    "P 1"
_space_group_IT_number       1

loop_
  _space_group_symop_operation_xyz
  'x, y, z'

loop_
  _atom_site_type_symbol
  _atom_site_label
  _atom_site_symmetry_multiplicity
  _atom_site_fract_x
  _atom_site_fract_y
  _atom_site_fract_z
  _atom_site_occupancy
  Cu  Cu1       1.0  0.00000  0.00000  0.00000  1.0000
  I   I1        1.0  0.17000  0.17000  0.34100  1.0000
  I   I2        1.0  0.83000  0.83000  0.65900  1.0000
  O   O1        1.0  0.50000  0.00000  0.00000  1.0000
  O   O2        1.0  0.00000  0.50000  0.00000  1.0000
  Sr  Sr1       1.0  0.58300  0.58300  0.16700  1.0000
  Sr  Sr2       1.0  0.41700  0.41700  0.83300  1.0000
