data_image0
_chemical_formula_structural       Mo2Rh6
_chemical_formula_sum              "Mo2 Rh6"
_cell_length_a       5.48587
_cell_length_b       5.48594
_cell_length_c       4.36993
_cell_angle_alpha    90
_cell_angle_beta     90
_cell_angle_gamma    120

_space_group_name_H-M_alt    "P 1"
_space_group_IT_number       1

loop_
  _space_group_symop_operation_xyz
  'x, y, z'

loop_
  _atom_site_type_symbol
  _atom_site_label
  _atom_site_symmetry_multiplicity
  _atom_site_fract_x
  _atom_site_fract_y
  _atom_site_fract_z
  _atom_site_occupancy
  Mo  Mo1       1.0  0.33300  0.66700  0.25000  1.0000
  Mo  Mo2       1.0  0.66700  0.33300  0.75000  1.0000
  Rh  Rh1       1.0  0.33400  0.16700  0.25000  1.0000
  Rh  Rh2       1.0  0.83300  0.16700  0.25000  1.0000
  Rh  Rh3       1.0  0.83300  0.66600  0.25000  1.0000
  Rh  Rh4       1.0  0.16700  0.33400  0.75000  1.0000
  Rh  Rh5       1.0  0.16700  0.83300  0.75000  1.0000
  Rh  Rh6       1.0  0.66600  0.83300  0.75000  1.0000
