data_image0
_chemical_formula_structural       Ga3Ni2
_chemical_formula_sum              "Ga3 Ni2"
_cell_length_a       4.06375
_cell_length_b       4.06374
_cell_length_c       4.90664
_cell_angle_alpha    90
_cell_angle_beta     89.9994
_cell_angle_gamma    120

_space_group_name_H-M_alt    "P 1"
_space_group_IT_number       1

loop_
  _space_group_symop_operation_xyz
  'x, y, z'

loop_
  _atom_site_type_symbol
  _atom_site_label
  _atom_site_symmetry_multiplicity
  _atom_site_fract_x
  _atom_site_fract_y
  _atom_site_fract_z
  _atom_site_occupancy
  Ga  Ga1       1.0  0.00000  0.00000  0.00000  1.0000
  Ga  Ga2       1.0  0.66700  0.33300  0.36100  1.0000
  Ga  Ga3       1.0  0.33300  0.66700  0.63900  1.0000
  Ni  Ni1       1.0  0.33300  0.66700  0.14200  1.0000
  Ni  Ni2       1.0  0.66700  0.33300  0.85800  1.0000
