data_image0
_chemical_formula_structural       Ge4Pr4
_chemical_formula_sum              "Ge4 Pr4"
_cell_length_a       8.36083
_cell_length_b       4.08197
_cell_length_c       6.03005
_cell_angle_alpha    90
_cell_angle_beta     90
_cell_angle_gamma    90

_space_group_name_H-M_alt    "P 1"
_space_group_IT_number       1

loop_
  _space_group_symop_operation_xyz
  'x, y, z'

loop_
  _atom_site_type_symbol
  _atom_site_label
  _atom_site_symmetry_multiplicity
  _atom_site_fract_x
  _atom_site_fract_y
  _atom_site_fract_z
  _atom_site_occupancy
  Ge  Ge1       1.0  0.46200  0.75000  0.13600  1.0000
  Ge  Ge2       1.0  0.96200  0.75000  0.36400  1.0000
  Ge  Ge3       1.0  0.03800  0.25000  0.63600  1.0000
  Ge  Ge4       1.0  0.53800  0.25000  0.86400  1.0000
  Pr  Pr1       1.0  0.18100  0.25000  0.11600  1.0000
  Pr  Pr2       1.0  0.68100  0.25000  0.38400  1.0000
  Pr  Pr3       1.0  0.31900  0.75000  0.61600  1.0000
  Pr  Pr4       1.0  0.81900  0.75000  0.88400  1.0000
