data_image0
_chemical_formula_structural       Pd4Pu4
_chemical_formula_sum              "Pd4 Pu4"
_cell_length_a       7.15592
_cell_length_b       4.40089
_cell_length_c       5.77268
_cell_angle_alpha    90
_cell_angle_beta     90.0014
_cell_angle_gamma    90

_space_group_name_H-M_alt    "P 1"
_space_group_IT_number       1

loop_
  _space_group_symop_operation_xyz
  'x, y, z'

loop_
  _atom_site_type_symbol
  _atom_site_label
  _atom_site_symmetry_multiplicity
  _atom_site_fract_x
  _atom_site_fract_y
  _atom_site_fract_z
  _atom_site_occupancy
  Pd  Pd1       1.0  0.45600  0.75000  0.14800  1.0000
  Pd  Pd2       1.0  0.95600  0.75000  0.35200  1.0000
  Pd  Pd3       1.0  0.04360  0.25000  0.64800  1.0000
  Pd  Pd4       1.0  0.54400  0.25000  0.85200  1.0000
  Pu  Pu1       1.0  0.17700  0.25000  0.13900  1.0000
  Pu  Pu2       1.0  0.67700  0.25000  0.36100  1.0000
  Pu  Pu3       1.0  0.32300  0.75000  0.63900  1.0000
  Pu  Pu4       1.0  0.82300  0.75000  0.86100  1.0000
