data_image0
_chemical_formula_structural       In4Sr2
_chemical_formula_sum              "In4 Sr2"
_cell_length_a       5.06119
_cell_length_b       5.05873
_cell_length_c       8.10509
_cell_angle_alpha    90
_cell_angle_beta     90
_cell_angle_gamma    120.016

_space_group_name_H-M_alt    "P 1"
_space_group_IT_number       1

loop_
  _space_group_symop_operation_xyz
  'x, y, z'

loop_
  _atom_site_type_symbol
  _atom_site_label
  _atom_site_symmetry_multiplicity
  _atom_site_fract_x
  _atom_site_fract_y
  _atom_site_fract_z
  _atom_site_occupancy
  In  In1       1.0  0.33300  0.66700  0.04510  1.0000
  In  In2       1.0  0.33300  0.66700  0.45500  1.0000
  In  In3       1.0  0.66700  0.33300  0.54500  1.0000
  In  In4       1.0  0.66700  0.33300  0.95500  1.0000
  Sr  Sr1       1.0  0.00001  0.00001  0.25000  1.0000
  Sr  Sr2       1.0  0.00000  0.00000  0.75000  1.0000
