data_image0
_chemical_formula_structural       NiP3Si2
_chemical_formula_sum              "Ni1 P3 Si2"
_cell_length_a       3.51973
_cell_length_b       5.3382
_cell_length_c       6.4259
_cell_angle_alpha    114.542
_cell_angle_beta     105.895
_cell_angle_gamma    90

_space_group_name_H-M_alt    "P 1"
_space_group_IT_number       1

loop_
  _space_group_symop_operation_xyz
  'x, y, z'

loop_
  _atom_site_type_symbol
  _atom_site_label
  _atom_site_symmetry_multiplicity
  _atom_site_fract_x
  _atom_site_fract_y
  _atom_site_fract_z
  _atom_site_occupancy
  Ni  Ni1       1.0  0.50000  0.24800  0.00000  1.0000
  P   P1        1.0  0.00000  0.00367  0.00000  1.0000
  P   P2        1.0  0.66300  0.65200  0.32600  1.0000
  P   P3        1.0  0.33700  0.32600  0.67400  1.0000
  Si  Si1       1.0  0.16500  0.92200  0.33100  1.0000
  Si  Si2       1.0  0.83500  0.59200  0.66900  1.0000
