data_image0
_chemical_formula_structural       CdCu4Ho
_chemical_formula_sum              "Cd1 Cu4 Ho1"
_cell_length_a       5.08034
_cell_length_b       5.08034
_cell_length_c       5.08034
_cell_angle_alpha    120
_cell_angle_beta     90
_cell_angle_gamma    120

_space_group_name_H-M_alt    "P 1"
_space_group_IT_number       1

loop_
  _space_group_symop_operation_xyz
  'x, y, z'

loop_
  _atom_site_type_symbol
  _atom_site_label
  _atom_site_symmetry_multiplicity
  _atom_site_fract_x
  _atom_site_fract_y
  _atom_site_fract_z
  _atom_site_occupancy
  Cd  Cd1       1.0  0.00000  0.00000  0.00000  1.0000
  Cu  Cu1       1.0  0.62600  0.25200  0.37400  1.0000
  Cu  Cu2       1.0  0.12300  0.74800  0.37400  1.0000
  Cu  Cu3       1.0  0.62600  0.74800  0.37400  1.0000
  Cu  Cu4       1.0  0.62600  0.25200  0.87700  1.0000
  Ho  Ho1       1.0  0.25000  0.50000  0.75000  1.0000
