data_image0
_chemical_formula_structural       As4Ru4
_chemical_formula_sum              "As4 Ru4"
_cell_length_a       5.76394
_cell_length_b       3.33726
_cell_length_c       6.40471
_cell_angle_alpha    90
_cell_angle_beta     89.9986
_cell_angle_gamma    90

_space_group_name_H-M_alt    "P 1"
_space_group_IT_number       1

loop_
  _space_group_symop_operation_xyz
  'x, y, z'

loop_
  _atom_site_type_symbol
  _atom_site_label
  _atom_site_symmetry_multiplicity
  _atom_site_fract_x
  _atom_site_fract_y
  _atom_site_fract_z
  _atom_site_occupancy
  As  As1       1.0  0.30400  0.75000  0.06790  1.0000
  As  As2       1.0  0.80500  0.75000  0.43200  1.0000
  As  As3       1.0  0.19600  0.25000  0.56800  1.0000
  As  As4       1.0  0.69600  0.25000  0.93200  1.0000
  Ru  Ru1       1.0  0.00205  0.25000  0.20300  1.0000
  Ru  Ru2       1.0  0.50200  0.25000  0.29700  1.0000
  Ru  Ru3       1.0  0.49800  0.75000  0.70300  1.0000
  Ru  Ru4       1.0  0.99800  0.75000  0.79700  1.0000
