data_image0
_chemical_formula_structural       Cu4MgY
_chemical_formula_sum              "Cu4 Mg1 Y1"
_cell_length_a       5.09114
_cell_length_b       5.09114
_cell_length_c       5.09114
_cell_angle_alpha    120
_cell_angle_beta     90
_cell_angle_gamma    120

_space_group_name_H-M_alt    "P 1"
_space_group_IT_number       1

loop_
  _space_group_symop_operation_xyz
  'x, y, z'

loop_
  _atom_site_type_symbol
  _atom_site_label
  _atom_site_symmetry_multiplicity
  _atom_site_fract_x
  _atom_site_fract_y
  _atom_site_fract_z
  _atom_site_occupancy
  Cu  Cu1       1.0  0.37400  0.74700  0.12100  1.0000
  Cu  Cu2       1.0  0.37400  0.25300  0.62600  1.0000
  Cu  Cu3       1.0  0.87900  0.25300  0.62600  1.0000
  Cu  Cu4       1.0  0.37400  0.74700  0.62600  1.0000
  Mg  Mg1       1.0  0.00000  0.00000  0.00000  1.0000
  Y   Y1        1.0  0.75000  0.50000  0.25000  1.0000
