data_image0
_chemical_formula_structural       Li5Sn2
_chemical_formula_sum              "Li5 Sn2"
_cell_length_a       4.63385
_cell_length_b       4.63385
_cell_length_c       7.02658
_cell_angle_alpha    109.253
_cell_angle_beta     70.7472
_cell_angle_gamma    120

_space_group_name_H-M_alt    "P 1"
_space_group_IT_number       1

loop_
  _space_group_symop_operation_xyz
  'x, y, z'

loop_
  _atom_site_type_symbol
  _atom_site_label
  _atom_site_symmetry_multiplicity
  _atom_site_fract_x
  _atom_site_fract_y
  _atom_site_fract_z
  _atom_site_occupancy
  Li  Li1       1.0  0.64700  0.35300  0.05760  1.0000
  Li  Li2       1.0  0.21300  0.78700  0.36000  1.0000
  Li  Li3       1.0  0.50000  0.50000  0.50000  1.0000
  Li  Li4       1.0  0.78700  0.21300  0.64000  1.0000
  Li  Li5       1.0  0.35300  0.64700  0.94200  1.0000
  Sn  Sn1       1.0  0.92600  0.07400  0.22200  1.0000
  Sn  Sn2       1.0  0.07400  0.92600  0.77800  1.0000
