data_image0
_chemical_formula_structural       Ho4Pt4
_chemical_formula_sum              "Ho4 Pt4"
_cell_length_a       6.97818
_cell_length_b       4.48535
_cell_length_c       5.5412
_cell_angle_alpha    90
_cell_angle_beta     90
_cell_angle_gamma    90

_space_group_name_H-M_alt    "P 1"
_space_group_IT_number       1

loop_
  _space_group_symop_operation_xyz
  'x, y, z'

loop_
  _atom_site_type_symbol
  _atom_site_label
  _atom_site_symmetry_multiplicity
  _atom_site_fract_x
  _atom_site_fract_y
  _atom_site_fract_z
  _atom_site_occupancy
  Ho  Ho1       1.0  0.18200  0.25000  0.14200  1.0000
  Ho  Ho2       1.0  0.68200  0.25000  0.35800  1.0000
  Ho  Ho3       1.0  0.31800  0.75000  0.64200  1.0000
  Ho  Ho4       1.0  0.81800  0.75000  0.85800  1.0000
  Pt  Pt1       1.0  0.45600  0.75000  0.15600  1.0000
  Pt  Pt2       1.0  0.95600  0.75000  0.34400  1.0000
  Pt  Pt3       1.0  0.04430  0.25000  0.65600  1.0000
  Pt  Pt4       1.0  0.54400  0.25000  0.84400  1.0000
