data_image0
_chemical_formula_structural       MgP4Rh6
_chemical_formula_sum              "Mg1 P4 Rh6"
_cell_length_a       7.0884
_cell_length_b       7.09292
_cell_length_c       3.55057
_cell_angle_alpha    90
_cell_angle_beta     90
_cell_angle_gamma    119.979

_space_group_name_H-M_alt    "P 1"
_space_group_IT_number       1

loop_
  _space_group_symop_operation_xyz
  'x, y, z'

loop_
  _atom_site_type_symbol
  _atom_site_label
  _atom_site_symmetry_multiplicity
  _atom_site_fract_x
  _atom_site_fract_y
  _atom_site_fract_z
  _atom_site_occupancy
  Mg  Mg1       1.0  0.00001  0.00001  0.00000  1.0000
  P   P1        1.0  0.33300  0.66700  0.00000  1.0000
  P   P2        1.0  0.37500  0.18800  0.50000  1.0000
  P   P3        1.0  0.81200  0.18800  0.50000  1.0000
  P   P4        1.0  0.81200  0.62500  0.50000  1.0000
  Rh  Rh1       1.0  0.53400  0.06860  0.00000  1.0000
  Rh  Rh2       1.0  0.53400  0.46600  0.00000  1.0000
  Rh  Rh3       1.0  0.93100  0.46600  0.00000  1.0000
  Rh  Rh4       1.0  0.19200  0.38400  0.50000  1.0000
  Rh  Rh5       1.0  0.19200  0.80800  0.50000  1.0000
  Rh  Rh6       1.0  0.61600  0.80800  0.50000  1.0000
