data_image0
_chemical_formula_structural       Ag2Tb
_chemical_formula_sum              "Ag2 Tb1"
_cell_length_a       3.7251
_cell_length_b       3.7251
_cell_length_c       5.32298
_cell_angle_alpha    110.482
_cell_angle_beta     110.482
_cell_angle_gamma    90

_space_group_name_H-M_alt    "P 1"
_space_group_IT_number       1

loop_
  _space_group_symop_operation_xyz
  'x, y, z'

loop_
  _atom_site_type_symbol
  _atom_site_label
  _atom_site_symmetry_multiplicity
  _atom_site_fract_x
  _atom_site_fract_y
  _atom_site_fract_z
  _atom_site_occupancy
  Ag  Ag1       1.0  0.67000  0.67000  0.34000  1.0000
  Ag  Ag2       1.0  0.33000  0.33000  0.66000  1.0000
  Tb  Tb1       1.0  0.00000  0.00000  0.00000  1.0000
