data_image0
_chemical_formula_structural       Mn2Rb4Se4
_chemical_formula_sum              "Mn2 Rb4 Se4"
_cell_length_a       6.65374
_cell_length_b       7.35302
_cell_length_c       8.47946
_cell_angle_alpha    115.695
_cell_angle_beta     113.1
_cell_angle_gamma    90

_space_group_name_H-M_alt    "P 1"
_space_group_IT_number       1

loop_
  _space_group_symop_operation_xyz
  'x, y, z'

loop_
  _atom_site_type_symbol
  _atom_site_label
  _atom_site_symmetry_multiplicity
  _atom_site_fract_x
  _atom_site_fract_y
  _atom_site_fract_z
  _atom_site_occupancy
  Mn  Mn1       1.0  0.25000  0.00000  0.00000  1.0000
  Mn  Mn2       1.0  0.75000  0.00000  0.00000  1.0000
  Rb  Rb1       1.0  0.64700  0.48400  0.29300  1.0000
  Rb  Rb2       1.0  0.14700  0.80900  0.29300  1.0000
  Rb  Rb3       1.0  0.85300  0.19100  0.70700  1.0000
  Rb  Rb4       1.0  0.35300  0.51600  0.70700  1.0000
  Se  Se1       1.0  0.10100  0.28800  0.20200  1.0000
  Se  Se2       1.0  0.60100  0.91400  0.20200  1.0000
  Se  Se3       1.0  0.39900  0.08640  0.79800  1.0000
  Se  Se4       1.0  0.89900  0.71200  0.79800  1.0000
