data_image0
_chemical_formula_structural       Mn2O7P2
_chemical_formula_sum              "Mn2 O7 P2"
_cell_length_a       4.53159
_cell_length_b       5.41313
_cell_length_c       5.41313
_cell_angle_alpha    104.604
_cell_angle_beta     97.5706
_cell_angle_gamma    97.5706

_space_group_name_H-M_alt    "P 1"
_space_group_IT_number       1

loop_
  _space_group_symop_operation_xyz
  'x, y, z'

loop_
  _atom_site_type_symbol
  _atom_site_label
  _atom_site_symmetry_multiplicity
  _atom_site_fract_x
  _atom_site_fract_y
  _atom_site_fract_z
  _atom_site_occupancy
  Mn  Mn1       1.0  0.50000  0.69200  0.30800  1.0000
  Mn  Mn2       1.0  0.50000  0.30800  0.69200  1.0000
  O   O1        1.0  0.00000  0.00000  0.00000  1.0000
  O   O2        1.0  0.72500  0.37600  0.07840  1.0000
  O   O3        1.0  0.21000  0.37500  0.37500  1.0000
  O   O4        1.0  0.72500  0.07840  0.37600  1.0000
  O   O5        1.0  0.27500  0.92200  0.62400  1.0000
  O   O6        1.0  0.79000  0.62500  0.62500  1.0000
  O   O7        1.0  0.27500  0.62400  0.92200  1.0000
  P   P1        1.0  0.90800  0.21800  0.21800  1.0000
  P   P2        1.0  0.09170  0.78200  0.78200  1.0000
