data_image0
_chemical_formula_structural       ClO2Pb2
_chemical_formula_sum              "Cl1 O2 Pb2"
_cell_length_a       3.95859
_cell_length_b       3.95859
_cell_length_c       6.90544
_cell_angle_alpha    106.656
_cell_angle_beta     106.656
_cell_angle_gamma    90

_space_group_name_H-M_alt    "P 1"
_space_group_IT_number       1

loop_
  _space_group_symop_operation_xyz
  'x, y, z'

loop_
  _atom_site_type_symbol
  _atom_site_label
  _atom_site_symmetry_multiplicity
  _atom_site_fract_x
  _atom_site_fract_y
  _atom_site_fract_z
  _atom_site_occupancy
  Cl  Cl1       1.0  0.50000  0.50000  0.00000  1.0000
  O   O1        1.0  0.75000  0.25000  0.50000  1.0000
  O   O2        1.0  0.25000  0.75000  0.50000  1.0000
  Pb  Pb1       1.0  0.15300  0.15300  0.30500  1.0000
  Pb  Pb2       1.0  0.84700  0.84700  0.69500  1.0000
