data_image0
_chemical_formula_structural       H3ISr2
_chemical_formula_sum              "H3 I1 Sr2"
_cell_length_a       4.20685
_cell_length_b       4.2069
_cell_length_c       7.60929
_cell_angle_alpha    90
_cell_angle_beta     89.9986
_cell_angle_gamma    120

_space_group_name_H-M_alt    "P 1"
_space_group_IT_number       1

loop_
  _space_group_symop_operation_xyz
  'x, y, z'

loop_
  _atom_site_type_symbol
  _atom_site_label
  _atom_site_symmetry_multiplicity
  _atom_site_fract_x
  _atom_site_fract_y
  _atom_site_fract_z
  _atom_site_occupancy
  H   H1        1.0  0.66700  0.33300  0.35600  1.0000
  H   H2        1.0  0.00000  0.00000  0.50000  1.0000
  H   H3        1.0  0.33300  0.66700  0.64400  1.0000
  I   I1        1.0  0.00000  0.00000  0.00000  1.0000
  Sr  Sr1       1.0  0.33300  0.66700  0.32000  1.0000
  Sr  Sr2       1.0  0.66700  0.33300  0.68000  1.0000
