data_image0
_chemical_formula_structural       H2Mg4O5
_chemical_formula_sum              "H2 Mg4 O5"
_cell_length_a       3.01646
_cell_length_b       3.01646
_cell_length_c       12.0192
_cell_angle_alpha    90
_cell_angle_beta     90.0012
_cell_angle_gamma    120

_space_group_name_H-M_alt    "P 1"
_space_group_IT_number       1

loop_
  _space_group_symop_operation_xyz
  'x, y, z'

loop_
  _atom_site_type_symbol
  _atom_site_label
  _atom_site_symmetry_multiplicity
  _atom_site_fract_x
  _atom_site_fract_y
  _atom_site_fract_z
  _atom_site_occupancy
  H   H1        1.0  0.33300  0.66700  0.47100  1.0000
  H   H2        1.0  0.66700  0.33300  0.52900  1.0000
  Mg  Mg1       1.0  0.33300  0.66700  0.10000  1.0000
  Mg  Mg2       1.0  0.00003  0.00001  0.30200  1.0000
  Mg  Mg3       1.0  1.00000  1.00000  0.69800  1.0000
  Mg  Mg4       1.0  0.66700  0.33300  0.90000  1.0000
  O   O1        1.0  0.00000  0.00000  0.00000  1.0000
  O   O2        1.0  0.66700  0.33300  0.20100  1.0000
  O   O3        1.0  0.33300  0.66700  0.39000  1.0000
  O   O4        1.0  0.66700  0.33300  0.61000  1.0000
  O   O5        1.0  0.33300  0.66700  0.79900  1.0000
