data_image0
_chemical_formula_structural       Ce2Ni2Zn
_chemical_formula_sum              "Ce2 Ni2 Zn1"
_cell_length_a       4.35063
_cell_length_b       5.5409
_cell_length_c       5.5409
_cell_angle_alpha    101.492
_cell_angle_beta     113.116
_cell_angle_gamma    113.116

_space_group_name_H-M_alt    "P 1"
_space_group_IT_number       1

loop_
  _space_group_symop_operation_xyz
  'x, y, z'

loop_
  _atom_site_type_symbol
  _atom_site_label
  _atom_site_symmetry_multiplicity
  _atom_site_fract_x
  _atom_site_fract_y
  _atom_site_fract_z
  _atom_site_occupancy
  Ce  Ce1       1.0  0.50000  0.69900  0.30100  1.0000
  Ce  Ce2       1.0  0.50000  0.30100  0.69900  1.0000
  Ni  Ni1       1.0  0.76100  0.26100  0.26100  1.0000
  Ni  Ni2       1.0  0.23900  0.73900  0.73900  1.0000
  Zn  Zn1       1.0  0.00000  0.00000  0.00000  1.0000
