data_image0
_chemical_formula_structural       Ba2Ge4Ru4
_chemical_formula_sum              "Ba2 Ge4 Ru4"
_cell_length_a       6.21895
_cell_length_b       6.21895
_cell_length_c       7.1795
_cell_angle_alpha    103.472
_cell_angle_beta     103.472
_cell_angle_gamma    117.521

_space_group_name_H-M_alt    "P 1"
_space_group_IT_number       1

loop_
  _space_group_symop_operation_xyz
  'x, y, z'

loop_
  _atom_site_type_symbol
  _atom_site_label
  _atom_site_symmetry_multiplicity
  _atom_site_fract_x
  _atom_site_fract_y
  _atom_site_fract_z
  _atom_site_occupancy
  Ba  Ba1       1.0  0.12500  0.87500  0.25000  1.0000
  Ba  Ba2       1.0  0.87500  0.12500  0.75000  1.0000
  Ge  Ge1       1.0  0.80200  0.19800  0.25000  1.0000
  Ge  Ge2       1.0  0.44800  0.55200  0.25000  1.0000
  Ge  Ge3       1.0  0.55200  0.44800  0.75000  1.0000
  Ge  Ge4       1.0  0.19800  0.80200  0.75000  1.0000
  Ru  Ru1       1.0  0.50200  0.25200  0.00472  1.0000
  Ru  Ru2       1.0  0.74800  0.49800  0.49500  1.0000
  Ru  Ru3       1.0  0.25200  0.50200  0.50500  1.0000
  Ru  Ru4       1.0  0.49800  0.74800  0.99500  1.0000
