data_image0
_chemical_formula_structural       P2RbS7V
_chemical_formula_sum              "P2 Rb1 S7 V1"
_cell_length_a       6.4829
_cell_length_b       6.4829
_cell_length_c       6.58949
_cell_angle_alpha    95.3683
_cell_angle_beta     95.3683
_cell_angle_gamma    96.3553

_space_group_name_H-M_alt    "P 1"
_space_group_IT_number       1

loop_
  _space_group_symop_operation_xyz
  'x, y, z'

loop_
  _atom_site_type_symbol
  _atom_site_label
  _atom_site_symmetry_multiplicity
  _atom_site_fract_x
  _atom_site_fract_y
  _atom_site_fract_z
  _atom_site_occupancy
  P   P1        1.0  0.05240  0.34600  0.08200  1.0000
  P   P2        1.0  0.65400  0.94800  0.91800  1.0000
  Rb  Rb1       1.0  0.10700  0.89300  0.50000  1.0000
  S   S1        1.0  0.98700  0.01270  1.00000  1.0000
  S   S2        1.0  0.52600  0.85200  0.17000  1.0000
  S   S3        1.0  0.81400  0.45400  0.22200  1.0000
  S   S4        1.0  0.31500  0.37000  0.28000  1.0000
  S   S5        1.0  0.63000  0.68500  0.72000  1.0000
  S   S6        1.0  0.54600  0.18600  0.77800  1.0000
  S   S7        1.0  0.14800  0.47400  0.83000  1.0000
  V   V1        1.0  0.49900  0.50100  0.00000  1.0000
