data_image0
_chemical_formula_structural       Ca3Cl2Cu2O4
_chemical_formula_sum              "Ca3 Cl2 Cu2 O4"
_cell_length_a       3.84568
_cell_length_b       3.84568
_cell_length_c       10.9293
_cell_angle_alpha    100.133
_cell_angle_beta     100.133
_cell_angle_gamma    90

_space_group_name_H-M_alt    "P 1"
_space_group_IT_number       1

loop_
  _space_group_symop_operation_xyz
  'x, y, z'

loop_
  _atom_site_type_symbol
  _atom_site_label
  _atom_site_symmetry_multiplicity
  _atom_site_fract_x
  _atom_site_fract_y
  _atom_site_fract_z
  _atom_site_occupancy
  Ca  Ca1       1.0  0.00000  0.00000  0.00000  1.0000
  Ca  Ca2       1.0  0.14900  0.14900  0.29700  1.0000
  Ca  Ca3       1.0  0.85100  0.85100  0.70300  1.0000
  Cl  Cl1       1.0  0.70300  0.70300  0.40600  1.0000
  Cl  Cl2       1.0  0.29700  0.29700  0.59400  1.0000
  Cu  Cu1       1.0  0.57200  0.57200  0.14500  1.0000
  Cu  Cu2       1.0  0.42800  0.42800  0.85500  1.0000
  O   O1        1.0  0.57500  0.07540  0.15100  1.0000
  O   O2        1.0  0.07540  0.57500  0.15100  1.0000
  O   O3        1.0  0.92500  0.42500  0.84900  1.0000
  O   O4        1.0  0.42500  0.92500  0.84900  1.0000
