data_image0
_chemical_formula_structural       As4Eu3Pd4
_chemical_formula_sum              "As4 Eu3 Pd4"
_cell_length_a       4.17119
_cell_length_b       4.32902
_cell_length_c       12.6939
_cell_angle_alpha    90
_cell_angle_beta     90
_cell_angle_gamma    90

_space_group_name_H-M_alt    "P 1"
_space_group_IT_number       1

loop_
  _space_group_symop_operation_xyz
  'x, y, z'

loop_
  _atom_site_type_symbol
  _atom_site_label
  _atom_site_symmetry_multiplicity
  _atom_site_fract_x
  _atom_site_fract_y
  _atom_site_fract_z
  _atom_site_occupancy
  As  As1       1.0  0.50000  0.50000  0.11700  1.0000
  As  As2       1.0  0.50000  0.00000  0.40100  1.0000
  As  As3       1.0  0.50000  0.00000  0.59900  1.0000
  As  As4       1.0  0.50000  0.50000  0.88300  1.0000
  Eu  Eu1       1.0  0.00000  0.00000  0.20100  1.0000
  Eu  Eu2       1.0  0.00000  0.50000  0.50000  1.0000
  Eu  Eu3       1.0  0.00000  0.00000  0.79900  1.0000
  Pd  Pd1       1.0  0.50000  0.00000  0.00000  1.0000
  Pd  Pd2       1.0  0.00000  0.50000  0.00000  1.0000
  Pd  Pd3       1.0  0.50000  0.50000  0.31100  1.0000
  Pd  Pd4       1.0  0.50000  0.50000  0.68900  1.0000
