data_image0
_chemical_formula_structural       Cs4Te4
_chemical_formula_sum              "Cs4 Te4"
_cell_length_a       11.8477
_cell_length_b       6.28673
_cell_length_c       5.04937
_cell_angle_alpha    90
_cell_angle_beta     90
_cell_angle_gamma    90

_space_group_name_H-M_alt    "P 1"
_space_group_IT_number       1

loop_
  _space_group_symop_operation_xyz
  'x, y, z'

loop_
  _atom_site_type_symbol
  _atom_site_label
  _atom_site_symmetry_multiplicity
  _atom_site_fract_x
  _atom_site_fract_y
  _atom_site_fract_z
  _atom_site_occupancy
  Cs  Cs1       1.0  0.63700  0.17100  0.50000  1.0000
  Cs  Cs2       1.0  0.13700  0.32900  0.50000  1.0000
  Cs  Cs3       1.0  0.86300  0.67100  0.50000  1.0000
  Cs  Cs4       1.0  0.36300  0.82900  0.50000  1.0000
  Te  Te1       1.0  0.90400  0.13400  0.00000  1.0000
  Te  Te2       1.0  0.40400  0.36600  0.00000  1.0000
  Te  Te3       1.0  0.59600  0.63400  0.00000  1.0000
  Te  Te4       1.0  0.09590  0.86600  0.00000  1.0000
