data_image0
_chemical_formula_structural       H4Na2Pd
_chemical_formula_sum              "H4 Na2 Pd1"
_cell_length_a       4.85701
_cell_length_b       4.85701
_cell_length_c       4.85701
_cell_angle_alpha    115.458
_cell_angle_beta     98.0661
_cell_angle_gamma    115.458

_space_group_name_H-M_alt    "P 1"
_space_group_IT_number       1

loop_
  _space_group_symop_operation_xyz
  'x, y, z'

loop_
  _atom_site_type_symbol
  _atom_site_label
  _atom_site_symmetry_multiplicity
  _atom_site_fract_x
  _atom_site_fract_y
  _atom_site_fract_z
  _atom_site_occupancy
  H   H1        1.0  0.22600  0.45200  0.22600  1.0000
  H   H2        1.0  0.77400  0.00000  0.22600  1.0000
  H   H3        1.0  0.22600  0.00000  0.77400  1.0000
  H   H4        1.0  0.77400  0.54800  0.77400  1.0000
  Na  Na1       1.0  0.75000  0.50000  0.25000  1.0000
  Na  Na2       1.0  0.25000  0.50000  0.75000  1.0000
  Pd  Pd1       1.0  0.00000  0.00000  0.00000  1.0000
