data_image0
_chemical_formula_structural       Mn2O7V2
_chemical_formula_sum              "Mn2 O7 V2"
_cell_length_a       4.98541
_cell_length_b       5.46382
_cell_length_c       5.46382
_cell_angle_alpha    106.514
_cell_angle_beta     97.2086
_cell_angle_gamma    97.2086

_space_group_name_H-M_alt    "P 1"
_space_group_IT_number       1

loop_
  _space_group_symop_operation_xyz
  'x, y, z'

loop_
  _atom_site_type_symbol
  _atom_site_label
  _atom_site_symmetry_multiplicity
  _atom_site_fract_x
  _atom_site_fract_y
  _atom_site_fract_z
  _atom_site_occupancy
  Mn  Mn1       1.0  0.50000  0.69000  0.31000  1.0000
  Mn  Mn2       1.0  0.50000  0.31000  0.69000  1.0000
  O   O1        1.0  0.00000  0.00000  0.00000  1.0000
  O   O2        1.0  0.70900  0.39900  0.06750  1.0000
  O   O3        1.0  0.70900  0.06750  0.39900  1.0000
  O   O4        1.0  0.22300  0.41800  0.41800  1.0000
  O   O5        1.0  0.77700  0.58200  0.58200  1.0000
  O   O6        1.0  0.29100  0.93200  0.60100  1.0000
  O   O7        1.0  0.29100  0.60100  0.93200  1.0000
  V   V1        1.0  0.90000  0.24500  0.24500  1.0000
  V   V2        1.0  0.10000  0.75500  0.75500  1.0000
