data_image0
_chemical_formula_structural       InKP2S7
_chemical_formula_sum              "In1 K1 P2 S7"
_cell_length_a       6.38337
_cell_length_b       6.70806
_cell_length_c       6.70806
_cell_angle_alpha    97.389
_cell_angle_beta     95.9177
_cell_angle_gamma    95.9177

_space_group_name_H-M_alt    "P 1"
_space_group_IT_number       1

loop_
  _space_group_symop_operation_xyz
  'x, y, z'

loop_
  _atom_site_type_symbol
  _atom_site_label
  _atom_site_symmetry_multiplicity
  _atom_site_fract_x
  _atom_site_fract_y
  _atom_site_fract_z
  _atom_site_occupancy
  In  In1       1.0  0.00000  0.49900  0.50100  1.0000
  K   K1        1.0  0.50000  0.08380  0.91600  1.0000
  P   P1        1.0  0.08680  0.03790  0.36100  1.0000
  P   P2        1.0  0.91300  0.63900  0.96200  1.0000
  S   S1        1.0  0.00000  0.96200  0.03790  1.0000
  S   S2        1.0  0.74600  0.52900  0.17500  1.0000
  S   S3        1.0  0.29700  0.29000  0.37100  1.0000
  S   S4        1.0  0.25400  0.82500  0.47100  1.0000
  S   S5        1.0  0.82600  0.11000  0.48700  1.0000
  S   S6        1.0  0.70300  0.62900  0.71000  1.0000
  S   S7        1.0  0.17400  0.51300  0.89000  1.0000
