data_image0
_chemical_formula_structural       Bi2Cu2O4Se2Y
_chemical_formula_sum              "Bi2 Cu2 O4 Se2 Y1"
_cell_length_a       12.546
_cell_length_b       3.871
_cell_length_c       3.871
_cell_angle_alpha    90
_cell_angle_beta     98.8746
_cell_angle_gamma    98.8746

_space_group_name_H-M_alt    "P 1"
_space_group_IT_number       1

loop_
  _space_group_symop_operation_xyz
  'x, y, z'

loop_
  _atom_site_type_symbol
  _atom_site_label
  _atom_site_symmetry_multiplicity
  _atom_site_fract_x
  _atom_site_fract_y
  _atom_site_fract_z
  _atom_site_occupancy
  Bi  Bi1       1.0  0.79400  0.39700  0.39700  1.0000
  Bi  Bi2       1.0  0.20600  0.60300  0.60300  1.0000
  Cu  Cu1       1.0  0.50000  0.75000  0.25000  1.0000
  Cu  Cu2       1.0  0.50000  0.25000  0.75000  1.0000
  O   O1        1.0  0.11300  0.55700  0.05650  1.0000
  O   O2        1.0  0.88700  0.94300  0.44300  1.0000
  O   O3        1.0  0.11300  0.05650  0.55700  1.0000
  O   O4        1.0  0.88700  0.44300  0.94300  1.0000
  Se  Se1       1.0  0.37700  0.18800  0.18800  1.0000
  Se  Se2       1.0  0.62300  0.81200  0.81200  1.0000
  Y   Y1        1.0  0.00000  0.00000  0.00000  1.0000
