data_image0
_chemical_formula_structural       BaLi2Mg2Si2
_chemical_formula_sum              "Ba1 Li2 Mg2 Si2"
_cell_length_a       4.55032
_cell_length_b       4.55032
_cell_length_c       9.06785
_cell_angle_alpha    75.469
_cell_angle_beta     104.531
_cell_angle_gamma    120

_space_group_name_H-M_alt    "P 1"
_space_group_IT_number       1

loop_
  _space_group_symop_operation_xyz
  'x, y, z'

loop_
  _atom_site_type_symbol
  _atom_site_label
  _atom_site_symmetry_multiplicity
  _atom_site_fract_x
  _atom_site_fract_y
  _atom_site_fract_z
  _atom_site_occupancy
  Ba  Ba1       1.0  0.00000  0.00000  0.00000  1.0000
  Li  Li1       1.0  0.43000  0.57000  0.28900  1.0000
  Li  Li2       1.0  0.57000  0.43000  0.71100  1.0000
  Mg  Mg1       1.0  0.13600  0.86400  0.40700  1.0000
  Mg  Mg2       1.0  0.86400  0.13600  0.59300  1.0000
  Si  Si1       1.0  0.75800  0.24200  0.27400  1.0000
  Si  Si2       1.0  0.24200  0.75800  0.72600  1.0000
