data_image0
_chemical_formula_structural       Ag2Er2Te4
_chemical_formula_sum              "Ag2 Er2 Te4"
_cell_length_a       7.09682
_cell_length_b       7.09682
_cell_length_c       4.64481
_cell_angle_alpha    90
_cell_angle_beta     90
_cell_angle_gamma    90

_space_group_name_H-M_alt    "P 1"
_space_group_IT_number       1

loop_
  _space_group_symop_operation_xyz
  'x, y, z'

loop_
  _atom_site_type_symbol
  _atom_site_label
  _atom_site_symmetry_multiplicity
  _atom_site_fract_x
  _atom_site_fract_y
  _atom_site_fract_z
  _atom_site_occupancy
  Ag  Ag1       1.0  0.00000  0.00000  0.00000  1.0000
  Ag  Ag2       1.0  0.50000  0.50000  0.00000  1.0000
  Er  Er1       1.0  0.50000  0.00000  0.19800  1.0000
  Er  Er2       1.0  0.00000  0.50000  0.80200  1.0000
  Te  Te1       1.0  0.79800  0.29800  0.29000  1.0000
  Te  Te2       1.0  0.20200  0.70200  0.29000  1.0000
  Te  Te3       1.0  0.29800  0.20200  0.71000  1.0000
  Te  Te4       1.0  0.70200  0.79800  0.71000  1.0000
