data_image0
_chemical_formula_structural       Al5CeNi2
_chemical_formula_sum              "Al5 Ce1 Ni2"
_cell_length_a       4.00784
_cell_length_b       6.30763
_cell_length_c       6.30763
_cell_angle_alpha    67.7309
_cell_angle_beta     108.524
_cell_angle_gamma    108.524

_space_group_name_H-M_alt    "P 1"
_space_group_IT_number       1

loop_
  _space_group_symop_operation_xyz
  'x, y, z'

loop_
  _atom_site_type_symbol
  _atom_site_label
  _atom_site_symmetry_multiplicity
  _atom_site_fract_x
  _atom_site_fract_y
  _atom_site_fract_z
  _atom_site_occupancy
  Al  Al1       1.0  0.34100  0.53200  0.15100  1.0000
  Al  Al2       1.0  0.65900  0.84900  0.46800  1.0000
  Al  Al3       1.0  0.00000  0.50000  0.50000  1.0000
  Al  Al4       1.0  0.34100  0.15100  0.53200  1.0000
  Al  Al5       1.0  0.65900  0.46800  0.84900  1.0000
  Ce  Ce1       1.0  0.00000  0.00000  0.00000  1.0000
  Ni  Ni1       1.0  0.76300  0.26300  0.26300  1.0000
  Ni  Ni2       1.0  0.23700  0.73700  0.73700  1.0000
