data_image0
_chemical_formula_structural       Eu3Ga4Ni4
_chemical_formula_sum              "Eu3 Ga4 Ni4"
_cell_length_a       6.43312
_cell_length_b       6.43312
_cell_length_c       6.43312
_cell_angle_alpha    109.471
_cell_angle_beta     109.471
_cell_angle_gamma    109.471

_space_group_name_H-M_alt    "P 1"
_space_group_IT_number       1

loop_
  _space_group_symop_operation_xyz
  'x, y, z'

loop_
  _atom_site_type_symbol
  _atom_site_label
  _atom_site_symmetry_multiplicity
  _atom_site_fract_x
  _atom_site_fract_y
  _atom_site_fract_z
  _atom_site_occupancy
  Eu  Eu1       1.0  0.50000  0.50000  0.00000  1.0000
  Eu  Eu2       1.0  0.50000  0.00000  0.50000  1.0000
  Eu  Eu3       1.0  0.00000  0.50000  0.50000  1.0000
  Ga  Ga1       1.0  0.60600  0.00000  0.00000  1.0000
  Ga  Ga2       1.0  0.00000  0.60600  0.00000  1.0000
  Ga  Ga3       1.0  0.39400  0.39400  0.39400  1.0000
  Ga  Ga4       1.0  0.00000  0.00000  0.60600  1.0000
  Ni  Ni1       1.0  0.24200  0.00000  0.00000  1.0000
  Ni  Ni2       1.0  0.00000  0.24200  0.00000  1.0000
  Ni  Ni3       1.0  0.00000  0.00000  0.24200  1.0000
  Ni  Ni4       1.0  0.75800  0.75800  0.75800  1.0000
