data_image0
_chemical_formula_structural       CsP2S7V
_chemical_formula_sum              "Cs1 P2 S7 V1"
_cell_length_a       6.48528
_cell_length_b       6.48528
_cell_length_c       6.89245
_cell_angle_alpha    95.2181
_cell_angle_beta     95.2181
_cell_angle_gamma    96.3125

_space_group_name_H-M_alt    "P 1"
_space_group_IT_number       1

loop_
  _space_group_symop_operation_xyz
  'x, y, z'

loop_
  _atom_site_type_symbol
  _atom_site_label
  _atom_site_symmetry_multiplicity
  _atom_site_fract_x
  _atom_site_fract_y
  _atom_site_fract_z
  _atom_site_occupancy
  Cs  Cs1       1.0  0.10500  0.89500  0.00000  1.0000
  P   P1        1.0  0.65900  0.94500  0.42100  1.0000
  P   P2        1.0  0.05500  0.34100  0.57900  1.0000
  S   S1        1.0  0.63200  0.68300  0.23200  1.0000
  S   S2        1.0  0.55300  0.18500  0.28900  1.0000
  S   S3        1.0  0.15100  0.47100  0.33900  1.0000
  S   S4        1.0  0.99200  0.00806  0.50000  1.0000
  S   S5        1.0  0.52900  0.84900  0.66100  1.0000
  S   S6        1.0  0.81500  0.44700  0.71100  1.0000
  S   S7        1.0  0.31700  0.36800  0.76800  1.0000
  V   V1        1.0  0.50300  0.49700  0.50000  1.0000
