data_image0
_chemical_formula_structural       B4Ca2Rh5
_chemical_formula_sum              "B4 Ca2 Rh5"
_cell_length_a       5.50502
_cell_length_b       5.62031
_cell_length_c       6.27625
_cell_angle_alpha    102.403
_cell_angle_beta     116.012
_cell_angle_gamma    60.6763

_space_group_name_H-M_alt    "P 1"
_space_group_IT_number       1

loop_
  _space_group_symop_operation_xyz
  'x, y, z'

loop_
  _atom_site_type_symbol
  _atom_site_label
  _atom_site_symmetry_multiplicity
  _atom_site_fract_x
  _atom_site_fract_y
  _atom_site_fract_z
  _atom_site_occupancy
  B   B1        1.0  0.47000  0.32100  0.26100  1.0000
  B   B2        1.0  0.79100  0.67900  0.26100  1.0000
  B   B3        1.0  0.20900  0.32100  0.73900  1.0000
  B   B4        1.0  0.53000  0.67900  0.73900  1.0000
  Ca  Ca1       1.0  0.14200  0.00000  0.28500  1.0000
  Ca  Ca2       1.0  0.85800  0.00000  0.71500  1.0000
  Rh  Rh1       1.0  0.50000  0.00000  0.00000  1.0000
  Rh  Rh2       1.0  0.00000  0.50000  0.00000  1.0000
  Rh  Rh3       1.0  0.50000  0.50000  0.00000  1.0000
  Rh  Rh4       1.0  0.25000  0.50000  0.50000  1.0000
  Rh  Rh5       1.0  0.75000  0.50000  0.50000  1.0000
