data_image0
_chemical_formula_structural       As2Mn2O7
_chemical_formula_sum              "As2 Mn2 O7"
_cell_length_a       4.82499
_cell_length_b       5.53201
_cell_length_c       5.53201
_cell_angle_alpha    105.037
_cell_angle_beta     97.5035
_cell_angle_gamma    97.5035

_space_group_name_H-M_alt    "P 1"
_space_group_IT_number       1

loop_
  _space_group_symop_operation_xyz
  'x, y, z'

loop_
  _atom_site_type_symbol
  _atom_site_label
  _atom_site_symmetry_multiplicity
  _atom_site_fract_x
  _atom_site_fract_y
  _atom_site_fract_z
  _atom_site_occupancy
  As  As1       1.0  0.90400  0.23600  0.23600  1.0000
  As  As2       1.0  0.09580  0.76400  0.76400  1.0000
  Mn  Mn1       1.0  0.50000  0.69400  0.30600  1.0000
  Mn  Mn2       1.0  0.50000  0.30600  0.69400  1.0000
  O   O1        1.0  0.00000  0.00000  0.00000  1.0000
  O   O2        1.0  0.71300  0.39900  0.07430  1.0000
  O   O3        1.0  0.71300  0.07430  0.39900  1.0000
  O   O4        1.0  0.22500  0.40100  0.40100  1.0000
  O   O5        1.0  0.77500  0.59900  0.59900  1.0000
  O   O6        1.0  0.28700  0.92600  0.60100  1.0000
  O   O7        1.0  0.28700  0.60100  0.92600  1.0000
