data_image0
_chemical_formula_structural       B6Lu2Ni3
_chemical_formula_sum              "B6 Lu2 Ni3"
_cell_length_a       3.43331
_cell_length_b       5.74327
_cell_length_c       5.74327
_cell_angle_alpha    96.7349
_cell_angle_beta     90
_cell_angle_gamma    90

_space_group_name_H-M_alt    "P 1"
_space_group_IT_number       1

loop_
  _space_group_symop_operation_xyz
  'x, y, z'

loop_
  _atom_site_type_symbol
  _atom_site_label
  _atom_site_symmetry_multiplicity
  _atom_site_fract_x
  _atom_site_fract_y
  _atom_site_fract_z
  _atom_site_occupancy
  B   B1        1.0  0.50000  0.38500  0.08330  1.0000
  B   B2        1.0  0.50000  0.08330  0.38500  1.0000
  B   B3        1.0  0.50000  0.38800  0.38800  1.0000
  B   B4        1.0  0.50000  0.61200  0.61200  1.0000
  B   B5        1.0  0.50000  0.91700  0.61500  1.0000
  B   B6        1.0  0.50000  0.61500  0.91700  1.0000
  Lu  Lu1       1.0  0.00000  0.72300  0.27700  1.0000
  Lu  Lu2       1.0  0.00000  0.27700  0.72300  1.0000
  Ni  Ni1       1.0  0.50000  0.00000  0.00000  1.0000
  Ni  Ni2       1.0  0.00000  0.22700  0.22700  1.0000
  Ni  Ni3       1.0  0.00000  0.77300  0.77300  1.0000
