data_image0
_chemical_formula_structural       Dy2Sn4
_chemical_formula_sum              "Dy2 Sn4"
_cell_length_a       4.34006
_cell_length_b       4.42134
_cell_length_c       8.45134
_cell_angle_alpha    74.8364
_cell_angle_beta     90
_cell_angle_gamma    90

_space_group_name_H-M_alt    "P 1"
_space_group_IT_number       1

loop_
  _space_group_symop_operation_xyz
  'x, y, z'

loop_
  _atom_site_type_symbol
  _atom_site_label
  _atom_site_symmetry_multiplicity
  _atom_site_fract_x
  _atom_site_fract_y
  _atom_site_fract_z
  _atom_site_occupancy
  Dy  Dy1       1.0  0.25000  0.90200  0.19700  1.0000
  Dy  Dy2       1.0  0.75000  0.09830  0.80300  1.0000
  Sn  Sn1       1.0  0.75000  0.43600  0.12800  1.0000
  Sn  Sn2       1.0  0.25000  0.25100  0.49900  1.0000
  Sn  Sn3       1.0  0.75000  0.74900  0.50100  1.0000
  Sn  Sn4       1.0  0.25000  0.56400  0.87200  1.0000
