data_image0
_chemical_formula_structural       Al2C2Ti4
_chemical_formula_sum              "Al2 C2 Ti4"
_cell_length_a       3.06643
_cell_length_b       3.06642
_cell_length_c       13.7082
_cell_angle_alpha    90
_cell_angle_beta     90
_cell_angle_gamma    120

_space_group_name_H-M_alt    "P 1"
_space_group_IT_number       1

loop_
  _space_group_symop_operation_xyz
  'x, y, z'

loop_
  _atom_site_type_symbol
  _atom_site_label
  _atom_site_symmetry_multiplicity
  _atom_site_fract_x
  _atom_site_fract_y
  _atom_site_fract_z
  _atom_site_occupancy
  Al  Al1       1.0  0.66700  0.33300  0.25000  1.0000
  Al  Al2       1.0  0.33300  0.66700  0.75000  1.0000
  C   C1        1.0  0.00000  0.00000  0.00000  1.0000
  C   C2        1.0  0.00000  0.00000  0.50000  1.0000
  Ti  Ti1       1.0  0.33300  0.66700  0.08380  1.0000
  Ti  Ti2       1.0  0.33300  0.66700  0.41600  1.0000
  Ti  Ti3       1.0  0.66700  0.33300  0.58400  1.0000
  Ti  Ti4       1.0  0.66700  0.33300  0.91600  1.0000
