data_image0
_chemical_formula_structural       F4NiRb2
_chemical_formula_sum              "F4 Ni1 Rb2"
_cell_length_a       4.03291
_cell_length_b       4.03291
_cell_length_c       7.31391
_cell_angle_alpha    106.004
_cell_angle_beta     106.004
_cell_angle_gamma    90

_space_group_name_H-M_alt    "P 1"
_space_group_IT_number       1

loop_
  _space_group_symop_operation_xyz
  'x, y, z'

loop_
  _atom_site_type_symbol
  _atom_site_label
  _atom_site_symmetry_multiplicity
  _atom_site_fract_x
  _atom_site_fract_y
  _atom_site_fract_z
  _atom_site_occupancy
  F   F1        1.0  0.50000  0.00000  0.00000  1.0000
  F   F2        1.0  0.00000  0.50000  0.00000  1.0000
  F   F3        1.0  0.15000  0.15000  0.30100  1.0000
  F   F4        1.0  0.85000  0.85000  0.69900  1.0000
  Ni  Ni1       1.0  0.00000  0.00000  0.00000  1.0000
  Rb  Rb1       1.0  0.64800  0.64800  0.29700  1.0000
  Rb  Rb2       1.0  0.35200  0.35200  0.70300  1.0000
