data_image0
_chemical_formula_structural       HNaO5Ti2
_chemical_formula_sum              "H1 Na1 O5 Ti2"
_cell_length_a       3.02433
_cell_length_b       3.68969
_cell_length_c       9.30666
_cell_angle_alpha    102.248
_cell_angle_beta     94.8142
_cell_angle_gamma    89.9257

_space_group_name_H-M_alt    "P 1"
_space_group_IT_number       1

loop_
  _space_group_symop_operation_xyz
  'x, y, z'

loop_
  _atom_site_type_symbol
  _atom_site_label
  _atom_site_symmetry_multiplicity
  _atom_site_fract_x
  _atom_site_fract_y
  _atom_site_fract_z
  _atom_site_occupancy
  H   H1        1.0  0.23700  0.84000  0.88400  1.0000
  Na  Na1       1.0  0.60900  0.40700  0.99900  1.0000
  O   O1        1.0  0.78300  0.60400  0.25300  1.0000
  O   O2        1.0  0.33300  0.20600  0.43900  1.0000
  O   O3        1.0  0.86100  0.76300  0.54600  1.0000
  O   O4        1.0  0.41000  0.35200  0.73200  1.0000
  O   O5        1.0  0.07230  0.90300  0.97200  1.0000
  Ti  Ti1       1.0  0.31200  0.67000  0.37000  1.0000
  Ti  Ti2       1.0  0.87900  0.30100  0.61500  1.0000
