data_image0
_chemical_formula_structural       B4Nd2Ni5
_chemical_formula_sum              "B4 Nd2 Ni5"
_cell_length_a       5.11737
_cell_length_b       5.53734
_cell_length_c       6.1497
_cell_angle_alpha    93.1919
_cell_angle_beta     114.587
_cell_angle_gamma    62.4787

_space_group_name_H-M_alt    "P 1"
_space_group_IT_number       1

loop_
  _space_group_symop_operation_xyz
  'x, y, z'

loop_
  _atom_site_type_symbol
  _atom_site_label
  _atom_site_symmetry_multiplicity
  _atom_site_fract_x
  _atom_site_fract_y
  _atom_site_fract_z
  _atom_site_occupancy
  B   B1        1.0  0.54000  0.05920  0.14000  1.0000
  B   B2        1.0  0.38200  0.39600  0.15900  1.0000
  B   B3        1.0  0.61800  0.60400  0.84100  1.0000
  B   B4        1.0  0.46000  0.94100  0.86000  1.0000
  Nd  Nd1       1.0  0.07700  0.19700  0.35100  1.0000
  Nd  Nd2       1.0  0.92300  0.80300  0.64900  1.0000
  Ni  Ni1       1.0  0.45500  0.72200  0.12900  1.0000
  Ni  Ni2       1.0  0.95200  0.72200  0.12900  1.0000
  Ni  Ni3       1.0  0.50000  0.50000  0.50000  1.0000
  Ni  Ni4       1.0  0.04830  0.27800  0.87100  1.0000
  Ni  Ni5       1.0  0.54500  0.27800  0.87100  1.0000
