data_image0
_chemical_formula_structural       BaEr2F8
_chemical_formula_sum              "Ba1 Er2 F8"
_cell_length_a       4.18609
_cell_length_b       6.19487
_cell_length_c       6.19487
_cell_angle_alpha    112.819
_cell_angle_beta     95.5666
_cell_angle_gamma    95.5666

_space_group_name_H-M_alt    "P 1"
_space_group_IT_number       1

loop_
  _space_group_symop_operation_xyz
  'x, y, z'

loop_
  _atom_site_type_symbol
  _atom_site_label
  _atom_site_symmetry_multiplicity
  _atom_site_fract_x
  _atom_site_fract_y
  _atom_site_fract_z
  _atom_site_occupancy
  Ba  Ba1       1.0  0.00000  0.00000  0.00000  1.0000
  Er  Er1       1.0  0.50000  0.67600  0.32400  1.0000
  Er  Er2       1.0  0.50000  0.32400  0.67600  1.0000
  F   F1        1.0  0.56700  0.32700  0.04920  1.0000
  F   F2        1.0  0.00000  0.74100  0.25900  1.0000
  F   F3        1.0  0.56700  0.04920  0.32700  1.0000
  F   F4        1.0  0.21600  0.39200  0.39200  1.0000
  F   F5        1.0  0.78400  0.60800  0.60800  1.0000
  F   F6        1.0  0.43300  0.95100  0.67300  1.0000
  F   F7        1.0  0.00000  0.25900  0.74100  1.0000
  F   F8        1.0  0.43300  0.67300  0.95100  1.0000
