data_image0
_chemical_formula_structural       AgH4NS4W
_chemical_formula_sum              "Ag1 H4 N1 S4 W1"
_cell_length_a       5.86523
_cell_length_b       6.40809
_cell_length_c       6.40809
_cell_angle_alpha    102.089
_cell_angle_beta     117.235
_cell_angle_gamma    62.7649

_space_group_name_H-M_alt    "P 1"
_space_group_IT_number       1

loop_
  _space_group_symop_operation_xyz
  'x, y, z'

loop_
  _atom_site_type_symbol
  _atom_site_label
  _atom_site_symmetry_multiplicity
  _atom_site_fract_x
  _atom_site_fract_y
  _atom_site_fract_z
  _atom_site_occupancy
  Ag  Ag1       1.0  0.25000  0.50000  0.50000  1.0000
  H   H1        1.0  0.50400  0.87800  0.08780  1.0000
  H   H2        1.0  0.61800  0.08780  0.12200  1.0000
  H   H3        1.0  0.58400  0.91200  0.87800  1.0000
  H   H4        1.0  0.29400  0.12200  0.91200  1.0000
  N   N1        1.0  0.50000  0.00000  0.00000  1.0000
  S   S1        1.0  0.83500  0.42200  0.18100  1.0000
  S   S2        1.0  0.34600  0.81900  0.42200  1.0000
  S   S3        1.0  0.74300  0.18100  0.57800  1.0000
  S   S4        1.0  0.07620  0.57800  0.81900  1.0000
  W   W1        1.0  0.75000  0.50000  0.50000  1.0000
