data_image0
_chemical_formula_structural       Ba2H6Ru
_chemical_formula_sum              "Ba2 H6 Ru1"
_cell_length_a       5.63917
_cell_length_b       5.63917
_cell_length_c       5.63917
_cell_angle_alpha    120
_cell_angle_beta     90
_cell_angle_gamma    120

_space_group_name_H-M_alt    "P 1"
_space_group_IT_number       1

loop_
  _space_group_symop_operation_xyz
  'x, y, z'

loop_
  _atom_site_type_symbol
  _atom_site_label
  _atom_site_symmetry_multiplicity
  _atom_site_fract_x
  _atom_site_fract_y
  _atom_site_fract_z
  _atom_site_occupancy
  Ba  Ba1       1.0  0.75000  0.50000  0.25000  1.0000
  Ba  Ba2       1.0  0.25000  0.50000  0.75000  1.0000
  H   H1        1.0  0.21800  0.00000  0.21800  1.0000
  H   H2        1.0  0.21800  0.43700  0.21800  1.0000
  H   H3        1.0  0.78200  0.00000  0.21800  1.0000
  H   H4        1.0  0.21800  1.00000  0.78200  1.0000
  H   H5        1.0  0.78200  0.56300  0.78200  1.0000
  H   H6        1.0  0.78200  1.00000  0.78200  1.0000
  Ru  Ru1       1.0  0.00000  0.00000  0.00000  1.0000
