data_image0
_chemical_formula_structural       As2FeLiO7
_chemical_formula_sum              "As2 Fe1 Li1 O7"
_cell_length_a       4.75387
_cell_length_b       5.31725
_cell_length_c       5.31725
_cell_angle_alpha    102.579
_cell_angle_beta     98.6207
_cell_angle_gamma    98.6207

_space_group_name_H-M_alt    "P 1"
_space_group_IT_number       1

loop_
  _space_group_symop_operation_xyz
  'x, y, z'

loop_
  _atom_site_type_symbol
  _atom_site_label
  _atom_site_symmetry_multiplicity
  _atom_site_fract_x
  _atom_site_fract_y
  _atom_site_fract_z
  _atom_site_occupancy
  As  As1       1.0  0.59300  0.31900  0.24300  1.0000
  As  As2       1.0  0.40700  0.75700  0.68100  1.0000
  Fe  Fe1       1.0  1.00000  0.87600  0.12400  1.0000
  Li  Li1       1.0  1.00000  0.25300  0.74700  1.0000
  O   O1        1.0  0.27100  0.16400  0.04080  1.0000
  O   O2        1.0  0.74400  0.55000  0.10700  1.0000
  O   O3        1.0  0.82800  0.14100  0.36000  1.0000
  O   O4        1.0  0.25600  0.89300  0.45000  1.0000
  O   O5        1.0  0.50000  0.45300  0.54700  1.0000
  O   O6        1.0  0.72900  0.95900  0.83600  1.0000
  O   O7        1.0  0.17200  0.64000  0.85900  1.0000
