data_image0
_chemical_formula_structural       As2LiO7Sc
_chemical_formula_sum              "As2 Li1 O7 Sc1"
_cell_length_a       4.85052
_cell_length_b       5.45156
_cell_length_c       5.45156
_cell_angle_alpha    103.222
_cell_angle_beta     98.5228
_cell_angle_gamma    98.5228

_space_group_name_H-M_alt    "P 1"
_space_group_IT_number       1

loop_
  _space_group_symop_operation_xyz
  'x, y, z'

loop_
  _atom_site_type_symbol
  _atom_site_label
  _atom_site_symmetry_multiplicity
  _atom_site_fract_x
  _atom_site_fract_y
  _atom_site_fract_z
  _atom_site_occupancy
  As  As1       1.0  0.91000  0.18200  0.25500  1.0000
  As  As2       1.0  0.09030  0.74500  0.81800  1.0000
  Li  Li1       1.0  0.50000  0.24900  0.75100  1.0000
  O   O1        1.0  0.25000  0.60900  0.03320  1.0000
  O   O2        1.0  0.68400  0.35600  0.13600  1.0000
  O   O3        1.0  0.75000  0.96700  0.39100  1.0000
  O   O4        1.0  0.22300  0.33500  0.45200  1.0000
  O   O5        1.0  0.31600  0.86400  0.64400  1.0000
  O   O6        1.0  0.77700  0.54800  0.66500  1.0000
  O   O7        1.0  0.00000  0.04000  0.96000  1.0000
  Sc  Sc1       1.0  0.50000  0.62900  0.37100  1.0000
