data_image0
_chemical_formula_structural       Nb2Sb4
_chemical_formula_sum              "Nb2 Sb4"
_cell_length_a       3.6733
_cell_length_b       5.49404
_cell_length_c       7.57577
_cell_angle_alpha    92.1881
_cell_angle_beta     104.03
_cell_angle_gamma    109.53

_space_group_name_H-M_alt    "P 1"
_space_group_IT_number       1

loop_
  _space_group_symop_operation_xyz
  'x, y, z'

loop_
  _atom_site_type_symbol
  _atom_site_label
  _atom_site_symmetry_multiplicity
  _atom_site_fract_x
  _atom_site_fract_y
  _atom_site_fract_z
  _atom_site_occupancy
  Nb  Nb1       1.0  0.46200  0.61300  0.31000  1.0000
  Nb  Nb2       1.0  0.53800  0.38700  0.69000  1.0000
  Sb  Sb1       1.0  0.88700  0.73800  0.03560  1.0000
  Sb  Sb2       1.0  0.79300  0.19800  0.38800  1.0000
  Sb  Sb3       1.0  0.20700  0.80200  0.61200  1.0000
  Sb  Sb4       1.0  0.11300  0.26200  0.96400  1.0000
