data_image0
_chemical_formula_structural       Ca3Ir4Si4
_chemical_formula_sum              "Ca3 Ir4 Si4"
_cell_length_a       6.47017
_cell_length_b       6.47017
_cell_length_c       6.47017
_cell_angle_alpha    109.471
_cell_angle_beta     109.471
_cell_angle_gamma    109.471

_space_group_name_H-M_alt    "P 1"
_space_group_IT_number       1

loop_
  _space_group_symop_operation_xyz
  'x, y, z'

loop_
  _atom_site_type_symbol
  _atom_site_label
  _atom_site_symmetry_multiplicity
  _atom_site_fract_x
  _atom_site_fract_y
  _atom_site_fract_z
  _atom_site_occupancy
  Ca  Ca1       1.0  0.50000  0.50000  0.00000  1.0000
  Ca  Ca2       1.0  0.50000  0.00000  0.50000  1.0000
  Ca  Ca3       1.0  0.00000  0.50000  0.50000  1.0000
  Ir  Ir1       1.0  0.27700  0.00000  0.00000  1.0000
  Ir  Ir2       1.0  0.00000  0.27700  0.00000  1.0000
  Ir  Ir3       1.0  0.00000  0.00000  0.27700  1.0000
  Ir  Ir4       1.0  0.72300  0.72300  0.72300  1.0000
  Si  Si1       1.0  0.63300  0.00000  0.00000  1.0000
  Si  Si2       1.0  0.00000  0.63300  0.00000  1.0000
  Si  Si3       1.0  0.36700  0.36700  0.36700  1.0000
  Si  Si4       1.0  0.00000  0.00000  0.63300  1.0000
