data_image0
_chemical_formula_structural       As4Rh6Yb
_chemical_formula_sum              "As4 Rh6 Yb1"
_cell_length_a       7.26112
_cell_length_b       7.26162
_cell_length_c       3.78368
_cell_angle_alpha    90
_cell_angle_beta     90
_cell_angle_gamma    119.998

_space_group_name_H-M_alt    "P 1"
_space_group_IT_number       1

loop_
  _space_group_symop_operation_xyz
  'x, y, z'

loop_
  _atom_site_type_symbol
  _atom_site_label
  _atom_site_symmetry_multiplicity
  _atom_site_fract_x
  _atom_site_fract_y
  _atom_site_fract_z
  _atom_site_occupancy
  As  As1       1.0  0.33300  0.66700  0.00000  1.0000
  As  As2       1.0  0.37600  0.18800  0.50000  1.0000
  As  As3       1.0  0.81200  0.18800  0.50000  1.0000
  As  As4       1.0  0.81200  0.62400  0.50000  1.0000
  Rh  Rh1       1.0  0.53500  0.06930  0.00000  1.0000
  Rh  Rh2       1.0  0.53500  0.46500  0.00000  1.0000
  Rh  Rh3       1.0  0.93100  0.46500  0.00000  1.0000
  Rh  Rh4       1.0  0.19900  0.39900  0.50000  1.0000
  Rh  Rh5       1.0  0.19900  0.80100  0.50000  1.0000
  Rh  Rh6       1.0  0.60100  0.80100  0.50000  1.0000
  Yb  Yb1       1.0  0.00000  0.00000  0.00000  1.0000
