data_image0
_chemical_formula_structural       CdIn2Se4
_chemical_formula_sum              "Cd1 In2 Se4"
_cell_length_a       5.87861
_cell_length_b       5.87861
_cell_length_c       7.30012
_cell_angle_alpha    113.743
_cell_angle_beta     113.743
_cell_angle_gamma    90

_space_group_name_H-M_alt    "P 1"
_space_group_IT_number       1

loop_
  _space_group_symop_operation_xyz
  'x, y, z'

loop_
  _atom_site_type_symbol
  _atom_site_label
  _atom_site_symmetry_multiplicity
  _atom_site_fract_x
  _atom_site_fract_y
  _atom_site_fract_z
  _atom_site_occupancy
  Cd  Cd1       1.0  0.50000  0.50000  0.00000  1.0000
  In  In1       1.0  0.75000  0.25000  0.50000  1.0000
  In  In2       1.0  0.25000  0.75000  0.50000  1.0000
  Se  Se1       1.0  0.33900  0.33900  0.23200  1.0000
  Se  Se2       1.0  0.89300  0.89300  0.23200  1.0000
  Se  Se3       1.0  0.66100  0.10700  0.76800  1.0000
  Se  Se4       1.0  0.10700  0.66100  0.76800  1.0000
