data_image0
_chemical_formula_structural       Br4H2Zr4
_chemical_formula_sum              "Br4 H2 Zr4"
_cell_length_a       3.54828
_cell_length_b       5.93452
_cell_length_c       10.1646
_cell_angle_alpha    100.698
_cell_angle_beta     100.052
_cell_angle_gamma    90

_space_group_name_H-M_alt    "P 1"
_space_group_IT_number       1

loop_
  _space_group_symop_operation_xyz
  'x, y, z'

loop_
  _atom_site_type_symbol
  _atom_site_label
  _atom_site_symmetry_multiplicity
  _atom_site_fract_x
  _atom_site_fract_y
  _atom_site_fract_z
  _atom_site_occupancy
  Br  Br1       1.0  0.58700  0.72400  0.17500  1.0000
  Br  Br2       1.0  0.08970  0.22500  0.17900  1.0000
  Br  Br3       1.0  0.91000  0.77500  0.82100  1.0000
  Br  Br4       1.0  0.41300  0.27600  0.82500  1.0000
  H   H1        1.0  0.21700  0.62200  0.43500  1.0000
  H   H2        1.0  0.78300  0.37800  0.56500  1.0000
  Zr  Zr1       1.0  0.68400  0.45200  0.36800  1.0000
  Zr  Zr2       1.0  0.18500  0.95100  0.37100  1.0000
  Zr  Zr3       1.0  0.81500  0.04870  0.62900  1.0000
  Zr  Zr4       1.0  0.31600  0.54800  0.63200  1.0000
