data_image0
_chemical_formula_structural       Br2H2O2Rb4
_chemical_formula_sum              "Br2 H2 O2 Rb4"
_cell_length_a       6.97491
_cell_length_b       4.45773
_cell_length_c       8.87494
_cell_angle_alpha    90
_cell_angle_beta     107.398
_cell_angle_gamma    90

_space_group_name_H-M_alt    "P 1"
_space_group_IT_number       1

loop_
  _space_group_symop_operation_xyz
  'x, y, z'

loop_
  _atom_site_type_symbol
  _atom_site_label
  _atom_site_symmetry_multiplicity
  _atom_site_fract_x
  _atom_site_fract_y
  _atom_site_fract_z
  _atom_site_occupancy
  Br  Br1       1.0  0.17500  0.25000  0.29900  1.0000
  Br  Br2       1.0  0.82500  0.75000  0.70100  1.0000
  H   H1        1.0  0.83400  0.75000  0.20300  1.0000
  H   H2        1.0  0.16600  0.25000  0.79700  1.0000
  O   O1        1.0  0.68800  0.75000  0.16600  1.0000
  O   O2        1.0  0.31200  0.25000  0.83400  1.0000
  Rb  Rb1       1.0  0.28500  0.75000  0.03960  1.0000
  Rb  Rb2       1.0  0.71000  0.25000  0.38400  1.0000
  Rb  Rb3       1.0  0.29000  0.75000  0.61600  1.0000
  Rb  Rb4       1.0  0.71500  0.25000  0.96000  1.0000
