data_image0
_chemical_formula_structural       H4MgNi4Y
_chemical_formula_sum              "H4 Mg1 Ni4 Y1"
_cell_length_a       5.21218
_cell_length_b       5.21218
_cell_length_c       5.21218
_cell_angle_alpha    120
_cell_angle_beta     90
_cell_angle_gamma    120

_space_group_name_H-M_alt    "P 1"
_space_group_IT_number       1

loop_
  _space_group_symop_operation_xyz
  'x, y, z'

loop_
  _atom_site_type_symbol
  _atom_site_label
  _atom_site_symmetry_multiplicity
  _atom_site_fract_x
  _atom_site_fract_y
  _atom_site_fract_z
  _atom_site_occupancy
  H   H1        1.0  0.16100  0.32200  0.48300  1.0000
  H   H2        1.0  0.16100  0.67800  0.83900  1.0000
  H   H3        1.0  0.51700  0.67800  0.83900  1.0000
  H   H4        1.0  0.16100  0.32200  0.83900  1.0000
  Mg  Mg1       1.0  0.75000  0.50000  0.25000  1.0000
  Ni  Ni1       1.0  0.38200  0.76500  0.14700  1.0000
  Ni  Ni2       1.0  0.85300  0.23500  0.61800  1.0000
  Ni  Ni3       1.0  0.38200  0.23500  0.61800  1.0000
  Ni  Ni4       1.0  0.38200  0.76500  0.61800  1.0000
  Y   Y1        1.0  0.00000  0.00000  0.00000  1.0000
