data_image0
_chemical_formula_structural       Ge3LaRh
_chemical_formula_sum              "Ge3 La1 Rh1"
_cell_length_a       4.45556
_cell_length_b       4.45556
_cell_length_c       5.96479
_cell_angle_alpha    111.931
_cell_angle_beta     111.931
_cell_angle_gamma    90

_space_group_name_H-M_alt    "P 1"
_space_group_IT_number       1

loop_
  _space_group_symop_operation_xyz
  'x, y, z'

loop_
  _atom_site_type_symbol
  _atom_site_label
  _atom_site_symmetry_multiplicity
  _atom_site_fract_x
  _atom_site_fract_y
  _atom_site_fract_z
  _atom_site_occupancy
  Ge  Ge1       1.0  0.00000  0.00000  0.99900  1.0000
  Ge  Ge2       1.0  0.84200  0.34200  0.68300  1.0000
  Ge  Ge3       1.0  0.34200  0.84200  0.68300  1.0000
  La  La1       1.0  0.58000  0.58000  0.16100  1.0000
  Rh  Rh1       1.0  0.23900  0.23900  0.47700  1.0000
