data_image0
_chemical_formula_structural       Ca2H6Na2
_chemical_formula_sum              "Ca2 H6 Na2"
_cell_length_a       6.7353
_cell_length_b       7.05597
_cell_length_c       6.65918
_cell_angle_alpha    118.843
_cell_angle_beta     117.163
_cell_angle_gamma    29.8831

_space_group_name_H-M_alt    "P 1"
_space_group_IT_number       1

loop_
  _space_group_symop_operation_xyz
  'x, y, z'

loop_
  _atom_site_type_symbol
  _atom_site_label
  _atom_site_symmetry_multiplicity
  _atom_site_fract_x
  _atom_site_fract_y
  _atom_site_fract_z
  _atom_site_occupancy
  Ca  Ca1       1.0  0.83900  0.37100  0.24800  1.0000
  Ca  Ca2       1.0  0.16100  0.62900  0.75200  1.0000
  H   H1        1.0  0.36600  0.82200  0.01600  1.0000
  H   H2        1.0  0.23300  0.83700  0.34600  1.0000
  H   H3        1.0  0.10100  0.48200  0.34900  1.0000
  H   H4        1.0  0.89900  0.51800  0.65100  1.0000
  H   H5        1.0  0.76700  0.16300  0.65400  1.0000
  H   H6        1.0  0.63400  0.17800  0.98400  1.0000
  Na  Na1       1.0  0.72400  0.01200  0.26900  1.0000
  Na  Na2       1.0  0.27600  0.98800  0.73100  1.0000
