data_image0
_chemical_formula_structural       KTe2Y
_chemical_formula_sum              "K1 Te2 Y1"
_cell_length_a       4.49672
_cell_length_b       4.49672
_cell_length_c       8.61948
_cell_angle_alpha    105.12
_cell_angle_beta     105.12
_cell_angle_gamma    60

_space_group_name_H-M_alt    "P 1"
_space_group_IT_number       1

loop_
  _space_group_symop_operation_xyz
  'x, y, z'

loop_
  _atom_site_type_symbol
  _atom_site_label
  _atom_site_symmetry_multiplicity
  _atom_site_fract_x
  _atom_site_fract_y
  _atom_site_fract_z
  _atom_site_occupancy
  K   K1        1.0  0.50000  0.50000  0.50000  1.0000
  Te  Te1       1.0  0.73600  0.73600  0.20900  1.0000
  Te  Te2       1.0  0.26400  0.26400  0.79100  1.0000
  Y   Y1        1.0  0.00000  0.00000  0.00000  1.0000
