data_image0
_chemical_formula_structural       H6Ni2Zr2
_chemical_formula_sum              "H6 Ni2 Zr2"
_cell_length_a       3.51688
_cell_length_b       4.30803
_cell_length_c       5.52198
_cell_angle_alpha    90
_cell_angle_beta     71.4312
_cell_angle_gamma    90

_space_group_name_H-M_alt    "P 1"
_space_group_IT_number       1

loop_
  _space_group_symop_operation_xyz
  'x, y, z'

loop_
  _atom_site_type_symbol
  _atom_site_label
  _atom_site_symmetry_multiplicity
  _atom_site_fract_x
  _atom_site_fract_y
  _atom_site_fract_z
  _atom_site_occupancy
  H   H1        1.0  0.93300  0.75000  0.13400  1.0000
  H   H2        1.0  0.31300  0.00439  0.37400  1.0000
  H   H3        1.0  0.31300  0.49600  0.37400  1.0000
  H   H4        1.0  0.68700  0.50400  0.62600  1.0000
  H   H5        1.0  0.68700  0.99600  0.62600  1.0000
  H   H6        1.0  0.06710  0.25000  0.86600  1.0000
  Ni  Ni1       1.0  0.43100  0.75000  0.13700  1.0000
  Ni  Ni2       1.0  0.56900  0.25000  0.86300  1.0000
  Zr  Zr1       1.0  0.86000  0.25000  0.28000  1.0000
  Zr  Zr2       1.0  0.14000  0.75000  0.72000  1.0000
