data_image0
_chemical_formula_structural       Cl2H4Hg2N2
_chemical_formula_sum              "Cl2 H4 Hg2 N2"
_cell_length_a       6.81947
_cell_length_b       4.38894
_cell_length_c       5.0693
_cell_angle_alpha    90
_cell_angle_beta     90
_cell_angle_gamma    90

_space_group_name_H-M_alt    "P 1"
_space_group_IT_number       1

loop_
  _space_group_symop_operation_xyz
  'x, y, z'

loop_
  _atom_site_type_symbol
  _atom_site_label
  _atom_site_symmetry_multiplicity
  _atom_site_fract_x
  _atom_site_fract_y
  _atom_site_fract_z
  _atom_site_occupancy
  Cl  Cl1       1.0  0.75000  0.50000  0.27800  1.0000
  Cl  Cl2       1.0  0.25000  0.50000  0.72200  1.0000
  H   H1        1.0  0.25000  0.18800  0.36900  1.0000
  H   H2        1.0  0.25000  0.81200  0.36900  1.0000
  H   H3        1.0  0.75000  0.18800  0.63100  1.0000
  H   H4        1.0  0.75000  0.81200  0.63100  1.0000
  Hg  Hg1       1.0  0.00000  0.00000  0.00000  1.0000
  Hg  Hg2       1.0  0.50000  0.00000  0.00000  1.0000
  N   N1        1.0  0.25000  0.00000  0.24500  1.0000
  N   N2        1.0  0.75000  0.00000  0.75500  1.0000
