data_image0
_chemical_formula_structural       Sn4Tm2
_chemical_formula_sum              "Sn4 Tm2"
_cell_length_a       4.31683
_cell_length_b       4.3926
_cell_length_c       8.35196
_cell_angle_alpha    74.7537
_cell_angle_beta     90
_cell_angle_gamma    90

_space_group_name_H-M_alt    "P 1"
_space_group_IT_number       1

loop_
  _space_group_symop_operation_xyz
  'x, y, z'

loop_
  _atom_site_type_symbol
  _atom_site_label
  _atom_site_symmetry_multiplicity
  _atom_site_fract_x
  _atom_site_fract_y
  _atom_site_fract_z
  _atom_site_occupancy
  Sn  Sn1       1.0  0.75000  0.43500  0.12900  1.0000
  Sn  Sn2       1.0  0.25000  0.25200  0.49600  1.0000
  Sn  Sn3       1.0  0.75000  0.74800  0.50400  1.0000
  Sn  Sn4       1.0  0.25000  0.56500  0.87100  1.0000
  Tm  Tm1       1.0  0.25000  0.90200  0.19600  1.0000
  Tm  Tm2       1.0  0.75000  0.09800  0.80400  1.0000
