data_image0
_chemical_formula_structural       Fe2O6Sr3
_chemical_formula_sum              "Fe2 O6 Sr3"
_cell_length_a       3.90616
_cell_length_b       3.90616
_cell_length_c       10.3282
_cell_angle_alpha    100.9
_cell_angle_beta     100.9
_cell_angle_gamma    90

_space_group_name_H-M_alt    "P 1"
_space_group_IT_number       1

loop_
  _space_group_symop_operation_xyz
  'x, y, z'

loop_
  _atom_site_type_symbol
  _atom_site_label
  _atom_site_symmetry_multiplicity
  _atom_site_fract_x
  _atom_site_fract_y
  _atom_site_fract_z
  _atom_site_occupancy
  Fe  Fe1       1.0  0.10200  0.10200  0.20400  1.0000
  Fe  Fe2       1.0  0.89800  0.89800  0.79600  1.0000
  O   O1        1.0  0.58400  0.08430  0.16900  1.0000
  O   O2        1.0  0.08430  0.58400  0.16900  1.0000
  O   O3        1.0  0.19700  0.19700  0.39400  1.0000
  O   O4        1.0  0.80300  0.80300  0.60600  1.0000
  O   O5        1.0  0.91600  0.41600  0.83100  1.0000
  O   O6        1.0  0.41600  0.91600  0.83100  1.0000
  Sr  Sr1       1.0  0.50000  0.50000  0.00000  1.0000
  Sr  Sr2       1.0  0.68000  0.68000  0.36100  1.0000
  Sr  Sr3       1.0  0.32000  0.32000  0.63900  1.0000
