data_image0
_chemical_formula_structural       Li8Pb3
_chemical_formula_sum              "Li8 Pb3"
_cell_length_a       4.68785
_cell_length_b       4.69044
_cell_length_c       10.9217
_cell_angle_alpha    102.43
_cell_angle_beta     90
_cell_angle_gamma    119.982

_space_group_name_H-M_alt    "P 1"
_space_group_IT_number       1

loop_
  _space_group_symop_operation_xyz
  'x, y, z'

loop_
  _atom_site_type_symbol
  _atom_site_label
  _atom_site_symmetry_multiplicity
  _atom_site_fract_x
  _atom_site_fract_y
  _atom_site_fract_z
  _atom_site_occupancy
  Li  Li1       1.0  0.36200  0.72400  0.08580  1.0000
  Li  Li2       1.0  0.72700  0.45400  0.18100  1.0000
  Li  Li3       1.0  0.08860  0.17700  0.26600  1.0000
  Li  Li4       1.0  0.82100  0.64300  0.46400  1.0000
  Li  Li5       1.0  0.17900  0.35700  0.53600  1.0000
  Li  Li6       1.0  0.91100  0.82300  0.73400  1.0000
  Li  Li7       1.0  0.27300  0.54600  0.81900  1.0000
  Li  Li8       1.0  0.63800  0.27600  0.91400  1.0000
  Pb  Pb1       1.0  0.00000  0.00000  0.00000  1.0000
  Pb  Pb2       1.0  0.45100  0.90300  0.35500  1.0000
  Pb  Pb3       1.0  0.54900  0.09700  0.64500  1.0000
