data_image0
_chemical_formula_structural       Ag4Gd3Sn4
_chemical_formula_sum              "Ag4 Gd3 Sn4"
_cell_length_a       4.58519
_cell_length_b       7.35673
_cell_length_c       8.81261
_cell_angle_alpha    114.67
_cell_angle_beta     105.079
_cell_angle_gamma    90

_space_group_name_H-M_alt    "P 1"
_space_group_IT_number       1

loop_
  _space_group_symop_operation_xyz
  'x, y, z'

loop_
  _atom_site_type_symbol
  _atom_site_label
  _atom_site_symmetry_multiplicity
  _atom_site_fract_x
  _atom_site_fract_y
  _atom_site_fract_z
  _atom_site_occupancy
  Ag  Ag1       1.0  0.67100  0.47300  0.34200  1.0000
  Ag  Ag2       1.0  0.67100  0.86900  0.34200  1.0000
  Ag  Ag3       1.0  0.32900  0.13100  0.65800  1.0000
  Ag  Ag4       1.0  0.32900  0.52700  0.65800  1.0000
  Gd  Gd1       1.0  0.00000  0.50000  0.00000  1.0000
  Gd  Gd2       1.0  0.12800  0.12800  0.25600  1.0000
  Gd  Gd3       1.0  0.87200  0.87200  0.74400  1.0000
  Sn  Sn1       1.0  0.50000  0.19600  0.00000  1.0000
  Sn  Sn2       1.0  0.50000  0.80400  0.00000  1.0000
  Sn  Sn3       1.0  0.21500  0.71500  0.42900  1.0000
  Sn  Sn4       1.0  0.78500  0.28500  0.57100  1.0000
