data_image0
_chemical_formula_structural       MgO6Pt3
_chemical_formula_sum              "Mg1 O6 Pt3"
_cell_length_a       3.19384
_cell_length_b       6.10597
_cell_length_c       6.10597
_cell_angle_alpha    71.1689
_cell_angle_beta     90
_cell_angle_gamma    90

_space_group_name_H-M_alt    "P 1"
_space_group_IT_number       1

loop_
  _space_group_symop_operation_xyz
  'x, y, z'

loop_
  _atom_site_type_symbol
  _atom_site_label
  _atom_site_symmetry_multiplicity
  _atom_site_fract_x
  _atom_site_fract_y
  _atom_site_fract_z
  _atom_site_occupancy
  Mg  Mg1       1.0  0.00000  0.50000  0.50000  1.0000
  O   O1        1.0  0.00000  0.65900  0.08910  1.0000
  O   O2        1.0  0.00000  0.91100  0.34100  1.0000
  O   O3        1.0  0.50000  0.35400  0.35400  1.0000
  O   O4        1.0  0.50000  0.64600  0.64600  1.0000
  O   O5        1.0  0.00000  0.08910  0.65900  1.0000
  O   O6        1.0  0.00000  0.34100  0.91100  1.0000
  Pt  Pt1       1.0  0.50000  0.50000  0.00000  1.0000
  Pt  Pt2       1.0  0.00000  0.00000  0.00000  1.0000
  Pt  Pt3       1.0  0.50000  0.00000  0.50000  1.0000
