data_image0
_chemical_formula_structural       KP2S7V
_chemical_formula_sum              "K1 P2 S7 V1"
_cell_length_a       6.42493
_cell_length_b       6.47959
_cell_length_c       6.47959
_cell_angle_alpha    96.6524
_cell_angle_beta     95.5467
_cell_angle_gamma    95.5467

_space_group_name_H-M_alt    "P 1"
_space_group_IT_number       1

loop_
  _space_group_symop_operation_xyz
  'x, y, z'

loop_
  _atom_site_type_symbol
  _atom_site_label
  _atom_site_symmetry_multiplicity
  _atom_site_fract_x
  _atom_site_fract_y
  _atom_site_fract_z
  _atom_site_occupancy
  K   K1        1.0  0.50000  0.10800  0.89200  1.0000
  P   P1        1.0  0.08270  0.05250  0.34800  1.0000
  P   P2        1.0  0.91700  0.65200  0.94800  1.0000
  S   S1        1.0  0.00000  0.98600  0.01410  1.0000
  S   S2        1.0  0.77300  0.54000  0.18300  1.0000
  S   S3        1.0  0.28500  0.31600  0.37100  1.0000
  S   S4        1.0  0.22700  0.81700  0.46000  1.0000
  S   S5        1.0  0.82500  0.14700  0.47500  1.0000
  S   S6        1.0  0.71500  0.62900  0.68400  1.0000
  S   S7        1.0  0.17500  0.52500  0.85300  1.0000
  V   V1        1.0  0.00000  0.50000  0.50000  1.0000
