data_image0
_chemical_formula_structural       As2Ni2O7
_chemical_formula_sum              "As2 Ni2 O7"
_cell_length_a       4.76024
_cell_length_b       5.32458
_cell_length_c       5.32458
_cell_angle_alpha    106.258
_cell_angle_beta     97.0842
_cell_angle_gamma    97.0842

_space_group_name_H-M_alt    "P 1"
_space_group_IT_number       1

loop_
  _space_group_symop_operation_xyz
  'x, y, z'

loop_
  _atom_site_type_symbol
  _atom_site_label
  _atom_site_symmetry_multiplicity
  _atom_site_fract_x
  _atom_site_fract_y
  _atom_site_fract_z
  _atom_site_occupancy
  As  As1       1.0  0.89700  0.24300  0.24300  1.0000
  As  As2       1.0  0.10300  0.75700  0.75700  1.0000
  Ni  Ni1       1.0  0.50000  0.68900  0.31100  1.0000
  Ni  Ni2       1.0  0.50000  0.31100  0.68900  1.0000
  O   O1        1.0  0.00000  0.00000  0.00000  1.0000
  O   O2        1.0  0.71000  0.40900  0.06800  1.0000
  O   O3        1.0  0.71000  0.06800  0.40900  1.0000
  O   O4        1.0  0.23100  0.41000  0.41000  1.0000
  O   O5        1.0  0.76900  0.59000  0.59000  1.0000
  O   O6        1.0  0.29000  0.93200  0.59100  1.0000
  O   O7        1.0  0.29000  0.59100  0.93200  1.0000
