data_image0
_chemical_formula_structural       BaC2MgO6
_chemical_formula_sum              "Ba1 C2 Mg1 O6"
_cell_length_a       5.03367
_cell_length_b       5.03367
_cell_length_c       6.18108
_cell_angle_alpha    65.9719
_cell_angle_beta     114.028
_cell_angle_gamma    120

_space_group_name_H-M_alt    "P 1"
_space_group_IT_number       1

loop_
  _space_group_symop_operation_xyz
  'x, y, z'

loop_
  _atom_site_type_symbol
  _atom_site_label
  _atom_site_symmetry_multiplicity
  _atom_site_fract_x
  _atom_site_fract_y
  _atom_site_fract_z
  _atom_site_occupancy
  Ba  Ba1       1.0  0.00000  0.00000  0.00000  1.0000
  C   C1        1.0  0.75900  0.24100  0.27700  1.0000
  C   C2        1.0  0.24100  0.75900  0.72300  1.0000
  Mg  Mg1       1.0  0.50000  0.50000  0.50000  1.0000
  O   O1        1.0  0.05290  0.38500  0.27100  1.0000
  O   O2        1.0  0.61500  0.39700  0.27100  1.0000
  O   O3        1.0  0.60300  0.94700  0.27100  1.0000
  O   O4        1.0  0.38500  0.05290  0.72900  1.0000
  O   O5        1.0  0.94700  0.60300  0.72900  1.0000
  O   O6        1.0  0.39700  0.61500  0.72900  1.0000
