data_image0
_chemical_formula_structural       Cu4Gd3Ge4
_chemical_formula_sum              "Cu4 Gd3 Ge4"
_cell_length_a       4.23531
_cell_length_b       6.67749
_cell_length_c       8.05561
_cell_angle_alpha    114.485
_cell_angle_beta     105.241
_cell_angle_gamma    90

_space_group_name_H-M_alt    "P 1"
_space_group_IT_number       1

loop_
  _space_group_symop_operation_xyz
  'x, y, z'

loop_
  _atom_site_type_symbol
  _atom_site_label
  _atom_site_symmetry_multiplicity
  _atom_site_fract_x
  _atom_site_fract_y
  _atom_site_fract_z
  _atom_site_occupancy
  Cu  Cu1       1.0  0.66900  0.48000  0.33900  1.0000
  Cu  Cu2       1.0  0.66900  0.85900  0.33900  1.0000
  Cu  Cu3       1.0  0.33100  0.14100  0.66100  1.0000
  Cu  Cu4       1.0  0.33100  0.52000  0.66100  1.0000
  Gd  Gd1       1.0  0.00000  0.50000  0.00000  1.0000
  Gd  Gd2       1.0  0.13100  0.13100  0.26200  1.0000
  Gd  Gd3       1.0  0.86900  0.86900  0.73800  1.0000
  Ge  Ge1       1.0  0.50000  0.19000  0.00000  1.0000
  Ge  Ge2       1.0  0.50000  0.81000  0.00000  1.0000
  Ge  Ge3       1.0  0.21600  0.71600  0.43200  1.0000
  Ge  Ge4       1.0  0.78400  0.28400  0.56800  1.0000
