data_image0
_chemical_formula_structural       Ca3Cu2P4Zn2
_chemical_formula_sum              "Ca3 Cu2 P4 Zn2"
_cell_length_a       4.03486
_cell_length_b       4.03455
_cell_length_c       14.6405
_cell_angle_alpha    90
_cell_angle_beta     89.9991
_cell_angle_gamma    119.997

_space_group_name_H-M_alt    "P 1"
_space_group_IT_number       1

loop_
  _space_group_symop_operation_xyz
  'x, y, z'

loop_
  _atom_site_type_symbol
  _atom_site_label
  _atom_site_symmetry_multiplicity
  _atom_site_fract_x
  _atom_site_fract_y
  _atom_site_fract_z
  _atom_site_occupancy
  Ca  Ca1       1.0  0.00000  0.00000  0.00000  1.0000
  Ca  Ca2       1.0  0.00000  0.00000  0.26800  1.0000
  Ca  Ca3       1.0  0.00007  0.00003  0.73200  1.0000
  Cu  Cu1       1.0  0.33300  0.66700  0.13600  1.0000
  Cu  Cu2       1.0  0.66700  0.33300  0.86400  1.0000
  P   P1        1.0  0.66700  0.33300  0.13400  1.0000
  P   P2        1.0  0.33300  0.66700  0.38900  1.0000
  P   P3        1.0  0.66700  0.33300  0.61100  1.0000
  P   P4        1.0  0.33300  0.66700  0.86600  1.0000
  Zn  Zn1       1.0  0.66700  0.33300  0.43800  1.0000
  Zn  Zn2       1.0  0.33300  0.66700  0.56200  1.0000
