data_image0
_chemical_formula_structural       GeLa2MgO6
_chemical_formula_sum              "Ge1 La2 Mg1 O6"
_cell_length_a       5.45718
_cell_length_b       5.45718
_cell_length_c       5.45718
_cell_angle_alpha    119.281
_cell_angle_beta     60.7194
_cell_angle_gamma    119.281

_space_group_name_H-M_alt    "P 1"
_space_group_IT_number       1

loop_
  _space_group_symop_operation_xyz
  'x, y, z'

loop_
  _atom_site_type_symbol
  _atom_site_label
  _atom_site_symmetry_multiplicity
  _atom_site_fract_x
  _atom_site_fract_y
  _atom_site_fract_z
  _atom_site_occupancy
  Ge  Ge1       1.0  0.50000  0.50000  0.50000  1.0000
  La  La1       1.0  0.25100  0.74900  0.25100  1.0000
  La  La2       1.0  0.75000  0.25000  0.75000  1.0000
  Mg  Mg1       1.0  0.00042  0.00000  0.00042  1.0000
  O   O1        1.0  0.73900  0.68100  0.19800  1.0000
  O   O2        1.0  0.68100  0.19700  0.26200  1.0000
  O   O3        1.0  0.19800  0.26100  0.31900  1.0000
  O   O4        1.0  0.80300  0.73800  0.68100  1.0000
  O   O5        1.0  0.31900  0.80200  0.73900  1.0000
  O   O6        1.0  0.26200  0.31900  0.80300  1.0000
