data_image0
_chemical_formula_structural       H2K2O6Se2
_chemical_formula_sum              "H2 K2 O6 Se2"
_cell_length_a       4.9522
_cell_length_b       5.68368
_cell_length_c       6.58437
_cell_angle_alpha    109.198
_cell_angle_beta     107.096
_cell_angle_gamma    91.2703

_space_group_name_H-M_alt    "P 1"
_space_group_IT_number       1

loop_
  _space_group_symop_operation_xyz
  'x, y, z'

loop_
  _atom_site_type_symbol
  _atom_site_label
  _atom_site_symmetry_multiplicity
  _atom_site_fract_x
  _atom_site_fract_y
  _atom_site_fract_z
  _atom_site_occupancy
  H   H1        1.0  0.26500  0.10500  0.05360  1.0000
  H   H2        1.0  0.73500  0.89500  0.94600  1.0000
  K   K1        1.0  0.35800  0.64000  0.22500  1.0000
  K   K2        1.0  0.64200  0.36000  0.77500  1.0000
  O   O1        1.0  0.76100  0.88700  0.10400  1.0000
  O   O2        1.0  0.84500  0.40600  0.22300  1.0000
  O   O3        1.0  0.28800  0.15400  0.32000  1.0000
  O   O4        1.0  0.71200  0.84600  0.68000  1.0000
  O   O5        1.0  0.15500  0.59400  0.77700  1.0000
  O   O6        1.0  0.23900  0.11300  0.89600  1.0000
  Se  Se1       1.0  0.94700  0.17800  0.33100  1.0000
  Se  Se2       1.0  0.05300  0.82200  0.66900  1.0000
