data_image0
_chemical_formula_structural       F2H8N2
_chemical_formula_sum              "F2 H8 N2"
_cell_length_a       4.29244
_cell_length_b       4.29232
_cell_length_c       6.89621
_cell_angle_alpha    90
_cell_angle_beta     90
_cell_angle_gamma    120.001

_space_group_name_H-M_alt    "P 1"
_space_group_IT_number       1

loop_
  _space_group_symop_operation_xyz
  'x, y, z'

loop_
  _atom_site_type_symbol
  _atom_site_label
  _atom_site_symmetry_multiplicity
  _atom_site_fract_x
  _atom_site_fract_y
  _atom_site_fract_z
  _atom_site_occupancy
  F   F1        1.0  0.66700  0.33300  0.49400  1.0000
  F   F2        1.0  0.33300  0.66700  0.99400  1.0000
  H   H1        1.0  0.33300  0.66700  0.22100  1.0000
  H   H2        1.0  0.46700  0.93300  0.42300  1.0000
  H   H3        1.0  0.06680  0.53300  0.42300  1.0000
  H   H4        1.0  0.46700  0.53300  0.42300  1.0000
  H   H5        1.0  0.66700  0.33300  0.72100  1.0000
  H   H6        1.0  0.53300  0.06680  0.92300  1.0000
  H   H7        1.0  0.53300  0.46700  0.92300  1.0000
  H   H8        1.0  0.93300  0.46700  0.92300  1.0000
  N   N1        1.0  0.33300  0.66700  0.37300  1.0000
  N   N2        1.0  0.66700  0.33300  0.87300  1.0000
