data_image0
_chemical_formula_structural       H4Li2O4P2
_chemical_formula_sum              "H4 Li2 O4 P2"
_cell_length_a       5.17888
_cell_length_b       5.38001
_cell_length_c       6.41908
_cell_angle_alpha    106.73
_cell_angle_beta     90
_cell_angle_gamma    118.771

_space_group_name_H-M_alt    "P 1"
_space_group_IT_number       1

loop_
  _space_group_symop_operation_xyz
  'x, y, z'

loop_
  _atom_site_type_symbol
  _atom_site_label
  _atom_site_symmetry_multiplicity
  _atom_site_fract_x
  _atom_site_fract_y
  _atom_site_fract_z
  _atom_site_occupancy
  H   H1        1.0  0.06460  0.69600  0.42600  1.0000
  H   H2        1.0  0.63100  0.69600  0.42600  1.0000
  H   H3        1.0  0.36900  0.30400  0.57400  1.0000
  H   H4        1.0  0.93500  0.30400  0.57400  1.0000
  Li  Li1       1.0  0.25000  0.00000  0.00000  1.0000
  Li  Li2       1.0  0.75000  0.00000  0.00000  1.0000
  O   O1        1.0  0.91800  0.83600  0.14900  1.0000
  O   O2        1.0  0.64400  0.28800  0.16400  1.0000
  O   O3        1.0  0.35600  0.71200  0.83600  1.0000
  O   O4        1.0  0.08220  0.16400  0.85100  1.0000
  P   P1        1.0  0.81200  0.62400  0.28300  1.0000
  P   P2        1.0  0.18800  0.37600  0.71700  1.0000
