data_image0
_chemical_formula_structural       Hf5Pb
_chemical_formula_sum              "Hf5 Pb1"
_cell_length_a       3.19182
_cell_length_b       3.19182
_cell_length_c       13.6102
_cell_angle_alpha    90
_cell_angle_beta     90
_cell_angle_gamma    90

_space_group_name_H-M_alt    "P 1"
_space_group_IT_number       1

loop_
  _space_group_symop_operation_xyz
  'x, y, z'

loop_
  _atom_site_type_symbol
  _atom_site_label
  _atom_site_symmetry_multiplicity
  _atom_site_fract_x
  _atom_site_fract_y
  _atom_site_fract_z
  _atom_site_occupancy
  Hf  Hf1       1.0  0.00000  0.00000  0.17900  1.0000
  Hf  Hf2       1.0  0.50000  0.50000  0.33600  1.0000
  Hf  Hf3       1.0  0.00000  0.00000  0.50000  1.0000
  Hf  Hf4       1.0  0.50000  0.50000  0.66400  1.0000
  Hf  Hf5       1.0  0.00000  0.00000  0.82100  1.0000
  Pb  Pb1       1.0  0.50000  0.50000  0.00000  1.0000
