data_image0
_chemical_formula_structural       Ge4Hf3Ni4
_chemical_formula_sum              "Ge4 Hf3 Ni4"
_cell_length_a       3.91217
_cell_length_b       6.5212
_cell_length_c       7.49975
_cell_angle_alpha    115.77
_cell_angle_beta     105.119
_cell_angle_gamma    90

_space_group_name_H-M_alt    "P 1"
_space_group_IT_number       1

loop_
  _space_group_symop_operation_xyz
  'x, y, z'

loop_
  _atom_site_type_symbol
  _atom_site_label
  _atom_site_symmetry_multiplicity
  _atom_site_fract_x
  _atom_site_fract_y
  _atom_site_fract_z
  _atom_site_occupancy
  Ge  Ge1       1.0  0.50000  0.20000  0.00000  1.0000
  Ge  Ge2       1.0  0.50000  0.80000  0.00000  1.0000
  Ge  Ge3       1.0  0.21300  0.71300  0.42700  1.0000
  Ge  Ge4       1.0  0.78700  0.28700  0.57300  1.0000
  Hf  Hf1       1.0  0.00000  0.50000  0.00000  1.0000
  Hf  Hf2       1.0  0.12800  0.12800  0.25500  1.0000
  Hf  Hf3       1.0  0.87200  0.87200  0.74500  1.0000
  Ni  Ni1       1.0  0.67600  0.47600  0.35200  1.0000
  Ni  Ni2       1.0  0.67600  0.87600  0.35200  1.0000
  Ni  Ni3       1.0  0.32400  0.12400  0.64800  1.0000
  Ni  Ni4       1.0  0.32400  0.52400  0.64800  1.0000
