data_image0
_chemical_formula_structural       Ga2H8Na2
_chemical_formula_sum              "Ga2 H8 Na2"
_cell_length_a       4.62856
_cell_length_b       4.62856
_cell_length_c       6.93065
_cell_angle_alpha    90
_cell_angle_beta     90
_cell_angle_gamma    85.0259

_space_group_name_H-M_alt    "P 1"
_space_group_IT_number       1

loop_
  _space_group_symop_operation_xyz
  'x, y, z'

loop_
  _atom_site_type_symbol
  _atom_site_label
  _atom_site_symmetry_multiplicity
  _atom_site_fract_x
  _atom_site_fract_y
  _atom_site_fract_z
  _atom_site_occupancy
  Ga  Ga1       1.0  0.84300  0.15700  0.25000  1.0000
  Ga  Ga2       1.0  0.15700  0.84300  0.75000  1.0000
  H   H1        1.0  0.68900  0.31100  0.06760  1.0000
  H   H2        1.0  0.18200  0.19400  0.25000  1.0000
  H   H3        1.0  0.80600  0.81800  0.25000  1.0000
  H   H4        1.0  0.68900  0.31100  0.43200  1.0000
  H   H5        1.0  0.31100  0.68900  0.56800  1.0000
  H   H6        1.0  0.19400  0.18200  0.75000  1.0000
  H   H7        1.0  0.81800  0.80600  0.75000  1.0000
  H   H8        1.0  0.31100  0.68900  0.93200  1.0000
  Na  Na1       1.0  0.34400  0.65600  0.25000  1.0000
  Na  Na2       1.0  0.65600  0.34400  0.75000  1.0000
