data_image0
_chemical_formula_structural       Cl2Dy2H4O4
_chemical_formula_sum              "Cl2 Dy2 H4 O4"
_cell_length_a       6.12776
_cell_length_b       3.6227
_cell_length_c       6.61086
_cell_angle_alpha    90
_cell_angle_beta     107.98
_cell_angle_gamma    90

_space_group_name_H-M_alt    "P 1"
_space_group_IT_number       1

loop_
  _space_group_symop_operation_xyz
  'x, y, z'

loop_
  _atom_site_type_symbol
  _atom_site_label
  _atom_site_symmetry_multiplicity
  _atom_site_fract_x
  _atom_site_fract_y
  _atom_site_fract_z
  _atom_site_occupancy
  Cl  Cl1       1.0  0.23600  0.75000  0.43300  1.0000
  Cl  Cl2       1.0  0.76400  0.25000  0.56700  1.0000
  Dy  Dy1       1.0  0.29100  0.25000  0.11900  1.0000
  Dy  Dy2       1.0  0.70900  0.75000  0.88100  1.0000
  H   H1        1.0  0.87800  0.25000  0.23200  1.0000
  H   H2        1.0  0.66400  0.75000  0.30600  1.0000
  H   H3        1.0  0.33600  0.25000  0.69400  1.0000
  H   H4        1.0  0.12200  0.75000  0.76800  1.0000
  O   O1        1.0  0.89700  0.25000  0.09040  1.0000
  O   O2        1.0  0.55600  0.75000  0.16200  1.0000
  O   O3        1.0  0.44400  0.25000  0.83800  1.0000
  O   O4        1.0  0.10400  0.75000  0.91000  1.0000
