data_image0
_chemical_formula_structural       B6Ta5
_chemical_formula_sum              "B6 Ta5"
_cell_length_a       3.15046
_cell_length_b       3.30225
_cell_length_c       11.4849
_cell_angle_alpha    90
_cell_angle_beta     97.8834
_cell_angle_gamma    90

_space_group_name_H-M_alt    "P 1"
_space_group_IT_number       1

loop_
  _space_group_symop_operation_xyz
  'x, y, z'

loop_
  _atom_site_type_symbol
  _atom_site_label
  _atom_site_symmetry_multiplicity
  _atom_site_fract_x
  _atom_site_fract_y
  _atom_site_fract_z
  _atom_site_occupancy
  B   B1        1.0  0.54000  0.50000  0.07930  1.0000
  B   B2        1.0  0.08230  0.50000  0.16500  1.0000
  B   B3        1.0  0.72700  0.00000  0.45400  1.0000
  B   B4        1.0  0.27300  0.00000  0.54600  1.0000
  B   B5        1.0  0.91800  0.50000  0.83500  1.0000
  B   B6        1.0  0.46000  0.50000  0.92100  1.0000
  Ta  Ta1       1.0  0.00000  0.00000  0.00000  1.0000
  Ta  Ta2       1.0  0.61400  0.00000  0.22900  1.0000
  Ta  Ta3       1.0  0.19400  0.50000  0.38900  1.0000
  Ta  Ta4       1.0  0.80600  0.50000  0.61100  1.0000
  Ta  Ta5       1.0  0.38600  0.00000  0.77100  1.0000
