data_image0
_chemical_formula_structural       As2Cd2O7
_chemical_formula_sum              "As2 Cd2 O7"
_cell_length_a       4.87468
_cell_length_b       5.72328
_cell_length_c       5.72328
_cell_angle_alpha    104.682
_cell_angle_beta     96.9669
_cell_angle_gamma    96.9669

_space_group_name_H-M_alt    "P 1"
_space_group_IT_number       1

loop_
  _space_group_symop_operation_xyz
  'x, y, z'

loop_
  _atom_site_type_symbol
  _atom_site_label
  _atom_site_symmetry_multiplicity
  _atom_site_fract_x
  _atom_site_fract_y
  _atom_site_fract_z
  _atom_site_occupancy
  As  As1       1.0  0.91100  0.23100  0.23100  1.0000
  As  As2       1.0  0.08850  0.76900  0.76900  1.0000
  Cd  Cd1       1.0  0.50000  0.69900  0.30100  1.0000
  Cd  Cd2       1.0  0.50000  0.30100  0.69900  1.0000
  O   O1        1.0  0.00000  0.00000  0.00000  1.0000
  O   O2        1.0  0.72500  0.39600  0.08110  1.0000
  O   O3        1.0  0.22200  0.39100  0.39100  1.0000
  O   O4        1.0  0.72500  0.08110  0.39600  1.0000
  O   O5        1.0  0.27500  0.91900  0.60400  1.0000
  O   O6        1.0  0.77800  0.60900  0.60900  1.0000
  O   O7        1.0  0.27500  0.60400  0.91900  1.0000
