data_image0
_chemical_formula_structural       B4La2Ni5
_chemical_formula_sum              "B4 La2 Ni5"
_cell_length_a       5.15909
_cell_length_b       5.54551
_cell_length_c       6.21991
_cell_angle_alpha    93.0182
_cell_angle_beta     114.502
_cell_angle_gamma    62.2794

_space_group_name_H-M_alt    "P 1"
_space_group_IT_number       1

loop_
  _space_group_symop_operation_xyz
  'x, y, z'

loop_
  _atom_site_type_symbol
  _atom_site_label
  _atom_site_symmetry_multiplicity
  _atom_site_fract_x
  _atom_site_fract_y
  _atom_site_fract_z
  _atom_site_occupancy
  B   B1        1.0  0.53700  0.06030  0.13500  1.0000
  B   B2        1.0  0.38100  0.39800  0.15900  1.0000
  B   B3        1.0  0.61900  0.60200  0.84100  1.0000
  B   B4        1.0  0.46300  0.94000  0.86500  1.0000
  La  La1       1.0  0.07720  0.19700  0.35100  1.0000
  La  La2       1.0  0.92300  0.80300  0.64900  1.0000
  Ni  Ni1       1.0  0.45400  0.72100  0.12700  1.0000
  Ni  Ni2       1.0  0.95100  0.72100  0.12700  1.0000
  Ni  Ni3       1.0  0.50000  0.50000  0.50000  1.0000
  Ni  Ni4       1.0  0.04870  0.27900  0.87300  1.0000
  Ni  Ni5       1.0  0.54600  0.27900  0.87300  1.0000
