data_image0
_chemical_formula_structural       As2GaLiO7
_chemical_formula_sum              "As2 Ga1 Li1 O7"
_cell_length_a       4.7133
_cell_length_b       5.27405
_cell_length_c       5.27405
_cell_angle_alpha    102.249
_cell_angle_beta     98.6008
_cell_angle_gamma    98.6008

_space_group_name_H-M_alt    "P 1"
_space_group_IT_number       1

loop_
  _space_group_symop_operation_xyz
  'x, y, z'

loop_
  _atom_site_type_symbol
  _atom_site_label
  _atom_site_symmetry_multiplicity
  _atom_site_fract_x
  _atom_site_fract_y
  _atom_site_fract_z
  _atom_site_occupancy
  As  As1       1.0  0.90700  0.18200  0.25400  1.0000
  As  As2       1.0  0.09350  0.74600  0.81800  1.0000
  Ga  Ga1       1.0  0.50000  0.62400  0.37600  1.0000
  Li  Li1       1.0  0.50000  0.24900  0.75100  1.0000
  O   O1        1.0  0.23600  0.60900  0.05470  1.0000
  O   O2        1.0  0.66500  0.36000  0.13800  1.0000
  O   O3        1.0  0.76400  0.94500  0.39100  1.0000
  O   O4        1.0  0.23000  0.33800  0.45800  1.0000
  O   O5        1.0  0.33500  0.86200  0.64000  1.0000
  O   O6        1.0  0.77000  0.54200  0.66200  1.0000
  O   O7        1.0  0.00000  0.05380  0.94600  1.0000
