data_image0
_chemical_formula_structural       Cl2Er2H4O4
_chemical_formula_sum              "Cl2 Er2 H4 O4"
_cell_length_a       6.12479
_cell_length_b       3.55654
_cell_length_c       6.58113
_cell_angle_alpha    90
_cell_angle_beta     106.152
_cell_angle_gamma    90

_space_group_name_H-M_alt    "P 1"
_space_group_IT_number       1

loop_
  _space_group_symop_operation_xyz
  'x, y, z'

loop_
  _atom_site_type_symbol
  _atom_site_label
  _atom_site_symmetry_multiplicity
  _atom_site_fract_x
  _atom_site_fract_y
  _atom_site_fract_z
  _atom_site_occupancy
  Cl  Cl1       1.0  0.23000  0.75000  0.42800  1.0000
  Cl  Cl2       1.0  0.77000  0.25000  0.57200  1.0000
  Er  Er1       1.0  0.28500  0.25000  0.11300  1.0000
  Er  Er2       1.0  0.71500  0.75000  0.88700  1.0000
  H   H1        1.0  0.87200  0.25000  0.23300  1.0000
  H   H2        1.0  0.65100  0.75000  0.30600  1.0000
  H   H3        1.0  0.34900  0.25000  0.69400  1.0000
  H   H4        1.0  0.12800  0.75000  0.76700  1.0000
  O   O1        1.0  0.89500  0.25000  0.09140  1.0000
  O   O2        1.0  0.55000  0.75000  0.16100  1.0000
  O   O3        1.0  0.45000  0.25000  0.83900  1.0000
  O   O4        1.0  0.10500  0.75000  0.90900  1.0000
