data_image0
_chemical_formula_structural       Ce2Ni2Sn
_chemical_formula_sum              "Ce2 Ni2 Sn1"
_cell_length_a       4.39261
_cell_length_b       5.70666
_cell_length_c       5.70666
_cell_angle_alpha    61.5481
_cell_angle_beta     112.635
_cell_angle_gamma    112.635

_space_group_name_H-M_alt    "P 1"
_space_group_IT_number       1

loop_
  _space_group_symop_operation_xyz
  'x, y, z'

loop_
  _atom_site_type_symbol
  _atom_site_label
  _atom_site_symmetry_multiplicity
  _atom_site_fract_x
  _atom_site_fract_y
  _atom_site_fract_z
  _atom_site_occupancy
  Ce  Ce1       1.0  0.79600  0.29600  0.29600  1.0000
  Ce  Ce2       1.0  0.20400  0.70400  0.70400  1.0000
  Ni  Ni1       1.0  0.50000  0.71100  0.28900  1.0000
  Ni  Ni2       1.0  0.50000  0.28900  0.71100  1.0000
  Sn  Sn1       1.0  0.00000  0.00000  0.00000  1.0000
