data_image0
_chemical_formula_structural       Al4C5Hf2
_chemical_formula_sum              "Al4 C5 Hf2"
_cell_length_a       3.32606
_cell_length_b       3.32603
_cell_length_c       13.7586
_cell_angle_alpha    89.999
_cell_angle_beta     96.9424
_cell_angle_gamma    59.9997

_space_group_name_H-M_alt    "P 1"
_space_group_IT_number       1

loop_
  _space_group_symop_operation_xyz
  'x, y, z'

loop_
  _atom_site_type_symbol
  _atom_site_label
  _atom_site_symmetry_multiplicity
  _atom_site_fract_x
  _atom_site_fract_y
  _atom_site_fract_z
  _atom_site_occupancy
  Al  Al1       1.0  0.17700  0.91200  0.26500  1.0000
  Al  Al2       1.0  0.62100  0.18900  0.43200  1.0000
  Al  Al3       1.0  0.37900  0.81100  0.56800  1.0000
  Al  Al4       1.0  0.82300  0.08840  0.73500  1.0000
  C   C1        1.0  0.00000  0.00000  0.00000  1.0000
  C   C2        1.0  0.46600  0.26700  0.19900  1.0000
  C   C3        1.0  0.27200  0.86400  0.40800  1.0000
  C   C4        1.0  0.72800  0.13600  0.59200  1.0000
  C   C5        1.0  0.53400  0.73300  0.80100  1.0000
  Hf  Hf1       1.0  0.73200  0.63400  0.09780  1.0000
  Hf  Hf2       1.0  0.26800  0.36600  0.90200  1.0000
