data_image0
_chemical_formula_structural       Bi2K2O4
_chemical_formula_sum              "Bi2 K2 O4"
_cell_length_a       5.51918
_cell_length_b       5.51918
_cell_length_c       6.00255
_cell_angle_alpha    113.871
_cell_angle_beta     113.871
_cell_angle_gamma    90.0679

_space_group_name_H-M_alt    "P 1"
_space_group_IT_number       1

loop_
  _space_group_symop_operation_xyz
  'x, y, z'

loop_
  _atom_site_type_symbol
  _atom_site_label
  _atom_site_symmetry_multiplicity
  _atom_site_fract_x
  _atom_site_fract_y
  _atom_site_fract_z
  _atom_site_occupancy
  Bi  Bi1       1.0  0.89200  0.10800  0.25000  1.0000
  Bi  Bi2       1.0  0.10800  0.89200  0.75000  1.0000
  K   K1        1.0  0.37000  0.63000  0.25000  1.0000
  K   K2        1.0  0.63000  0.37000  0.75000  1.0000
  O   O1        1.0  0.26200  0.12600  0.22300  1.0000
  O   O2        1.0  0.87400  0.73800  0.27700  1.0000
  O   O3        1.0  0.12600  0.26200  0.72300  1.0000
  O   O4        1.0  0.73800  0.87400  0.77700  1.0000
