data_image0
_chemical_formula_structural       B2H8KNa
_chemical_formula_sum              "B2 H8 K1 Na1"
_cell_length_a       4.58961
_cell_length_b       4.58964
_cell_length_c       7.11607
_cell_angle_alpha    90
_cell_angle_beta     89.9968
_cell_angle_gamma    120

_space_group_name_H-M_alt    "P 1"
_space_group_IT_number       1

loop_
  _space_group_symop_operation_xyz
  'x, y, z'

loop_
  _atom_site_type_symbol
  _atom_site_label
  _atom_site_symmetry_multiplicity
  _atom_site_fract_x
  _atom_site_fract_y
  _atom_site_fract_z
  _atom_site_occupancy
  B   B1        1.0  0.33300  0.66700  0.33900  1.0000
  B   B2        1.0  0.66700  0.33300  0.85000  1.0000
  H   H1        1.0  0.66700  0.33300  0.02160  1.0000
  H   H2        1.0  0.33300  0.66700  0.16700  1.0000
  H   H3        1.0  0.04110  0.52100  0.39500  1.0000
  H   H4        1.0  0.47900  0.52100  0.39500  1.0000
  H   H5        1.0  0.47900  0.95900  0.39500  1.0000
  H   H6        1.0  0.37500  0.18800  0.79100  1.0000
  H   H7        1.0  0.81200  0.18800  0.79100  1.0000
  H   H8        1.0  0.81200  0.62500  0.79100  1.0000
  K   K1        1.0  0.00003  0.00001  0.15500  1.0000
  Na  Na1       1.0  0.33300  0.66700  0.69300  1.0000
