data_image0
_chemical_formula_structural       CrKP2S7
_chemical_formula_sum              "Cr1 K1 P2 S7"
_cell_length_a       6.40926
_cell_length_b       6.46459
_cell_length_c       6.46459
_cell_angle_alpha    96.7641
_cell_angle_beta     95.1515
_cell_angle_gamma    95.1515

_space_group_name_H-M_alt    "P 1"
_space_group_IT_number       1

loop_
  _space_group_symop_operation_xyz
  'x, y, z'

loop_
  _atom_site_type_symbol
  _atom_site_label
  _atom_site_symmetry_multiplicity
  _atom_site_fract_x
  _atom_site_fract_y
  _atom_site_fract_z
  _atom_site_occupancy
  Cr  Cr1       1.0  0.00000  0.49900  0.50100  1.0000
  K   K1        1.0  0.50000  0.90300  0.09730  1.0000
  P   P1        1.0  0.07790  0.35700  0.04960  1.0000
  P   P2        1.0  0.92200  0.95000  0.64300  1.0000
  S   S1        1.0  0.82400  0.49000  0.15100  1.0000
  S   S2        1.0  0.27900  0.36900  0.31300  1.0000
  S   S3        1.0  0.17600  0.84900  0.51000  1.0000
  S   S4        1.0  0.77500  0.18100  0.52500  1.0000
  S   S5        1.0  0.72100  0.68700  0.63100  1.0000
  S   S6        1.0  0.22500  0.47500  0.81900  1.0000
  S   S7        1.0  0.00000  0.02400  0.97600  1.0000
