data_image0
_chemical_formula_structural       Rh3Se8
_chemical_formula_sum              "Rh3 Se8"
_cell_length_a       6.02652
_cell_length_b       6.02652
_cell_length_c       6.02652
_cell_angle_alpha    90.8611
_cell_angle_beta     90.8611
_cell_angle_gamma    90.8611

_space_group_name_H-M_alt    "P 1"
_space_group_IT_number       1

loop_
  _space_group_symop_operation_xyz
  'x, y, z'

loop_
  _atom_site_type_symbol
  _atom_site_label
  _atom_site_symmetry_multiplicity
  _atom_site_fract_x
  _atom_site_fract_y
  _atom_site_fract_z
  _atom_site_occupancy
  Rh  Rh1       1.0  0.50000  0.50000  0.00000  1.0000
  Rh  Rh2       1.0  0.50000  0.00000  0.50000  1.0000
  Rh  Rh3       1.0  0.00000  0.50000  0.50000  1.0000
  Se  Se1       1.0  0.88200  0.38100  0.11300  1.0000
  Se  Se2       1.0  0.61900  0.88700  0.11800  1.0000
  Se  Se3       1.0  0.37800  0.37800  0.37800  1.0000
  Se  Se4       1.0  0.11300  0.88200  0.38100  1.0000
  Se  Se5       1.0  0.88700  0.11800  0.61900  1.0000
  Se  Se6       1.0  0.62200  0.62200  0.62200  1.0000
  Se  Se7       1.0  0.38100  0.11300  0.88200  1.0000
  Se  Se8       1.0  0.11800  0.61900  0.88700  1.0000
