data_image0
_chemical_formula_structural       Cs2Cu2O4
_chemical_formula_sum              "Cs2 Cu2 O4"
_cell_length_a       5.16892
_cell_length_b       5.43347
_cell_length_c       6.57204
_cell_angle_alpha    90
_cell_angle_beta     66.8431
_cell_angle_gamma    90

_space_group_name_H-M_alt    "P 1"
_space_group_IT_number       1

loop_
  _space_group_symop_operation_xyz
  'x, y, z'

loop_
  _atom_site_type_symbol
  _atom_site_label
  _atom_site_symmetry_multiplicity
  _atom_site_fract_x
  _atom_site_fract_y
  _atom_site_fract_z
  _atom_site_occupancy
  Cs  Cs1       1.0  0.31600  0.75000  0.36700  1.0000
  Cs  Cs2       1.0  0.68400  0.25000  0.63300  1.0000
  Cu  Cu1       1.0  0.00233  0.75000  0.99500  1.0000
  Cu  Cu2       1.0  0.99800  0.25000  0.00466  1.0000
  O   O1        1.0  0.89900  0.99600  0.20300  1.0000
  O   O2        1.0  0.89900  0.50400  0.20300  1.0000
  O   O3        1.0  0.10100  0.00410  0.79700  1.0000
  O   O4        1.0  0.10100  0.49600  0.79700  1.0000
