data_image0
_chemical_formula_structural       B16C16Mg8
_chemical_formula_sum              "B16 C16 Mg8"
_cell_length_a       7.21795
_cell_length_b       7.21795
_cell_length_c       7.41195
_cell_angle_alpha    90
_cell_angle_beta     90
_cell_angle_gamma    98.1927

_space_group_name_H-M_alt    "P 1"
_space_group_IT_number       1

loop_
  _space_group_symop_operation_xyz
  'x, y, z'

loop_
  _atom_site_type_symbol
  _atom_site_label
  _atom_site_symmetry_multiplicity
  _atom_site_fract_x
  _atom_site_fract_y
  _atom_site_fract_z
  _atom_site_occupancy
  B   B1        1.0  0.91100  0.91100  0.22300  1.0000
  B   B2        1.0  0.78600  0.53100  0.24400  1.0000
  B   B3        1.0  0.53100  0.78600  0.24400  1.0000
  B   B4        1.0  0.65600  0.15600  0.25000  1.0000
  B   B5        1.0  0.15600  0.65600  0.25000  1.0000
  B   B6        1.0  0.28600  0.03120  0.25600  1.0000
  B   B7        1.0  0.03120  0.28600  0.25600  1.0000
  B   B8        1.0  0.41100  0.41100  0.27700  1.0000
  B   B9        1.0  0.58900  0.58900  0.72300  1.0000
  B   B10       1.0  0.96900  0.71400  0.74400  1.0000
  B   B11       1.0  0.71400  0.96900  0.74400  1.0000
  B   B12       1.0  0.84400  0.34400  0.75000  1.0000
  B   B13       1.0  0.34400  0.84400  0.75000  1.0000
  B   B14       1.0  0.46900  0.21400  0.75600  1.0000
  B   B15       1.0  0.21400  0.46900  0.75600  1.0000
  B   B16       1.0  0.08870  0.08870  0.77700  1.0000
  C   C1        1.0  0.95000  0.70000  0.22300  1.0000
  C   C2        1.0  0.70000  0.95000  0.22300  1.0000
  C   C3        1.0  0.07890  0.07890  0.23200  1.0000
  C   C4        1.0  0.82300  0.32300  0.25000  1.0000
  C   C5        1.0  0.32300  0.82300  0.25000  1.0000
  C   C6        1.0  0.57900  0.57900  0.26800  1.0000
  C   C7        1.0  0.45000  0.20000  0.27700  1.0000
  C   C8        1.0  0.20000  0.45000  0.27700  1.0000
  C   C9        1.0  0.80000  0.55000  0.72300  1.0000
  C   C10       1.0  0.55000  0.80000  0.72300  1.0000
  C   C11       1.0  0.42100  0.42100  0.73200  1.0000
  C   C12       1.0  0.67700  0.17700  0.75000  1.0000
  C   C13       1.0  0.17700  0.67700  0.75000  1.0000
  C   C14       1.0  0.92100  0.92100  0.76800  1.0000
  C   C15       1.0  0.30000  0.05050  0.77700  1.0000
  C   C16       1.0  0.05050  0.30000  0.77700  1.0000
  Mg  Mg1       1.0  0.84700  0.15300  0.00000  1.0000
  Mg  Mg2       1.0  0.15300  0.84700  0.00000  1.0000
  Mg  Mg3       1.0  0.27900  0.27900  0.01120  1.0000
  Mg  Mg4       1.0  0.77900  0.77900  0.48900  1.0000
  Mg  Mg5       1.0  0.65300  0.34700  0.50000  1.0000
  Mg  Mg6       1.0  0.34700  0.65300  0.50000  1.0000
  Mg  Mg7       1.0  0.22100  0.22100  0.51100  1.0000
  Mg  Mg8       1.0  0.72100  0.72100  0.98900  1.0000
