data_image0
_chemical_formula_structural       CeRh6Si4
_chemical_formula_sum              "Ce1 Rh6 Si4"
_cell_length_a       7.06651
_cell_length_b       7.06647
_cell_length_c       3.8328
_cell_angle_alpha    90
_cell_angle_beta     90
_cell_angle_gamma    120

_space_group_name_H-M_alt    "P 1"
_space_group_IT_number       1

loop_
  _space_group_symop_operation_xyz
  'x, y, z'

loop_
  _atom_site_type_symbol
  _atom_site_label
  _atom_site_symmetry_multiplicity
  _atom_site_fract_x
  _atom_site_fract_y
  _atom_site_fract_z
  _atom_site_occupancy
  Ce  Ce1       1.0  0.00000  0.00000  0.00000  1.0000
  Rh  Rh1       1.0  0.53300  0.06560  0.00000  1.0000
  Rh  Rh2       1.0  0.53300  0.46700  0.00000  1.0000
  Rh  Rh3       1.0  0.93400  0.46700  0.00000  1.0000
  Rh  Rh4       1.0  0.20100  0.40100  0.50000  1.0000
  Rh  Rh5       1.0  0.20100  0.79900  0.50000  1.0000
  Rh  Rh6       1.0  0.59900  0.79900  0.50000  1.0000
  Si  Si1       1.0  0.33300  0.66700  0.00000  1.0000
  Si  Si2       1.0  0.40500  0.20200  0.50000  1.0000
  Si  Si3       1.0  0.79800  0.20200  0.50000  1.0000
  Si  Si4       1.0  0.79800  0.59500  0.50000  1.0000
