data_image0
_chemical_formula_structural       As4Ba3Li4
_chemical_formula_sum              "As4 Ba3 Li4"
_cell_length_a       4.72211
_cell_length_b       7.18783
_cell_length_c       8.95693
_cell_angle_alpha    113.656
_cell_angle_beta     105.284
_cell_angle_gamma    90

_space_group_name_H-M_alt    "P 1"
_space_group_IT_number       1

loop_
  _space_group_symop_operation_xyz
  'x, y, z'

loop_
  _atom_site_type_symbol
  _atom_site_label
  _atom_site_symmetry_multiplicity
  _atom_site_fract_x
  _atom_site_fract_y
  _atom_site_fract_z
  _atom_site_occupancy
  As  As1       1.0  0.50000  0.32500  0.00000  1.0000
  As  As2       1.0  0.50000  0.67500  0.00000  1.0000
  As  As3       1.0  0.21300  0.21300  0.42600  1.0000
  As  As4       1.0  0.78700  0.78700  0.57400  1.0000
  Ba  Ba1       1.0  0.00000  0.00000  0.00000  1.0000
  Ba  Ba2       1.0  0.13100  0.63100  0.26300  1.0000
  Ba  Ba3       1.0  0.86900  0.36900  0.73700  1.0000
  Li  Li1       1.0  0.67800  0.37300  0.35600  1.0000
  Li  Li2       1.0  0.67800  0.98300  0.35600  1.0000
  Li  Li3       1.0  0.32200  0.01740  0.64400  1.0000
  Li  Li4       1.0  0.32200  0.62700  0.64400  1.0000
