data_image0
_chemical_formula_structural       B4Eu2Rh5
_chemical_formula_sum              "B4 Eu2 Rh5"
_cell_length_a       5.52733
_cell_length_b       5.66613
_cell_length_c       6.27322
_cell_angle_alpha    102.408
_cell_angle_beta     116.139
_cell_angle_gamma    60.8071

_space_group_name_H-M_alt    "P 1"
_space_group_IT_number       1

loop_
  _space_group_symop_operation_xyz
  'x, y, z'

loop_
  _atom_site_type_symbol
  _atom_site_label
  _atom_site_symmetry_multiplicity
  _atom_site_fract_x
  _atom_site_fract_y
  _atom_site_fract_z
  _atom_site_occupancy
  B   B1        1.0  0.46800  0.32300  0.25900  1.0000
  B   B2        1.0  0.79100  0.67700  0.25900  1.0000
  B   B3        1.0  0.20900  0.32300  0.74100  1.0000
  B   B4        1.0  0.53200  0.67700  0.74100  1.0000
  Eu  Eu1       1.0  0.14200  0.00000  0.28400  1.0000
  Eu  Eu2       1.0  0.85800  0.00000  0.71600  1.0000
  Rh  Rh1       1.0  0.50000  0.00000  0.00000  1.0000
  Rh  Rh2       1.0  0.00000  0.50000  0.00000  1.0000
  Rh  Rh3       1.0  0.50000  0.50000  0.00000  1.0000
  Rh  Rh4       1.0  0.25000  0.50000  0.50000  1.0000
  Rh  Rh5       1.0  0.75000  0.50000  0.50000  1.0000
