data_image0
_chemical_formula_structural       Lu7Ni2Te2
_chemical_formula_sum              "Lu7 Ni2 Te2"
_cell_length_a       3.79542
_cell_length_b       9.13642
_cell_length_c       9.13642
_cell_angle_alpha    112.743
_cell_angle_beta     101.988
_cell_angle_gamma    101.988

_space_group_name_H-M_alt    "P 1"
_space_group_IT_number       1

loop_
  _space_group_symop_operation_xyz
  'x, y, z'

loop_
  _atom_site_type_symbol
  _atom_site_label
  _atom_site_symmetry_multiplicity
  _atom_site_fract_x
  _atom_site_fract_y
  _atom_site_fract_z
  _atom_site_occupancy
  Lu  Lu1       1.0  0.00060  0.00060  0.00060  1.0000
  Lu  Lu2       1.0  0.37700  0.69100  0.06240  1.0000
  Lu  Lu3       1.0  0.72900  0.37600  0.08250  1.0000
  Lu  Lu4       1.0  0.72900  0.08250  0.37600  1.0000
  Lu  Lu5       1.0  0.58200  0.71700  0.44700  1.0000
  Lu  Lu6       1.0  0.37700  0.06240  0.69100  1.0000
  Lu  Lu7       1.0  0.58200  0.44700  0.71700  1.0000
  Ni  Ni1       1.0  0.06920  0.83300  0.30500  1.0000
  Ni  Ni2       1.0  0.06920  0.30500  0.83300  1.0000
  Te  Te1       1.0  0.33900  0.33900  0.33900  1.0000
  Te  Te2       1.0  0.23300  0.73300  0.73300  1.0000
