data_image0
_chemical_formula_structural       Hg2P2S7
_chemical_formula_sum              "Hg2 P2 S7"
_cell_length_a       5.94893
_cell_length_b       6.29253
_cell_length_c       8.3057
_cell_angle_alpha    102.284
_cell_angle_beta     90
_cell_angle_gamma    118.21

_space_group_name_H-M_alt    "P 1"
_space_group_IT_number       1

loop_
  _space_group_symop_operation_xyz
  'x, y, z'

loop_
  _atom_site_type_symbol
  _atom_site_label
  _atom_site_symmetry_multiplicity
  _atom_site_fract_x
  _atom_site_fract_y
  _atom_site_fract_z
  _atom_site_occupancy
  Hg  Hg1       1.0  0.21000  0.42000  0.19600  1.0000
  Hg  Hg2       1.0  0.79000  0.58000  0.80400  1.0000
  P   P1        1.0  0.91100  0.82600  0.29500  1.0000
  P   P2        1.0  0.08450  0.17400  0.70500  1.0000
  S   S1        1.0  0.62600  0.74800  0.11300  1.0000
  S   S2        1.0  0.25800  0.05310  0.23700  1.0000
  S   S3        1.0  0.89400  0.52200  0.35500  1.0000
  S   S4        1.0  0.78500  1.00000  0.50000  1.0000
  S   S5        1.0  0.37200  0.47800  0.64500  1.0000
  S   S6        1.0  0.20500  0.94700  0.76300  1.0000
  S   S7        1.0  0.87800  0.25200  0.88700  1.0000
