data_image0
_chemical_formula_structural       FeH8Mg2Sr
_chemical_formula_sum              "Fe1 H8 Mg2 Sr1"
_cell_length_a       4.43839
_cell_length_b       4.43839
_cell_length_c       6.46938
_cell_angle_alpha    90
_cell_angle_beta     90.0004
_cell_angle_gamma    120

_space_group_name_H-M_alt    "P 1"
_space_group_IT_number       1

loop_
  _space_group_symop_operation_xyz
  'x, y, z'

loop_
  _atom_site_type_symbol
  _atom_site_label
  _atom_site_symmetry_multiplicity
  _atom_site_fract_x
  _atom_site_fract_y
  _atom_site_fract_z
  _atom_site_occupancy
  Fe  Fe1       1.0  0.00000  0.00000  0.00000  1.0000
  H   H1        1.0  0.83700  0.16300  0.14600  1.0000
  H   H2        1.0  0.83700  0.67400  0.14600  1.0000
  H   H3        1.0  0.32600  0.16300  0.14600  1.0000
  H   H4        1.0  0.33300  0.66700  0.41800  1.0000
  H   H5        1.0  0.66700  0.33300  0.58200  1.0000
  H   H6        1.0  0.67400  0.83700  0.85400  1.0000
  H   H7        1.0  0.16300  0.83700  0.85400  1.0000
  H   H8        1.0  0.16300  0.32600  0.85400  1.0000
  Mg  Mg1       1.0  0.33300  0.66700  0.12400  1.0000
  Mg  Mg2       1.0  0.66700  0.33300  0.87600  1.0000
  Sr  Sr1       1.0  0.00000  1.00000  0.50000  1.0000
