data_image0
_chemical_formula_structural       Pu2Si4
_chemical_formula_sum              "Pu2 Si4"
_cell_length_a       3.99475
_cell_length_b       3.99475
_cell_length_c       7.57719
_cell_angle_alpha    105.284
_cell_angle_beta     105.284
_cell_angle_gamma    90

_space_group_name_H-M_alt    "P 1"
_space_group_IT_number       1

loop_
  _space_group_symop_operation_xyz
  'x, y, z'

loop_
  _atom_site_type_symbol
  _atom_site_label
  _atom_site_symmetry_multiplicity
  _atom_site_fract_x
  _atom_site_fract_y
  _atom_site_fract_z
  _atom_site_occupancy
  Pu  Pu1       1.0  0.00000  0.00000  0.00000  1.0000
  Pu  Pu2       1.0  0.25000  0.75000  0.50000  1.0000
  Si  Si1       1.0  0.58300  0.58300  0.16500  1.0000
  Si  Si2       1.0  0.66700  0.16700  0.33500  1.0000
  Si  Si3       1.0  0.83300  0.33300  0.66500  1.0000
  Si  Si4       1.0  0.41700  0.41700  0.83500  1.0000
