data_image0
_chemical_formula_structural       Li5O5Sb
_chemical_formula_sum              "Li5 O5 Sb1"
_cell_length_a       4.01428
_cell_length_b       5.23712
_cell_length_c       5.78939
_cell_angle_alpha    107.347
_cell_angle_beta     90
_cell_angle_gamma    112.535

_space_group_name_H-M_alt    "P 1"
_space_group_IT_number       1

loop_
  _space_group_symop_operation_xyz
  'x, y, z'

loop_
  _atom_site_type_symbol
  _atom_site_label
  _atom_site_symmetry_multiplicity
  _atom_site_fract_x
  _atom_site_fract_y
  _atom_site_fract_z
  _atom_site_occupancy
  Li  Li1       1.0  0.31200  0.62500  0.14300  1.0000
  Li  Li2       1.0  0.71000  0.41900  0.34200  1.0000
  Li  Li3       1.0  0.00000  0.00000  0.50000  1.0000
  Li  Li4       1.0  0.29000  0.58100  0.65800  1.0000
  Li  Li5       1.0  0.68800  0.37500  0.85700  1.0000
  O   O1        1.0  0.50000  0.00000  0.00000  1.0000
  O   O2        1.0  0.85400  0.70900  0.17400  1.0000
  O   O3        1.0  0.15700  0.31500  0.32000  1.0000
  O   O4        1.0  0.84300  0.68500  0.68000  1.0000
  O   O5        1.0  0.14600  0.29100  0.82600  1.0000
  Sb  Sb1       1.0  0.00000  0.00000  0.00000  1.0000
