data_image0
_chemical_formula_structural       H8Mg2Sr2
_chemical_formula_sum              "H8 Mg2 Sr2"
_cell_length_a       3.92859
_cell_length_b       5.49127
_cell_length_c       6.89804
_cell_angle_alpha    90
_cell_angle_beta     73.4554
_cell_angle_gamma    90

_space_group_name_H-M_alt    "P 1"
_space_group_IT_number       1

loop_
  _space_group_symop_operation_xyz
  'x, y, z'

loop_
  _atom_site_type_symbol
  _atom_site_label
  _atom_site_symmetry_multiplicity
  _atom_site_fract_x
  _atom_site_fract_y
  _atom_site_fract_z
  _atom_site_occupancy
  H   H1        1.0  0.46000  0.86600  0.08010  1.0000
  H   H2        1.0  0.92800  0.18000  0.14500  1.0000
  H   H3        1.0  0.33100  0.48700  0.33700  1.0000
  H   H4        1.0  0.29800  0.00405  0.40300  1.0000
  H   H5        1.0  0.70200  0.50400  0.59700  1.0000
  H   H6        1.0  0.66900  0.98700  0.66300  1.0000
  H   H7        1.0  0.07250  0.68000  0.85500  1.0000
  H   H8        1.0  0.54000  0.36600  0.92000  1.0000
  Mg  Mg1       1.0  0.41500  0.21100  0.17100  1.0000
  Mg  Mg2       1.0  0.58500  0.71100  0.82900  1.0000
  Sr  Sr1       1.0  0.85000  0.75300  0.30000  1.0000
  Sr  Sr2       1.0  0.15000  0.25300  0.70000  1.0000
