data_image0
_chemical_formula_structural       AlAs2LiO7
_chemical_formula_sum              "Al1 As2 Li1 O7"
_cell_length_a       4.65709
_cell_length_b       5.17137
_cell_length_c       5.17137
_cell_angle_alpha    101.265
_cell_angle_beta     98.7925
_cell_angle_gamma    98.7925

_space_group_name_H-M_alt    "P 1"
_space_group_IT_number       1

loop_
  _space_group_symop_operation_xyz
  'x, y, z'

loop_
  _atom_site_type_symbol
  _atom_site_label
  _atom_site_symmetry_multiplicity
  _atom_site_fract_x
  _atom_site_fract_y
  _atom_site_fract_z
  _atom_site_occupancy
  Al  Al1       1.0  0.50000  0.62200  0.37800  1.0000
  As  As1       1.0  0.90700  0.18200  0.25300  1.0000
  As  As2       1.0  0.09350  0.74700  0.81800  1.0000
  Li  Li1       1.0  0.50000  0.24500  0.75500  1.0000
  O   O1        1.0  0.23500  0.62200  0.07510  1.0000
  O   O2        1.0  0.65500  0.36300  0.14500  1.0000
  O   O3        1.0  0.76500  0.92500  0.37800  1.0000
  O   O4        1.0  0.23300  0.34100  0.45900  1.0000
  O   O5        1.0  0.34500  0.85500  0.63700  1.0000
  O   O6        1.0  0.76700  0.54100  0.65900  1.0000
  O   O7        1.0  0.00000  0.06240  0.93800  1.0000
