data_image0
_chemical_formula_structural       C2MgNa2O6
_chemical_formula_sum              "C2 Mg1 Na2 O6"
_cell_length_a       4.9267
_cell_length_b       4.9267
_cell_length_c       6.07612
_cell_angle_alpha    113.917
_cell_angle_beta     66.0829
_cell_angle_gamma    120

_space_group_name_H-M_alt    "P 1"
_space_group_IT_number       1

loop_
  _space_group_symop_operation_xyz
  'x, y, z'

loop_
  _atom_site_type_symbol
  _atom_site_label
  _atom_site_symmetry_multiplicity
  _atom_site_fract_x
  _atom_site_fract_y
  _atom_site_fract_z
  _atom_site_occupancy
  C   C1        1.0  0.59000  0.41000  0.22900  1.0000
  C   C2        1.0  0.41000  0.59000  0.77100  1.0000
  Mg  Mg1       1.0  0.00000  0.00000  0.00000  1.0000
  Na  Na1       1.0  0.20000  0.80000  0.40100  1.0000
  Na  Na2       1.0  0.80000  0.20000  0.59900  1.0000
  O   O1        1.0  0.80500  0.70400  0.23300  1.0000
  O   O2        1.0  0.29600  0.33500  0.23300  1.0000
  O   O3        1.0  0.66500  0.19500  0.23300  1.0000
  O   O4        1.0  0.33500  0.80500  0.76700  1.0000
  O   O5        1.0  0.70400  0.66500  0.76700  1.0000
  O   O6        1.0  0.19500  0.29600  0.76700  1.0000
