data_image0
_chemical_formula_structural       B2Ba2MgO6
_chemical_formula_sum              "B2 Ba2 Mg1 O6"
_cell_length_a       5.35444
_cell_length_b       5.35444
_cell_length_c       6.2807
_cell_angle_alpha    64.7694
_cell_angle_beta     115.231
_cell_angle_gamma    120

_space_group_name_H-M_alt    "P 1"
_space_group_IT_number       1

loop_
  _space_group_symop_operation_xyz
  'x, y, z'

loop_
  _atom_site_type_symbol
  _atom_site_label
  _atom_site_symmetry_multiplicity
  _atom_site_fract_x
  _atom_site_fract_y
  _atom_site_fract_z
  _atom_site_occupancy
  B   B1        1.0  0.41000  0.59000  0.23100  1.0000
  B   B2        1.0  0.59000  0.41000  0.76900  1.0000
  Ba  Ba1       1.0  0.77600  0.22400  0.32900  1.0000
  Ba  Ba2       1.0  0.22400  0.77600  0.67100  1.0000
  Mg  Mg1       1.0  0.00000  0.00000  0.00000  1.0000
  O   O1        1.0  0.25900  0.29100  0.22800  1.0000
  O   O2        1.0  0.25900  0.74100  0.22800  1.0000
  O   O3        1.0  0.70900  0.74100  0.22800  1.0000
  O   O4        1.0  0.29100  0.25900  0.77200  1.0000
  O   O5        1.0  0.74100  0.25900  0.77200  1.0000
  O   O6        1.0  0.74100  0.70900  0.77200  1.0000
