data_image0
_chemical_formula_structural       Cu4Sn4Tb3
_chemical_formula_sum              "Cu4 Sn4 Tb3"
_cell_length_a       4.47489
_cell_length_b       6.95016
_cell_length_c       8.44967
_cell_angle_alpha    114.285
_cell_angle_beta     105.355
_cell_angle_gamma    90

_space_group_name_H-M_alt    "P 1"
_space_group_IT_number       1

loop_
  _space_group_symop_operation_xyz
  'x, y, z'

loop_
  _atom_site_type_symbol
  _atom_site_label
  _atom_site_symmetry_multiplicity
  _atom_site_fract_x
  _atom_site_fract_y
  _atom_site_fract_z
  _atom_site_occupancy
  Cu  Cu1       1.0  0.67000  0.35800  0.34000  1.0000
  Cu  Cu2       1.0  0.67000  0.98300  0.34000  1.0000
  Cu  Cu3       1.0  0.33000  0.01740  0.66000  1.0000
  Cu  Cu4       1.0  0.33000  0.64200  0.66000  1.0000
  Sn  Sn1       1.0  0.50000  0.29800  0.00000  1.0000
  Sn  Sn2       1.0  0.50000  0.70200  0.00000  1.0000
  Sn  Sn3       1.0  0.21600  0.21600  0.43200  1.0000
  Sn  Sn4       1.0  0.78400  0.78400  0.56800  1.0000
  Tb  Tb1       1.0  0.00000  0.00000  0.00000  1.0000
  Tb  Tb2       1.0  0.13100  0.63100  0.26300  1.0000
  Tb  Tb3       1.0  0.86900  0.36900  0.73700  1.0000
