data_image0
_chemical_formula_structural       O5Pr2S2Ti2
_chemical_formula_sum              "O5 Pr2 S2 Ti2"
_cell_length_a       3.87658
_cell_length_b       3.87658
_cell_length_c       11.8866
_cell_angle_alpha    99.3849
_cell_angle_beta     99.3849
_cell_angle_gamma    90

_space_group_name_H-M_alt    "P 1"
_space_group_IT_number       1

loop_
  _space_group_symop_operation_xyz
  'x, y, z'

loop_
  _atom_site_type_symbol
  _atom_site_label
  _atom_site_symmetry_multiplicity
  _atom_site_fract_x
  _atom_site_fract_y
  _atom_site_fract_z
  _atom_site_occupancy
  O   O1        1.0  0.00000  0.00000  0.00000  1.0000
  O   O2        1.0  0.59600  0.09640  0.19300  1.0000
  O   O3        1.0  0.09640  0.59600  0.19300  1.0000
  O   O4        1.0  0.90400  0.40400  0.80700  1.0000
  O   O5        1.0  0.40400  0.90400  0.80700  1.0000
  Pr  Pr1       1.0  0.66600  0.66600  0.33200  1.0000
  Pr  Pr2       1.0  0.33400  0.33400  0.66800  1.0000
  S   S1        1.0  0.20400  0.20400  0.40700  1.0000
  S   S2        1.0  0.79600  0.79600  0.59300  1.0000
  Ti  Ti1       1.0  0.07830  0.07830  0.15700  1.0000
  Ti  Ti2       1.0  0.92200  0.92200  0.84300  1.0000
