data_image0
_chemical_formula_structural       Ge3IrLa
_chemical_formula_sum              "Ge3 Ir1 La1"
_cell_length_a       4.46749
_cell_length_b       4.46749
_cell_length_c       5.97511
_cell_angle_alpha    111.953
_cell_angle_beta     111.953
_cell_angle_gamma    90

_space_group_name_H-M_alt    "P 1"
_space_group_IT_number       1

loop_
  _space_group_symop_operation_xyz
  'x, y, z'

loop_
  _atom_site_type_symbol
  _atom_site_label
  _atom_site_symmetry_multiplicity
  _atom_site_fract_x
  _atom_site_fract_y
  _atom_site_fract_z
  _atom_site_occupancy
  Ge  Ge1       1.0  0.00000  0.00000  0.99900  1.0000
  Ge  Ge2       1.0  0.84300  0.34300  0.68500  1.0000
  Ge  Ge3       1.0  0.34300  0.84300  0.68500  1.0000
  Ir  Ir1       1.0  0.23800  0.23800  0.47600  1.0000
  La  La1       1.0  0.58000  0.58000  0.16000  1.0000
