data_image0
_chemical_formula_structural       Lu7Pd2Te2
_chemical_formula_sum              "Lu7 Pd2 Te2"
_cell_length_a       3.89223
_cell_length_b       9.21029
_cell_length_c       9.21029
_cell_angle_alpha    112.394
_cell_angle_beta     102.198
_cell_angle_gamma    102.198

_space_group_name_H-M_alt    "P 1"
_space_group_IT_number       1

loop_
  _space_group_symop_operation_xyz
  'x, y, z'

loop_
  _atom_site_type_symbol
  _atom_site_label
  _atom_site_symmetry_multiplicity
  _atom_site_fract_x
  _atom_site_fract_y
  _atom_site_fract_z
  _atom_site_occupancy
  Lu  Lu1       1.0  0.00048  0.00048  0.00048  1.0000
  Lu  Lu2       1.0  0.41700  0.54800  0.28600  1.0000
  Lu  Lu3       1.0  0.62700  0.94300  0.31000  1.0000
  Lu  Lu4       1.0  0.41700  0.28600  0.54800  1.0000
  Lu  Lu5       1.0  0.26600  0.91000  0.62200  1.0000
  Lu  Lu6       1.0  0.26600  0.62200  0.91000  1.0000
  Lu  Lu7       1.0  0.62700  0.31000  0.94300  1.0000
  Pd  Pd1       1.0  0.93200  0.69600  0.16800  1.0000
  Pd  Pd2       1.0  0.93200  0.16800  0.69600  1.0000
  Te  Te1       1.0  0.76700  0.26700  0.26700  1.0000
  Te  Te2       1.0  0.66100  0.66100  0.66100  1.0000
