data_image0
_chemical_formula_structural       BiLi5O5
_chemical_formula_sum              "Bi1 Li5 O5"
_cell_length_a       4.19298
_cell_length_b       5.33967
_cell_length_c       5.9297
_cell_angle_alpha    107.605
_cell_angle_beta     90
_cell_angle_gamma    113.118

_space_group_name_H-M_alt    "P 1"
_space_group_IT_number       1

loop_
  _space_group_symop_operation_xyz
  'x, y, z'

loop_
  _atom_site_type_symbol
  _atom_site_label
  _atom_site_symmetry_multiplicity
  _atom_site_fract_x
  _atom_site_fract_y
  _atom_site_fract_z
  _atom_site_occupancy
  Bi  Bi1       1.0  0.99400  0.98800  0.01560  1.0000
  Li  Li1       1.0  0.30700  0.61300  0.15800  1.0000
  Li  Li2       1.0  0.70000  0.40000  0.35500  1.0000
  Li  Li3       1.0  0.99300  0.98600  0.51600  1.0000
  Li  Li4       1.0  0.28600  0.57100  0.67200  1.0000
  Li  Li5       1.0  0.68200  0.36400  0.87200  1.0000
  O   O1        1.0  0.49500  0.99000  0.02020  1.0000
  O   O2        1.0  0.84300  0.68600  0.19500  1.0000
  O   O3        1.0  0.15800  0.31500  0.34500  1.0000
  O   O4        1.0  0.83100  0.66200  0.68600  1.0000
  O   O5        1.0  0.14400  0.28900  0.83600  1.0000
