data_image0
_chemical_formula_structural       Al4C5Zr2
_chemical_formula_sum              "Al4 C5 Zr2"
_cell_length_a       3.34982
_cell_length_b       3.34982
_cell_length_c       13.8394
_cell_angle_alpha    90
_cell_angle_beta     96.9513
_cell_angle_gamma    60

_space_group_name_H-M_alt    "P 1"
_space_group_IT_number       1

loop_
  _space_group_symop_operation_xyz
  'x, y, z'

loop_
  _atom_site_type_symbol
  _atom_site_label
  _atom_site_symmetry_multiplicity
  _atom_site_fract_x
  _atom_site_fract_y
  _atom_site_fract_z
  _atom_site_occupancy
  Al  Al1       1.0  0.70500  0.64800  0.05720  1.0000
  Al  Al2       1.0  0.14800  0.92600  0.22300  1.0000
  Al  Al3       1.0  0.90600  0.54700  0.35800  1.0000
  Al  Al4       1.0  0.34900  0.82500  0.52400  1.0000
  C   C1        1.0  0.99500  0.00241  0.99300  1.0000
  C   C2        1.0  0.80000  0.60000  0.19900  1.0000
  C   C3        1.0  0.25500  0.87300  0.38200  1.0000
  C   C4        1.0  0.05910  0.47000  0.58900  1.0000
  C   C5        1.0  0.52700  0.73600  0.79100  1.0000
  Zr  Zr1       1.0  0.79500  0.10300  0.69200  1.0000
  Zr  Zr2       1.0  0.26000  0.37000  0.89000  1.0000
