data_image0
_chemical_formula_structural       Si2W
_chemical_formula_sum              "Si2 W1"
_cell_length_a       3.2296
_cell_length_b       3.2296
_cell_length_c       4.54589
_cell_angle_alpha    110.807
_cell_angle_beta     110.807
_cell_angle_gamma    90

_space_group_name_H-M_alt    "P 1"
_space_group_IT_number       1

loop_
  _space_group_symop_operation_xyz
  'x, y, z'

loop_
  _atom_site_type_symbol
  _atom_site_label
  _atom_site_symmetry_multiplicity
  _atom_site_fract_x
  _atom_site_fract_y
  _atom_site_fract_z
  _atom_site_occupancy
  Si  Si1       1.0  0.66600  0.66600  0.33100  1.0000
  Si  Si2       1.0  0.33400  0.33400  0.66900  1.0000
  W   W1        1.0  0.00000  0.00000  0.00000  1.0000
