data_image0
_chemical_formula_structural       Ge4Pd4Yb3
_chemical_formula_sum              "Ge4 Pd4 Yb3"
_cell_length_a       4.19875
_cell_length_b       7.16274
_cell_length_c       8.0711
_cell_angle_alpha    116.342
_cell_angle_beta     105.077
_cell_angle_gamma    90

_space_group_name_H-M_alt    "P 1"
_space_group_IT_number       1

loop_
  _space_group_symop_operation_xyz
  'x, y, z'

loop_
  _atom_site_type_symbol
  _atom_site_label
  _atom_site_symmetry_multiplicity
  _atom_site_fract_x
  _atom_site_fract_y
  _atom_site_fract_z
  _atom_site_occupancy
  Ge  Ge1       1.0  0.50000  0.32300  0.00000  1.0000
  Ge  Ge2       1.0  0.50000  0.67700  0.00000  1.0000
  Ge  Ge3       1.0  0.22100  0.22100  0.44200  1.0000
  Ge  Ge4       1.0  0.77900  0.77900  0.55800  1.0000
  Pd  Pd1       1.0  0.67400  0.37300  0.34900  1.0000
  Pd  Pd2       1.0  0.67400  0.97600  0.34900  1.0000
  Pd  Pd3       1.0  0.32600  0.02440  0.65100  1.0000
  Pd  Pd4       1.0  0.32600  0.62700  0.65100  1.0000
  Yb  Yb1       1.0  0.00000  0.00000  0.00000  1.0000
  Yb  Yb2       1.0  0.12700  0.62700  0.25400  1.0000
  Yb  Yb3       1.0  0.87300  0.37300  0.74600  1.0000
