data_image0
_chemical_formula_structural       Ga3O7P
_chemical_formula_sum              "Ga3 O7 P1"
_cell_length_a       5.08785
_cell_length_b       5.08785
_cell_length_c       5.08785
_cell_angle_alpha    101.963
_cell_angle_beta     101.963
_cell_angle_gamma    101.963

_space_group_name_H-M_alt    "P 1"
_space_group_IT_number       1

loop_
  _space_group_symop_operation_xyz
  'x, y, z'

loop_
  _atom_site_type_symbol
  _atom_site_label
  _atom_site_symmetry_multiplicity
  _atom_site_fract_x
  _atom_site_fract_y
  _atom_site_fract_z
  _atom_site_occupancy
  Ga  Ga1       1.0  0.85000  0.46000  0.46000  1.0000
  Ga  Ga2       1.0  0.46000  0.85000  0.46000  1.0000
  Ga  Ga3       1.0  0.46000  0.46000  0.85000  1.0000
  O   O1        1.0  0.84300  0.16500  0.16500  1.0000
  O   O2        1.0  0.16500  0.84300  0.16500  1.0000
  O   O3        1.0  0.61200  0.61200  0.23200  1.0000
  O   O4        1.0  0.61200  0.23200  0.61200  1.0000
  O   O5        1.0  0.23200  0.61200  0.61200  1.0000
  O   O6        1.0  0.76500  0.76500  0.76500  1.0000
  O   O7        1.0  0.16500  0.16500  0.84300  1.0000
  P   P1        1.0  0.00043  0.00043  0.00043  1.0000
