data_image0
_chemical_formula_structural       Ca3Ga8
_chemical_formula_sum              "Ca3 Ga8"
_cell_length_a       4.30183
_cell_length_b       4.32087
_cell_length_c       13.2305
_cell_angle_alpha    99.398
_cell_angle_beta     99.3562
_cell_angle_gamma    90

_space_group_name_H-M_alt    "P 1"
_space_group_IT_number       1

loop_
  _space_group_symop_operation_xyz
  'x, y, z'

loop_
  _atom_site_type_symbol
  _atom_site_label
  _atom_site_symmetry_multiplicity
  _atom_site_fract_x
  _atom_site_fract_y
  _atom_site_fract_z
  _atom_site_occupancy
  Ca  Ca1       1.0  0.00000  0.00000  0.00000  1.0000
  Ca  Ca2       1.0  0.14600  0.64600  0.29300  1.0000
  Ca  Ca3       1.0  0.85400  0.35400  0.70700  1.0000
  Ga  Ga1       1.0  0.54800  0.54800  0.09660  1.0000
  Ga  Ga2       1.0  0.59500  0.09460  0.18900  1.0000
  Ga  Ga3       1.0  0.69100  0.19100  0.38200  1.0000
  Ga  Ga4       1.0  0.75000  0.75000  0.50000  1.0000
  Ga  Ga5       1.0  0.25000  0.25000  0.50000  1.0000
  Ga  Ga6       1.0  0.30900  0.80900  0.61800  1.0000
  Ga  Ga7       1.0  0.40500  0.90500  0.81100  1.0000
  Ga  Ga8       1.0  0.45200  0.45200  0.90300  1.0000
