data_image0
_chemical_formula_structural       Ge4Mg4Yb4
_chemical_formula_sum              "Ge4 Mg4 Yb4"
_cell_length_a       7.46631
_cell_length_b       4.4318
_cell_length_c       8.32896
_cell_angle_alpha    90
_cell_angle_beta     90
_cell_angle_gamma    90

_space_group_name_H-M_alt    "P 1"
_space_group_IT_number       1

loop_
  _space_group_symop_operation_xyz
  'x, y, z'

loop_
  _atom_site_type_symbol
  _atom_site_label
  _atom_site_symmetry_multiplicity
  _atom_site_fract_x
  _atom_site_fract_y
  _atom_site_fract_z
  _atom_site_occupancy
  Ge  Ge1       1.0  0.76800  0.25000  0.11600  1.0000
  Ge  Ge2       1.0  0.26800  0.25000  0.38400  1.0000
  Ge  Ge3       1.0  0.73200  0.75000  0.61600  1.0000
  Ge  Ge4       1.0  0.23200  0.75000  0.88400  1.0000
  Mg  Mg1       1.0  0.14400  0.25000  0.06280  1.0000
  Mg  Mg2       1.0  0.64400  0.25000  0.43700  1.0000
  Mg  Mg3       1.0  0.35600  0.75000  0.56300  1.0000
  Mg  Mg4       1.0  0.85600  0.75000  0.93700  1.0000
  Yb  Yb1       1.0  0.47900  0.75000  0.18000  1.0000
  Yb  Yb2       1.0  0.97900  0.75000  0.32000  1.0000
  Yb  Yb3       1.0  0.02060  0.25000  0.68000  1.0000
  Yb  Yb4       1.0  0.52100  0.25000  0.82000  1.0000
