data_image0
_chemical_formula_structural       Au4In6Rb
_chemical_formula_sum              "Au4 In6 Rb1"
_cell_length_a       8.18601
_cell_length_b       8.18595
_cell_length_c       4.54868
_cell_angle_alpha    90
_cell_angle_beta     90
_cell_angle_gamma    120

_space_group_name_H-M_alt    "P 1"
_space_group_IT_number       1

loop_
  _space_group_symop_operation_xyz
  'x, y, z'

loop_
  _atom_site_type_symbol
  _atom_site_label
  _atom_site_symmetry_multiplicity
  _atom_site_fract_x
  _atom_site_fract_y
  _atom_site_fract_z
  _atom_site_occupancy
  Au  Au1       1.0  0.33300  0.66700  0.00000  1.0000
  Au  Au2       1.0  0.41300  0.20700  0.50000  1.0000
  Au  Au3       1.0  0.79300  0.20700  0.50000  1.0000
  Au  Au4       1.0  0.79300  0.58700  0.50000  1.0000
  In  In1       1.0  0.53500  0.06910  0.00000  1.0000
  In  In2       1.0  0.53500  0.46500  0.00000  1.0000
  In  In3       1.0  0.93100  0.46500  0.00000  1.0000
  In  In4       1.0  0.19600  0.39300  0.50000  1.0000
  In  In5       1.0  0.19600  0.80400  0.50000  1.0000
  In  In6       1.0  0.60700  0.80400  0.50000  1.0000
  Rb  Rb1       1.0  0.00000  0.00000  0.00000  1.0000
