data_image0
_chemical_formula_structural       Ge2LuMn2
_chemical_formula_sum              "Ge2 Lu1 Mn2"
_cell_length_a       3.89818
_cell_length_b       3.89818
_cell_length_c       6.03468
_cell_angle_alpha    108.843
_cell_angle_beta     108.843
_cell_angle_gamma    90

_space_group_name_H-M_alt    "P 1"
_space_group_IT_number       1

loop_
  _space_group_symop_operation_xyz
  'x, y, z'

loop_
  _atom_site_type_symbol
  _atom_site_label
  _atom_site_symmetry_multiplicity
  _atom_site_fract_x
  _atom_site_fract_y
  _atom_site_fract_z
  _atom_site_occupancy
  Ge  Ge1       1.0  0.61800  0.61800  0.23500  1.0000
  Ge  Ge2       1.0  0.38200  0.38200  0.76500  1.0000
  Lu  Lu1       1.0  0.00000  0.00000  0.00000  1.0000
  Mn  Mn1       1.0  0.75000  0.25000  0.50000  1.0000
  Mn  Mn2       1.0  0.25000  0.75000  0.50000  1.0000
