data_image0
_chemical_formula_structural       Ba5Ga5Pb
_chemical_formula_sum              "Ba5 Ga5 Pb1"
_cell_length_a       6.08547
_cell_length_b       6.08866
_cell_length_c       10.9508
_cell_angle_alpha    90
_cell_angle_beta     90
_cell_angle_gamma    119.983

_space_group_name_H-M_alt    "P 1"
_space_group_IT_number       1

loop_
  _space_group_symop_operation_xyz
  'x, y, z'

loop_
  _atom_site_type_symbol
  _atom_site_label
  _atom_site_symmetry_multiplicity
  _atom_site_fract_x
  _atom_site_fract_y
  _atom_site_fract_z
  _atom_site_occupancy
  Ba  Ba1       1.0  0.33300  0.66600  0.00000  1.0000
  Ba  Ba2       1.0  0.66700  0.33300  0.20400  1.0000
  Ba  Ba3       1.0  0.00000  0.00000  0.33100  1.0000
  Ba  Ba4       1.0  0.00000  0.00000  0.66900  1.0000
  Ba  Ba5       1.0  0.66700  0.33300  0.79600  1.0000
  Ga  Ga1       1.0  0.33300  0.66700  0.32600  1.0000
  Ga  Ga2       1.0  0.51500  0.02990  0.50000  1.0000
  Ga  Ga3       1.0  0.51500  0.48500  0.50000  1.0000
  Ga  Ga4       1.0  0.97000  0.48500  0.50000  1.0000
  Ga  Ga5       1.0  0.33300  0.66700  0.67400  1.0000
  Pb  Pb1       1.0  0.00018  0.00037  0.00000  1.0000
