data_image0
_chemical_formula_structural       Fe2O4Y
_chemical_formula_sum              "Fe2 O4 Y1"
_cell_length_a       3.4886
_cell_length_b       3.4886
_cell_length_c       8.52865
_cell_angle_alpha    78.1985
_cell_angle_beta     101.802
_cell_angle_gamma    120

_space_group_name_H-M_alt    "P 1"
_space_group_IT_number       1

loop_
  _space_group_symop_operation_xyz
  'x, y, z'

loop_
  _atom_site_type_symbol
  _atom_site_label
  _atom_site_symmetry_multiplicity
  _atom_site_fract_x
  _atom_site_fract_y
  _atom_site_fract_z
  _atom_site_occupancy
  Fe  Fe1       1.0  0.78700  0.21300  0.36100  1.0000
  Fe  Fe2       1.0  0.21300  0.78700  0.63900  1.0000
  O   O1        1.0  0.70900  0.29100  0.12700  1.0000
  O   O2        1.0  0.12800  0.87200  0.38400  1.0000
  O   O3        1.0  0.87200  0.12800  0.61600  1.0000
  O   O4        1.0  0.29100  0.70900  0.87300  1.0000
  Y   Y1        1.0  0.00000  0.00000  0.00000  1.0000
