data_image0
_chemical_formula_structural       B2Ba2CdO6
_chemical_formula_sum              "B2 Ba2 Cd1 O6"
_cell_length_a       5.37761
_cell_length_b       5.54727
_cell_length_c       6.51492
_cell_angle_alpha    114.726
_cell_angle_beta     90
_cell_angle_gamma    118.993

_space_group_name_H-M_alt    "P 1"
_space_group_IT_number       1

loop_
  _space_group_symop_operation_xyz
  'x, y, z'

loop_
  _atom_site_type_symbol
  _atom_site_label
  _atom_site_symmetry_multiplicity
  _atom_site_fract_x
  _atom_site_fract_y
  _atom_site_fract_z
  _atom_site_occupancy
  B   B1        1.0  0.44000  0.88000  0.24200  1.0000
  B   B2        1.0  0.56000  0.12000  0.75800  1.0000
  Ba  Ba1       1.0  0.78900  0.57800  0.31400  1.0000
  Ba  Ba2       1.0  0.21100  0.42200  0.68600  1.0000
  Cd  Cd1       1.0  0.00000  0.00000  0.00000  1.0000
  O   O1        1.0  0.28100  0.56300  0.17300  1.0000
  O   O2        1.0  0.30000  0.04540  0.27700  1.0000
  O   O3        1.0  0.74500  0.04540  0.27700  1.0000
  O   O4        1.0  0.25500  0.95500  0.72300  1.0000
  O   O5        1.0  0.70000  0.95500  0.72300  1.0000
  O   O6        1.0  0.71900  0.43700  0.82700  1.0000
