data_image0
_chemical_formula_structural       H8Pt2Rb4
_chemical_formula_sum              "H8 Pt2 Rb4"
_cell_length_a       5.82672
_cell_length_b       5.82672
_cell_length_c       8.26596
_cell_angle_alpha    90
_cell_angle_beta     90
_cell_angle_gamma    90

_space_group_name_H-M_alt    "P 1"
_space_group_IT_number       1

loop_
  _space_group_symop_operation_xyz
  'x, y, z'

loop_
  _atom_site_type_symbol
  _atom_site_label
  _atom_site_symmetry_multiplicity
  _atom_site_fract_x
  _atom_site_fract_y
  _atom_site_fract_z
  _atom_site_occupancy
  H   H1        1.0  0.20200  0.20200  0.00000  1.0000
  H   H2        1.0  0.79800  0.79800  0.00000  1.0000
  H   H3        1.0  0.00000  0.00000  0.20100  1.0000
  H   H4        1.0  0.50000  0.50000  0.29900  1.0000
  H   H5        1.0  0.70200  0.29800  0.50000  1.0000
  H   H6        1.0  0.29800  0.70200  0.50000  1.0000
  H   H7        1.0  0.50000  0.50000  0.70100  1.0000
  H   H8        1.0  0.00000  0.00000  0.79900  1.0000
  Pt  Pt1       1.0  0.00000  0.00000  0.00000  1.0000
  Pt  Pt2       1.0  0.50000  0.50000  0.50000  1.0000
  Rb  Rb1       1.0  0.50000  0.00000  0.25000  1.0000
  Rb  Rb2       1.0  0.00000  0.50000  0.25000  1.0000
  Rb  Rb3       1.0  0.50000  0.00000  0.75000  1.0000
  Rb  Rb4       1.0  0.00000  0.50000  0.75000  1.0000
