data_image0
_chemical_formula_structural       H8Pd2Rb4
_chemical_formula_sum              "H8 Pd2 Rb4"
_cell_length_a       5.78439
_cell_length_b       5.78439
_cell_length_c       8.42895
_cell_angle_alpha    90
_cell_angle_beta     90
_cell_angle_gamma    90

_space_group_name_H-M_alt    "P 1"
_space_group_IT_number       1

loop_
  _space_group_symop_operation_xyz
  'x, y, z'

loop_
  _atom_site_type_symbol
  _atom_site_label
  _atom_site_symmetry_multiplicity
  _atom_site_fract_x
  _atom_site_fract_y
  _atom_site_fract_z
  _atom_site_occupancy
  H   H1        1.0  0.20400  0.20400  0.00000  1.0000
  H   H2        1.0  0.79600  0.79600  0.00000  1.0000
  H   H3        1.0  0.00000  0.00000  0.19700  1.0000
  H   H4        1.0  0.50000  0.50000  0.30300  1.0000
  H   H5        1.0  0.70400  0.29600  0.50000  1.0000
  H   H6        1.0  0.29600  0.70400  0.50000  1.0000
  H   H7        1.0  0.50000  0.50000  0.69700  1.0000
  H   H8        1.0  0.00000  0.00000  0.80300  1.0000
  Pd  Pd1       1.0  0.00000  0.00000  0.00000  1.0000
  Pd  Pd2       1.0  0.50000  0.50000  0.50000  1.0000
  Rb  Rb1       1.0  0.50000  0.00000  0.25000  1.0000
  Rb  Rb2       1.0  0.00000  0.50000  0.25000  1.0000
  Rb  Rb3       1.0  0.50000  0.00000  0.75000  1.0000
  Rb  Rb4       1.0  0.00000  0.50000  0.75000  1.0000
