data_image0
_chemical_formula_structural       C6Ca4H2Li2
_chemical_formula_sum              "C6 Ca4 H2 Li2"
_cell_length_a       6.79821
_cell_length_b       6.79821
_cell_length_c       3.74861
_cell_angle_alpha    90
_cell_angle_beta     90
_cell_angle_gamma    90

_space_group_name_H-M_alt    "P 1"
_space_group_IT_number       1

loop_
  _space_group_symop_operation_xyz
  'x, y, z'

loop_
  _atom_site_type_symbol
  _atom_site_label
  _atom_site_symmetry_multiplicity
  _atom_site_fract_x
  _atom_site_fract_y
  _atom_site_fract_z
  _atom_site_occupancy
  C   C1        1.0  0.50000  0.00000  0.00000  1.0000
  C   C2        1.0  0.63800  0.13800  0.00000  1.0000
  C   C3        1.0  0.13800  0.36200  0.00000  1.0000
  C   C4        1.0  0.00000  0.50000  0.00000  1.0000
  C   C5        1.0  0.86200  0.63800  0.00000  1.0000
  C   C6        1.0  0.36200  0.86200  0.00000  1.0000
  Ca  Ca1       1.0  0.31800  0.18200  0.50000  1.0000
  Ca  Ca2       1.0  0.81800  0.31800  0.50000  1.0000
  Ca  Ca3       1.0  0.18200  0.68200  0.50000  1.0000
  Ca  Ca4       1.0  0.68200  0.81800  0.50000  1.0000
  H   H1        1.0  0.00000  0.00000  0.50000  1.0000
  H   H2        1.0  0.50000  0.50000  0.50000  1.0000
  Li  Li1       1.0  0.00000  0.00000  0.00000  1.0000
  Li  Li2       1.0  0.50000  0.50000  0.00000  1.0000
