data_image0
_chemical_formula_structural       Cu3Gd2Sn6
_chemical_formula_sum              "Cu3 Gd2 Sn6"
_cell_length_a       4.44464
_cell_length_b       4.44464
_cell_length_c       13.1403
_cell_angle_alpha    99.7368
_cell_angle_beta     99.7368
_cell_angle_gamma    90

_space_group_name_H-M_alt    "P 1"
_space_group_IT_number       1

loop_
  _space_group_symop_operation_xyz
  'x, y, z'

loop_
  _atom_site_type_symbol
  _atom_site_label
  _atom_site_symmetry_multiplicity
  _atom_site_fract_x
  _atom_site_fract_y
  _atom_site_fract_z
  _atom_site_occupancy
  Cu  Cu1       1.0  0.76200  0.76200  0.52400  1.0000
  Cu  Cu2       1.0  0.91200  0.41200  0.82500  1.0000
  Cu  Cu3       1.0  0.41200  0.91200  0.82500  1.0000
  Gd  Gd1       1.0  0.99900  0.99900  0.99900  1.0000
  Gd  Gd2       1.0  0.31600  0.31600  0.63300  1.0000
  Sn  Sn1       1.0  0.59400  0.09370  0.18700  1.0000
  Sn  Sn2       1.0  0.09370  0.59400  0.18700  1.0000
  Sn  Sn3       1.0  0.70800  0.20800  0.41600  1.0000
  Sn  Sn4       1.0  0.20800  0.70800  0.41600  1.0000
  Sn  Sn5       1.0  0.85900  0.85900  0.71900  1.0000
  Sn  Sn6       1.0  0.47100  0.47100  0.94300  1.0000
