data_image0
_chemical_formula_structural       GdSn4Ti6
_chemical_formula_sum              "Gd1 Sn4 Ti6"
_cell_length_a       5.76348
_cell_length_b       5.76348
_cell_length_c       8.33867
_cell_angle_alpha    69.7823
_cell_angle_beta     110.218
_cell_angle_gamma    120

_space_group_name_H-M_alt    "P 1"
_space_group_IT_number       1

loop_
  _space_group_symop_operation_xyz
  'x, y, z'

loop_
  _atom_site_type_symbol
  _atom_site_label
  _atom_site_symmetry_multiplicity
  _atom_site_fract_x
  _atom_site_fract_y
  _atom_site_fract_z
  _atom_site_occupancy
  Gd  Gd1       1.0  0.00000  0.00000  0.00000  1.0000
  Sn  Sn1       1.0  0.66800  0.33200  0.00385  1.0000
  Sn  Sn2       1.0  0.12700  0.87300  0.38200  1.0000
  Sn  Sn3       1.0  0.87300  0.12700  0.61800  1.0000
  Sn  Sn4       1.0  0.33200  0.66800  0.99600  1.0000
  Ti  Ti1       1.0  0.11700  0.39800  0.32000  1.0000
  Ti  Ti2       1.0  0.60200  0.39800  0.32000  1.0000
  Ti  Ti3       1.0  0.60200  0.88300  0.32000  1.0000
  Ti  Ti4       1.0  0.39800  0.11700  0.68000  1.0000
  Ti  Ti5       1.0  0.39800  0.60200  0.68000  1.0000
  Ti  Ti6       1.0  0.88300  0.60200  0.68000  1.0000
