data_image0
_chemical_formula_structural       Cl2Tb2
_chemical_formula_sum              "Cl2 Tb2"
_cell_length_a       3.75138
_cell_length_b       3.75138
_cell_length_c       9.63346
_cell_angle_alpha    78.7725
_cell_angle_beta     101.228
_cell_angle_gamma    120

_space_group_name_H-M_alt    "P 1"
_space_group_IT_number       1

loop_
  _space_group_symop_operation_xyz
  'x, y, z'

loop_
  _atom_site_type_symbol
  _atom_site_label
  _atom_site_symmetry_multiplicity
  _atom_site_fract_x
  _atom_site_fract_y
  _atom_site_fract_z
  _atom_site_occupancy
  Cl  Cl1       1.0  0.38800  0.61200  0.16500  1.0000
  Cl  Cl2       1.0  0.61200  0.38800  0.83500  1.0000
  Tb  Tb1       1.0  0.11700  0.88300  0.35100  1.0000
  Tb  Tb2       1.0  0.88300  0.11700  0.64900  1.0000
