data_image0
_chemical_formula_structural       Ag4Ho3Sn4
_chemical_formula_sum              "Ag4 Ho3 Sn4"
_cell_length_a       4.55169
_cell_length_b       7.34242
_cell_length_c       8.73904
_cell_angle_alpha    114.84
_cell_angle_beta     105.095
_cell_angle_gamma    90

_space_group_name_H-M_alt    "P 1"
_space_group_IT_number       1

loop_
  _space_group_symop_operation_xyz
  'x, y, z'

loop_
  _atom_site_type_symbol
  _atom_site_label
  _atom_site_symmetry_multiplicity
  _atom_site_fract_x
  _atom_site_fract_y
  _atom_site_fract_z
  _atom_site_occupancy
  Ag  Ag1       1.0  0.67200  0.37000  0.34400  1.0000
  Ag  Ag2       1.0  0.67200  0.97400  0.34400  1.0000
  Ag  Ag3       1.0  0.32800  0.02630  0.65600  1.0000
  Ag  Ag4       1.0  0.32800  0.63000  0.65600  1.0000
  Ho  Ho1       1.0  0.00000  0.00000  0.00000  1.0000
  Ho  Ho2       1.0  0.12600  0.62600  0.25300  1.0000
  Ho  Ho3       1.0  0.87400  0.37400  0.74700  1.0000
  Sn  Sn1       1.0  0.50000  0.30300  0.00000  1.0000
  Sn  Sn2       1.0  0.50000  0.69700  0.00000  1.0000
  Sn  Sn3       1.0  0.21500  0.21500  0.43000  1.0000
  Sn  Sn4       1.0  0.78500  0.78500  0.57000  1.0000
