data_image0
_chemical_formula_structural       H2Li2O6P2Tl2
_chemical_formula_sum              "H2 Li2 O6 P2 Tl2"
_cell_length_a       5.06229
_cell_length_b       5.33503
_cell_length_c       7.41884
_cell_angle_alpha    90.6183
_cell_angle_beta     109.949
_cell_angle_gamma    90

_space_group_name_H-M_alt    "P 1"
_space_group_IT_number       1

loop_
  _space_group_symop_operation_xyz
  'x, y, z'

loop_
  _atom_site_type_symbol
  _atom_site_label
  _atom_site_symmetry_multiplicity
  _atom_site_fract_x
  _atom_site_fract_y
  _atom_site_fract_z
  _atom_site_occupancy
  H   H1        1.0  0.59100  0.22000  0.09450  1.0000
  H   H2        1.0  0.49600  0.78000  0.90500  1.0000
  Li  Li1       1.0  0.20200  0.18800  0.49800  1.0000
  Li  Li2       1.0  0.70400  0.81200  0.50200  1.0000
  O   O1        1.0  0.27400  0.27000  0.26400  1.0000
  O   O2        1.0  0.65900  0.58800  0.28800  1.0000
  O   O3        1.0  0.79100  0.14900  0.42900  1.0000
  O   O4        1.0  0.36300  0.85100  0.57100  1.0000
  O   O5        1.0  0.37100  0.41200  0.71200  1.0000
  O   O6        1.0  0.00984  0.73000  0.73600  1.0000
  P   P1        1.0  0.58000  0.30900  0.27400  1.0000
  P   P2        1.0  0.30600  0.69100  0.72600  1.0000
  Tl  Tl1       1.0  0.06370  0.75800  0.17500  1.0000
  Tl  Tl2       1.0  0.88800  0.24200  0.82500  1.0000
