data_image0
_chemical_formula_structural       CrCsP2S7
_chemical_formula_sum              "Cr1 Cs1 P2 S7"
_cell_length_a       6.47516
_cell_length_b       6.47516
_cell_length_c       6.92026
_cell_angle_alpha    94.7901
_cell_angle_beta     94.7901
_cell_angle_gamma    96.4328

_space_group_name_H-M_alt    "P 1"
_space_group_IT_number       1

loop_
  _space_group_symop_operation_xyz
  'x, y, z'

loop_
  _atom_site_type_symbol
  _atom_site_label
  _atom_site_symmetry_multiplicity
  _atom_site_fract_x
  _atom_site_fract_y
  _atom_site_fract_z
  _atom_site_occupancy
  Cr  Cr1       1.0  0.51300  0.48700  0.50000  1.0000
  Cs  Cs1       1.0  0.10200  0.89800  0.00000  1.0000
  P   P1        1.0  0.65900  0.93900  0.42700  1.0000
  P   P2        1.0  0.06080  0.34100  0.57300  1.0000
  S   S1        1.0  0.64200  0.67600  0.24000  1.0000
  S   S2        1.0  0.54700  0.17400  0.29100  1.0000
  S   S3        1.0  0.16300  0.47700  0.34000  1.0000
  S   S4        1.0  0.99200  0.00846  0.50000  1.0000
  S   S5        1.0  0.52300  0.83700  0.66000  1.0000
  S   S6        1.0  0.82600  0.45300  0.70900  1.0000
  S   S7        1.0  0.32400  0.35800  0.76000  1.0000
