data_image0
_chemical_formula_structural       Li5N3Ni3
_chemical_formula_sum              "Li5 N3 Ni3"
_cell_length_a       6.45548
_cell_length_b       6.45548
_cell_length_c       3.47743
_cell_angle_alpha    90
_cell_angle_beta     90
_cell_angle_gamma    119.995

_space_group_name_H-M_alt    "P 1"
_space_group_IT_number       1

loop_
  _space_group_symop_operation_xyz
  'x, y, z'

loop_
  _atom_site_type_symbol
  _atom_site_label
  _atom_site_symmetry_multiplicity
  _atom_site_fract_x
  _atom_site_fract_y
  _atom_site_fract_z
  _atom_site_occupancy
  Li  Li1       1.0  0.26300  0.00006  0.50000  1.0000
  Li  Li2       1.0  0.00007  0.26300  0.50000  1.0000
  Li  Li3       1.0  0.66700  0.33300  0.50000  1.0000
  Li  Li4       1.0  0.33300  0.66700  0.50000  1.0000
  Li  Li5       1.0  0.73700  0.73700  0.50000  1.0000
  N   N1        1.0  0.63400  0.00000  0.50000  1.0000
  N   N2        1.0  0.36600  0.36600  0.50000  1.0000
  N   N3        1.0  0.00000  0.63400  0.50000  1.0000
  Ni  Ni1       1.0  0.63200  0.00003  0.00000  1.0000
  Ni  Ni2       1.0  0.36800  0.36800  0.00000  1.0000
  Ni  Ni3       1.0  0.00003  0.63200  0.00000  1.0000
