data_image0
_chemical_formula_structural       B2MgO6Sr2
_chemical_formula_sum              "B2 Mg1 O6 Sr2"
_cell_length_a       5.13413
_cell_length_b       5.19649
_cell_length_c       6.05998
_cell_angle_alpha    114.716
_cell_angle_beta     90
_cell_angle_gamma    119.604

_space_group_name_H-M_alt    "P 1"
_space_group_IT_number       1

loop_
  _space_group_symop_operation_xyz
  'x, y, z'

loop_
  _atom_site_type_symbol
  _atom_site_label
  _atom_site_symmetry_multiplicity
  _atom_site_fract_x
  _atom_site_fract_y
  _atom_site_fract_z
  _atom_site_occupancy
  B   B1        1.0  0.06370  0.12700  0.26300  1.0000
  B   B2        1.0  0.93600  0.87300  0.73700  1.0000
  Mg  Mg1       1.0  0.50000  0.00000  0.50000  1.0000
  O   O1        1.0  0.20900  0.95300  0.23100  1.0000
  O   O2        1.0  0.74400  0.95300  0.23100  1.0000
  O   O3        1.0  0.23300  0.46600  0.33500  1.0000
  O   O4        1.0  0.76700  0.53400  0.66500  1.0000
  O   O5        1.0  0.25600  0.04680  0.76900  1.0000
  O   O6        1.0  0.79100  0.04680  0.76900  1.0000
  Sr  Sr1       1.0  0.71000  0.42100  0.18300  1.0000
  Sr  Sr2       1.0  0.29000  0.57900  0.81700  1.0000
