data_image0
_chemical_formula_structural       Ba2Cl2Cu3O4
_chemical_formula_sum              "Ba2 Cl2 Cu3 O4"
_cell_length_a       5.52258
_cell_length_b       5.52258
_cell_length_c       7.9278
_cell_angle_alpha    110.384
_cell_angle_beta     110.384
_cell_angle_gamma    90

_space_group_name_H-M_alt    "P 1"
_space_group_IT_number       1

loop_
  _space_group_symop_operation_xyz
  'x, y, z'

loop_
  _atom_site_type_symbol
  _atom_site_label
  _atom_site_symmetry_multiplicity
  _atom_site_fract_x
  _atom_site_fract_y
  _atom_site_fract_z
  _atom_site_occupancy
  Ba  Ba1       1.0  0.64100  0.64100  0.28200  1.0000
  Ba  Ba2       1.0  0.35900  0.35900  0.71800  1.0000
  Cl  Cl1       1.0  0.75000  0.25000  0.50000  1.0000
  Cl  Cl2       1.0  0.25000  0.75000  0.50000  1.0000
  Cu  Cu1       1.0  0.00000  0.00000  0.00000  1.0000
  Cu  Cu2       1.0  0.50000  0.00000  0.00000  1.0000
  Cu  Cu3       1.0  0.00000  0.50000  0.00000  1.0000
  O   O1        1.0  0.24300  0.24300  0.00000  1.0000
  O   O2        1.0  0.75700  0.24300  0.00000  1.0000
  O   O3        1.0  0.24300  0.75700  0.00000  1.0000
  O   O4        1.0  0.75700  0.75700  0.00000  1.0000
