data_image0
_chemical_formula_structural       Cs4O5Sb2
_chemical_formula_sum              "Cs4 O5 Sb2"
_cell_length_a       6.30469
_cell_length_b       6.30469
_cell_length_c       8.12305
_cell_angle_alpha    97.1189
_cell_angle_beta     97.1189
_cell_angle_gamma    66.6027

_space_group_name_H-M_alt    "P 1"
_space_group_IT_number       1

loop_
  _space_group_symop_operation_xyz
  'x, y, z'

loop_
  _atom_site_type_symbol
  _atom_site_label
  _atom_site_symmetry_multiplicity
  _atom_site_fract_x
  _atom_site_fract_y
  _atom_site_fract_z
  _atom_site_occupancy
  Cs  Cs1       1.0  0.00478  0.00478  0.00881  1.0000
  Cs  Cs2       1.0  0.65800  0.65800  0.14800  1.0000
  Cs  Cs3       1.0  0.99700  0.99700  0.49800  1.0000
  Cs  Cs4       1.0  0.33100  0.33100  0.84300  1.0000
  O   O1        1.0  0.58700  0.15700  0.19200  1.0000
  O   O2        1.0  0.15700  0.58700  0.19200  1.0000
  O   O3        1.0  0.53400  0.53400  0.45900  1.0000
  O   O4        1.0  0.80900  0.37400  0.78800  1.0000
  O   O5        1.0  0.37400  0.80900  0.78800  1.0000
  Sb  Sb1       1.0  0.35100  0.35100  0.33800  1.0000
  Sb  Sb2       1.0  0.65600  0.65600  0.67500  1.0000
