data_image0
_chemical_formula_structural       Ge4Ni4Pr3
_chemical_formula_sum              "Ge4 Ni4 Pr3"
_cell_length_a       4.17246
_cell_length_b       4.16689
_cell_length_c       12.4505
_cell_angle_alpha    99.6331
_cell_angle_beta     99.6461
_cell_angle_gamma    90

_space_group_name_H-M_alt    "P 1"
_space_group_IT_number       1

loop_
  _space_group_symop_operation_xyz
  'x, y, z'

loop_
  _atom_site_type_symbol
  _atom_site_label
  _atom_site_symmetry_multiplicity
  _atom_site_fract_x
  _atom_site_fract_y
  _atom_site_fract_z
  _atom_site_occupancy
  Ge  Ge1       1.0  0.60000  0.09970  0.19900  1.0000
  Ge  Ge2       1.0  0.75000  0.75000  0.49900  1.0000
  Ge  Ge3       1.0  0.25000  0.25000  0.50100  1.0000
  Ge  Ge4       1.0  0.40000  0.90000  0.80100  1.0000
  Ni  Ni1       1.0  0.55000  0.55000  0.10000  1.0000
  Ni  Ni2       1.0  0.69900  0.19900  0.39900  1.0000
  Ni  Ni3       1.0  0.30100  0.80100  0.60100  1.0000
  Ni  Ni4       1.0  0.45000  0.45000  0.90000  1.0000
  Pr  Pr1       1.0  0.00000  0.00000  0.00000  1.0000
  Pr  Pr2       1.0  0.14800  0.64800  0.29700  1.0000
  Pr  Pr3       1.0  0.85200  0.35200  0.70300  1.0000
