data_image0
_chemical_formula_structural       Hg2I2
_chemical_formula_sum              "Hg2 I2"
_cell_length_a       4.95662
_cell_length_b       4.95662
_cell_length_c       6.86847
_cell_angle_alpha    111.151
_cell_angle_beta     111.151
_cell_angle_gamma    90

_space_group_name_H-M_alt    "P 1"
_space_group_IT_number       1

loop_
  _space_group_symop_operation_xyz
  'x, y, z'

loop_
  _atom_site_type_symbol
  _atom_site_label
  _atom_site_symmetry_multiplicity
  _atom_site_fract_x
  _atom_site_fract_y
  _atom_site_fract_z
  _atom_site_occupancy
  Hg  Hg1       1.0  0.11300  0.11300  0.22600  1.0000
  Hg  Hg2       1.0  0.88700  0.88700  0.77400  1.0000
  I   I1        1.0  0.65100  0.65100  0.30200  1.0000
  I   I2        1.0  0.34900  0.34900  0.69800  1.0000
