data_image0
_chemical_formula_structural       Bi4Yb2
_chemical_formula_sum              "Bi4 Yb2"
_cell_length_a       4.52617
_cell_length_b       4.72034
_cell_length_c       8.71804
_cell_angle_alpha    74.2928
_cell_angle_beta     90
_cell_angle_gamma    90

_space_group_name_H-M_alt    "P 1"
_space_group_IT_number       1

loop_
  _space_group_symop_operation_xyz
  'x, y, z'

loop_
  _atom_site_type_symbol
  _atom_site_label
  _atom_site_symmetry_multiplicity
  _atom_site_fract_x
  _atom_site_fract_y
  _atom_site_fract_z
  _atom_site_occupancy
  Bi  Bi1       1.0  0.75000  0.43300  0.13400  1.0000
  Bi  Bi2       1.0  0.25000  0.25600  0.48700  1.0000
  Bi  Bi3       1.0  0.75000  0.74400  0.51300  1.0000
  Bi  Bi4       1.0  0.25000  0.56700  0.86600  1.0000
  Yb  Yb1       1.0  0.25000  0.90200  0.19700  1.0000
  Yb  Yb2       1.0  0.75000  0.09850  0.80300  1.0000
