data_image0
_chemical_formula_structural       As2NaO7Sc
_chemical_formula_sum              "As2 Na1 O7 Sc1"
_cell_length_a       4.815
_cell_length_b       5.58401
_cell_length_c       5.58401
_cell_angle_alpha    102.937
_cell_angle_beta     97.3119
_cell_angle_gamma    97.3119

_space_group_name_H-M_alt    "P 1"
_space_group_IT_number       1

loop_
  _space_group_symop_operation_xyz
  'x, y, z'

loop_
  _atom_site_type_symbol
  _atom_site_label
  _atom_site_symmetry_multiplicity
  _atom_site_fract_x
  _atom_site_fract_y
  _atom_site_fract_z
  _atom_site_occupancy
  As  As1       1.0  0.91500  0.17800  0.25200  1.0000
  As  As2       1.0  0.08510  0.74800  0.82200  1.0000
  Na  Na1       1.0  0.50000  0.24500  0.75500  1.0000
  O   O1        1.0  0.24600  0.62200  0.03930  1.0000
  O   O2        1.0  0.69300  0.36300  0.15900  1.0000
  O   O3        1.0  0.75400  0.96100  0.37800  1.0000
  O   O4        1.0  0.22400  0.32900  0.43200  1.0000
  O   O5        1.0  0.30700  0.84100  0.63700  1.0000
  O   O6        1.0  0.77600  0.56800  0.67100  1.0000
  O   O7        1.0  0.00000  0.04510  0.95500  1.0000
  Sc  Sc1       1.0  0.50000  0.63200  0.36800  1.0000
