data_image0
_chemical_formula_structural       Ga2MnSe4
_chemical_formula_sum              "Ga2 Mn1 Se4"
_cell_length_a       5.74034
_cell_length_b       5.74034
_cell_length_c       6.80097
_cell_angle_alpha    114.962
_cell_angle_beta     114.962
_cell_angle_gamma    90

_space_group_name_H-M_alt    "P 1"
_space_group_IT_number       1

loop_
  _space_group_symop_operation_xyz
  'x, y, z'

loop_
  _atom_site_type_symbol
  _atom_site_label
  _atom_site_symmetry_multiplicity
  _atom_site_fract_x
  _atom_site_fract_y
  _atom_site_fract_z
  _atom_site_occupancy
  Ga  Ga1       1.0  0.00000  0.00000  0.00000  1.0000
  Ga  Ga2       1.0  0.25000  0.75000  0.50000  1.0000
  Mn  Mn1       1.0  0.75000  0.25000  0.50000  1.0000
  Se  Se1       1.0  0.36800  0.38100  0.23400  1.0000
  Se  Se2       1.0  0.86600  0.85300  0.23400  1.0000
  Se  Se3       1.0  0.61900  0.13400  0.76600  1.0000
  Se  Se4       1.0  0.14700  0.63200  0.76600  1.0000
