data_image0
_chemical_formula_structural       Cu4Ge4Nd3
_chemical_formula_sum              "Cu4 Ge4 Nd3"
_cell_length_a       4.33729
_cell_length_b       6.75713
_cell_length_c       8.2166
_cell_angle_alpha    114.279
_cell_angle_beta     105.304
_cell_angle_gamma    90

_space_group_name_H-M_alt    "P 1"
_space_group_IT_number       1

loop_
  _space_group_symop_operation_xyz
  'x, y, z'

loop_
  _atom_site_type_symbol
  _atom_site_label
  _atom_site_symmetry_multiplicity
  _atom_site_fract_x
  _atom_site_fract_y
  _atom_site_fract_z
  _atom_site_occupancy
  Cu  Cu1       1.0  0.66700  0.48100  0.33400  1.0000
  Cu  Cu2       1.0  0.66700  0.85300  0.33400  1.0000
  Cu  Cu3       1.0  0.33300  0.14700  0.66600  1.0000
  Cu  Cu4       1.0  0.33300  0.51900  0.66600  1.0000
  Ge  Ge1       1.0  0.50000  0.18900  0.00000  1.0000
  Ge  Ge2       1.0  0.50000  0.81100  0.00000  1.0000
  Ge  Ge3       1.0  0.21700  0.71700  0.43300  1.0000
  Ge  Ge4       1.0  0.78300  0.28300  0.56700  1.0000
  Nd  Nd1       1.0  0.00000  0.50000  0.00000  1.0000
  Nd  Nd2       1.0  0.13200  0.13200  0.26500  1.0000
  Nd  Nd3       1.0  0.86800  0.86800  0.73500  1.0000
