data_image0
_chemical_formula_structural       I2La2Te
_chemical_formula_sum              "I2 La2 Te1"
_cell_length_a       4.53555
_cell_length_b       4.53555
_cell_length_c       11.4472
_cell_angle_alpha    101.426
_cell_angle_beta     101.426
_cell_angle_gamma    60

_space_group_name_H-M_alt    "P 1"
_space_group_IT_number       1

loop_
  _space_group_symop_operation_xyz
  'x, y, z'

loop_
  _atom_site_type_symbol
  _atom_site_label
  _atom_site_symmetry_multiplicity
  _atom_site_fract_x
  _atom_site_fract_y
  _atom_site_fract_z
  _atom_site_occupancy
  I   I1        1.0  0.72000  0.72000  0.15900  1.0000
  I   I2        1.0  0.28000  0.28000  0.84100  1.0000
  La  La1       1.0  0.11400  0.11400  0.34100  1.0000
  La  La2       1.0  0.88600  0.88600  0.65900  1.0000
  Te  Te1       1.0  0.50000  0.50000  0.50000  1.0000
