data_image0
_chemical_formula_structural       Cu4Si4Yb3
_chemical_formula_sum              "Cu4 Si4 Yb3"
_cell_length_a       4.15874
_cell_length_b       6.56174
_cell_length_c       7.83262
_cell_angle_alpha    114.763
_cell_angle_beta     105.395
_cell_angle_gamma    90

_space_group_name_H-M_alt    "P 1"
_space_group_IT_number       1

loop_
  _space_group_symop_operation_xyz
  'x, y, z'

loop_
  _atom_site_type_symbol
  _atom_site_label
  _atom_site_symmetry_multiplicity
  _atom_site_fract_x
  _atom_site_fract_y
  _atom_site_fract_z
  _atom_site_occupancy
  Cu  Cu1       1.0  0.66900  0.47800  0.33900  1.0000
  Cu  Cu2       1.0  0.66900  0.86100  0.33900  1.0000
  Cu  Cu3       1.0  0.33100  0.13900  0.66100  1.0000
  Cu  Cu4       1.0  0.33100  0.52200  0.66100  1.0000
  Si  Si1       1.0  0.50000  0.17800  0.00000  1.0000
  Si  Si2       1.0  0.50000  0.82200  0.00000  1.0000
  Si  Si3       1.0  0.21800  0.71800  0.43700  1.0000
  Si  Si4       1.0  0.78200  0.28200  0.56300  1.0000
  Yb  Yb1       1.0  0.00000  0.50000  0.00000  1.0000
  Yb  Yb2       1.0  0.13100  0.13100  0.26200  1.0000
  Yb  Yb3       1.0  0.86900  0.86900  0.73800  1.0000
