data_image0
_chemical_formula_structural       Cl2Fe2O4Sr3
_chemical_formula_sum              "Cl2 Fe2 O4 Sr3"
_cell_length_a       4.04239
_cell_length_b       4.04239
_cell_length_c       11.5613
_cell_angle_alpha    100.068
_cell_angle_beta     100.068
_cell_angle_gamma    90

_space_group_name_H-M_alt    "P 1"
_space_group_IT_number       1

loop_
  _space_group_symop_operation_xyz
  'x, y, z'

loop_
  _atom_site_type_symbol
  _atom_site_label
  _atom_site_symmetry_multiplicity
  _atom_site_fract_x
  _atom_site_fract_y
  _atom_site_fract_z
  _atom_site_occupancy
  Cl  Cl1       1.0  0.70600  0.70600  0.41100  1.0000
  Cl  Cl2       1.0  0.29400  0.29400  0.58900  1.0000
  Fe  Fe1       1.0  0.57500  0.57500  0.15000  1.0000
  Fe  Fe2       1.0  0.42500  0.42500  0.85000  1.0000
  O   O1        1.0  0.57800  0.07780  0.15600  1.0000
  O   O2        1.0  0.07780  0.57800  0.15600  1.0000
  O   O3        1.0  0.92200  0.42200  0.84400  1.0000
  O   O4        1.0  0.42200  0.92200  0.84400  1.0000
  Sr  Sr1       1.0  0.00000  0.00000  0.00000  1.0000
  Sr  Sr2       1.0  0.15300  0.15300  0.30600  1.0000
  Sr  Sr3       1.0  0.84700  0.84700  0.69400  1.0000
