data_image0
_chemical_formula_structural       Ce3Pd4Si4
_chemical_formula_sum              "Ce3 Pd4 Si4"
_cell_length_a       4.22238
_cell_length_b       4.28225
_cell_length_c       12.706
_cell_angle_alpha    99.7014
_cell_angle_beta     99.5645
_cell_angle_gamma    90

_space_group_name_H-M_alt    "P 1"
_space_group_IT_number       1

loop_
  _space_group_symop_operation_xyz
  'x, y, z'

loop_
  _atom_site_type_symbol
  _atom_site_label
  _atom_site_symmetry_multiplicity
  _atom_site_fract_x
  _atom_site_fract_y
  _atom_site_fract_z
  _atom_site_occupancy
  Ce  Ce1       1.0  0.00000  0.00000  0.00000  1.0000
  Ce  Ce2       1.0  0.14700  0.64700  0.29400  1.0000
  Ce  Ce3       1.0  0.85300  0.35300  0.70600  1.0000
  Pd  Pd1       1.0  0.59800  0.09780  0.19600  1.0000
  Pd  Pd2       1.0  0.24900  0.24900  0.49800  1.0000
  Pd  Pd3       1.0  0.75100  0.75100  0.50200  1.0000
  Pd  Pd4       1.0  0.40200  0.90200  0.80400  1.0000
  Si  Si1       1.0  0.54900  0.54900  0.09730  1.0000
  Si  Si2       1.0  0.69700  0.19700  0.39400  1.0000
  Si  Si3       1.0  0.30300  0.80300  0.60600  1.0000
  Si  Si4       1.0  0.45100  0.45100  0.90300  1.0000
