data_image0
_chemical_formula_structural       Nd2O5S2Ti2
_chemical_formula_sum              "Nd2 O5 S2 Ti2"
_cell_length_a       3.85874
_cell_length_b       3.85874
_cell_length_c       11.8616
_cell_angle_alpha    99.3611
_cell_angle_beta     99.3611
_cell_angle_gamma    90

_space_group_name_H-M_alt    "P 1"
_space_group_IT_number       1

loop_
  _space_group_symop_operation_xyz
  'x, y, z'

loop_
  _atom_site_type_symbol
  _atom_site_label
  _atom_site_symmetry_multiplicity
  _atom_site_fract_x
  _atom_site_fract_y
  _atom_site_fract_z
  _atom_site_occupancy
  Nd  Nd1       1.0  0.66600  0.66600  0.33200  1.0000
  Nd  Nd2       1.0  0.33400  0.33400  0.66800  1.0000
  O   O1        1.0  0.00000  0.00000  0.00000  1.0000
  O   O2        1.0  0.59700  0.09710  0.19400  1.0000
  O   O3        1.0  0.09710  0.59700  0.19400  1.0000
  O   O4        1.0  0.90300  0.40300  0.80600  1.0000
  O   O5        1.0  0.40300  0.90300  0.80600  1.0000
  S   S1        1.0  0.20400  0.20400  0.40800  1.0000
  S   S2        1.0  0.79600  0.79600  0.59200  1.0000
  Ti  Ti1       1.0  0.07860  0.07860  0.15700  1.0000
  Ti  Ti2       1.0  0.92100  0.92100  0.84300  1.0000
