data_image0
_chemical_formula_structural       H6Na2O6Sn
_chemical_formula_sum              "H6 Na2 O6 Sn1"
_cell_length_a       5.66694
_cell_length_b       5.66694
_cell_length_c       5.66694
_cell_angle_alpha    117.935
_cell_angle_beta     62.0646
_cell_angle_gamma    117.935

_space_group_name_H-M_alt    "P 1"
_space_group_IT_number       1

loop_
  _space_group_symop_operation_xyz
  'x, y, z'

loop_
  _atom_site_type_symbol
  _atom_site_label
  _atom_site_symmetry_multiplicity
  _atom_site_fract_x
  _atom_site_fract_y
  _atom_site_fract_z
  _atom_site_occupancy
  H   H1        1.0  0.60800  0.18900  0.12500  1.0000
  H   H2        1.0  0.87500  0.60800  0.18900  1.0000
  H   H3        1.0  0.18900  0.12500  0.39200  1.0000
  H   H4        1.0  0.81100  0.87500  0.60800  1.0000
  H   H5        1.0  0.12500  0.39200  0.81100  1.0000
  H   H6        1.0  0.39200  0.81100  0.87500  1.0000
  Na  Na1       1.0  0.33500  0.66500  0.33500  1.0000
  Na  Na2       1.0  0.66500  0.33500  0.66500  1.0000
  O   O1        1.0  0.78500  0.61700  0.08380  1.0000
  O   O2        1.0  0.61700  0.08380  0.21500  1.0000
  O   O3        1.0  0.08380  0.21500  0.38300  1.0000
  O   O4        1.0  0.91600  0.78500  0.61700  1.0000
  O   O5        1.0  0.38300  0.91600  0.78500  1.0000
  O   O6        1.0  0.21500  0.38300  0.91600  1.0000
  Sn  Sn1       1.0  0.00000  0.00000  0.00000  1.0000
