data_image0
_chemical_formula_structural       DyP2Pt8
_chemical_formula_sum              "Dy1 P2 Pt8"
_cell_length_a       4.05436
_cell_length_b       6.33595
_cell_length_c       7.75546
_cell_angle_alpha    96.8141
_cell_angle_beta     74.8476
_cell_angle_gamma    108.66

_space_group_name_H-M_alt    "P 1"
_space_group_IT_number       1

loop_
  _space_group_symop_operation_xyz
  'x, y, z'

loop_
  _atom_site_type_symbol
  _atom_site_label
  _atom_site_symmetry_multiplicity
  _atom_site_fract_x
  _atom_site_fract_y
  _atom_site_fract_z
  _atom_site_occupancy
  Dy  Dy1       1.0  0.50000  0.50000  0.50000  1.0000
  P   P1        1.0  0.94200  0.17400  0.29000  1.0000
  P   P2        1.0  0.05830  0.82600  0.71000  1.0000
  Pt  Pt1       1.0  0.52500  0.18100  0.13100  1.0000
  Pt  Pt2       1.0  0.83300  0.81900  0.15200  1.0000
  Pt  Pt3       1.0  0.17700  0.51000  0.15600  1.0000
  Pt  Pt4       1.0  0.22300  0.86000  0.41400  1.0000
  Pt  Pt5       1.0  0.77700  0.14000  0.58600  1.0000
  Pt  Pt6       1.0  0.82300  0.49000  0.84400  1.0000
  Pt  Pt7       1.0  0.16700  0.18100  0.84800  1.0000
  Pt  Pt8       1.0  0.47500  0.81900  0.86900  1.0000
