data_image0
_chemical_formula_structural       Ba2H8O6
_chemical_formula_sum              "Ba2 H8 O6"
_cell_length_a       3.89649
_cell_length_b       6.25112
_cell_length_c       6.83744
_cell_angle_alpha    90
_cell_angle_beta     90
_cell_angle_gamma    90

_space_group_name_H-M_alt    "P 1"
_space_group_IT_number       1

loop_
  _space_group_symop_operation_xyz
  'x, y, z'

loop_
  _atom_site_type_symbol
  _atom_site_label
  _atom_site_symmetry_multiplicity
  _atom_site_fract_x
  _atom_site_fract_y
  _atom_site_fract_z
  _atom_site_occupancy
  Ba  Ba1       1.0  0.00000  0.35500  0.25100  1.0000
  Ba  Ba2       1.0  0.00000  0.64500  0.75100  1.0000
  H   H1        1.0  0.50000  0.01530  0.08540  1.0000
  H   H2        1.0  0.50000  0.70100  0.10800  1.0000
  H   H3        1.0  0.20400  0.87700  0.31000  1.0000
  H   H4        1.0  0.79600  0.87700  0.31000  1.0000
  H   H5        1.0  0.50000  0.98500  0.58500  1.0000
  H   H6        1.0  0.50000  0.29900  0.60800  1.0000
  H   H7        1.0  0.20400  0.12300  0.81000  1.0000
  H   H8        1.0  0.79600  0.12300  0.81000  1.0000
  O   O1        1.0  0.50000  0.56700  0.03370  1.0000
  O   O2        1.0  0.50000  0.02720  0.22700  1.0000
  O   O3        1.0  0.00000  0.79400  0.36600  1.0000
  O   O4        1.0  0.50000  0.43300  0.53400  1.0000
  O   O5        1.0  0.50000  0.97300  0.72700  1.0000
  O   O6        1.0  0.00000  0.20600  0.86600  1.0000
