data_image0
_chemical_formula_structural       Ba4Cl4H4O4
_chemical_formula_sum              "Ba4 Cl4 H4 O4"
_cell_length_a       7.42592
_cell_length_b       4.43577
_cell_length_c       9.06471
_cell_angle_alpha    90
_cell_angle_beta     90
_cell_angle_gamma    90

_space_group_name_H-M_alt    "P 1"
_space_group_IT_number       1

loop_
  _space_group_symop_operation_xyz
  'x, y, z'

loop_
  _atom_site_type_symbol
  _atom_site_label
  _atom_site_symmetry_multiplicity
  _atom_site_fract_x
  _atom_site_fract_y
  _atom_site_fract_z
  _atom_site_occupancy
  Ba  Ba1       1.0  0.19300  0.25000  0.11400  1.0000
  Ba  Ba2       1.0  0.69300  0.25000  0.38600  1.0000
  Ba  Ba3       1.0  0.30700  0.75000  0.61400  1.0000
  Ba  Ba4       1.0  0.80700  0.75000  0.88600  1.0000
  Cl  Cl1       1.0  0.51900  0.75000  0.16400  1.0000
  Cl  Cl2       1.0  0.01930  0.75000  0.33600  1.0000
  Cl  Cl3       1.0  0.98100  0.25000  0.66400  1.0000
  Cl  Cl4       1.0  0.48100  0.25000  0.83600  1.0000
  H   H1        1.0  0.71500  0.25000  0.06720  1.0000
  H   H2        1.0  0.21500  0.25000  0.43300  1.0000
  H   H3        1.0  0.78500  0.75000  0.56700  1.0000
  H   H4        1.0  0.28500  0.75000  0.93300  1.0000
  O   O1        1.0  0.84600  0.25000  0.05860  1.0000
  O   O2        1.0  0.34600  0.25000  0.44100  1.0000
  O   O3        1.0  0.65400  0.75000  0.55900  1.0000
  O   O4        1.0  0.15400  0.75000  0.94100  1.0000
