data_image0
_chemical_formula_structural       La3Ni4Si4
_chemical_formula_sum              "La3 Ni4 Si4"
_cell_length_a       4.16441
_cell_length_b       4.12529
_cell_length_c       12.1536
_cell_angle_alpha    99.7713
_cell_angle_beta     99.8648
_cell_angle_gamma    90

_space_group_name_H-M_alt    "P 1"
_space_group_IT_number       1

loop_
  _space_group_symop_operation_xyz
  'x, y, z'

loop_
  _atom_site_type_symbol
  _atom_site_label
  _atom_site_symmetry_multiplicity
  _atom_site_fract_x
  _atom_site_fract_y
  _atom_site_fract_z
  _atom_site_occupancy
  La  La1       1.0  0.00000  0.00000  0.00000  1.0000
  La  La2       1.0  0.15000  0.65000  0.30000  1.0000
  La  La3       1.0  0.85000  0.35000  0.70000  1.0000
  Ni  Ni1       1.0  0.60000  0.09970  0.19900  1.0000
  Ni  Ni2       1.0  0.24900  0.24900  0.49700  1.0000
  Ni  Ni3       1.0  0.75100  0.75100  0.50300  1.0000
  Ni  Ni4       1.0  0.40000  0.90000  0.80100  1.0000
  Si  Si1       1.0  0.55200  0.55200  0.10300  1.0000
  Si  Si2       1.0  0.70100  0.20100  0.40200  1.0000
  Si  Si3       1.0  0.29900  0.79900  0.59800  1.0000
  Si  Si4       1.0  0.44800  0.44800  0.89700  1.0000
