data_image0
_chemical_formula_structural       Er7Ni2Te2
_chemical_formula_sum              "Er7 Ni2 Te2"
_cell_length_a       3.82847
_cell_length_b       9.27789
_cell_length_c       9.27789
_cell_angle_alpha    113.11
_cell_angle_beta     101.907
_cell_angle_gamma    101.907

_space_group_name_H-M_alt    "P 1"
_space_group_IT_number       1

loop_
  _space_group_symop_operation_xyz
  'x, y, z'

loop_
  _atom_site_type_symbol
  _atom_site_label
  _atom_site_symmetry_multiplicity
  _atom_site_fract_x
  _atom_site_fract_y
  _atom_site_fract_z
  _atom_site_occupancy
  Er  Er1       1.0  0.73600  0.36900  0.10300  1.0000
  Er  Er2       1.0  0.94000  0.75400  0.12500  1.0000
  Er  Er3       1.0  0.73600  0.10300  0.36900  1.0000
  Er  Er4       1.0  0.58800  0.73500  0.44200  1.0000
  Er  Er5       1.0  0.58800  0.44200  0.73500  1.0000
  Er  Er6       1.0  0.94000  0.12500  0.75400  1.0000
  Er  Er7       1.0  0.31900  0.81900  0.81900  1.0000
  Ni  Ni1       1.0  0.24700  0.98400  0.50900  1.0000
  Ni  Ni2       1.0  0.24700  0.50900  0.98400  1.0000
  Te  Te1       1.0  0.08370  0.08370  0.08370  1.0000
  Te  Te2       1.0  0.98200  0.48200  0.48200  1.0000
