data_image0
_chemical_formula_structural       Ba2Ge4Ni5
_chemical_formula_sum              "Ba2 Ge4 Ni5"
_cell_length_a       4.06999
_cell_length_b       6.60004
_cell_length_c       8.79534
_cell_angle_alpha    96.5413
_cell_angle_beta     103.378
_cell_angle_gamma    107.959

_space_group_name_H-M_alt    "P 1"
_space_group_IT_number       1

loop_
  _space_group_symop_operation_xyz
  'x, y, z'

loop_
  _atom_site_type_symbol
  _atom_site_label
  _atom_site_symmetry_multiplicity
  _atom_site_fract_x
  _atom_site_fract_y
  _atom_site_fract_z
  _atom_site_occupancy
  Ba  Ba1       1.0  0.96600  0.78900  0.14400  1.0000
  Ba  Ba2       1.0  0.03350  0.21100  0.85600  1.0000
  Ge  Ge1       1.0  0.72400  0.25700  0.19200  1.0000
  Ge  Ge2       1.0  0.59100  0.73400  0.44800  1.0000
  Ge  Ge3       1.0  0.40900  0.26600  0.55200  1.0000
  Ge  Ge4       1.0  0.27600  0.74300  0.80800  1.0000
  Ni  Ni1       1.0  0.33700  0.37200  0.30300  1.0000
  Ni  Ni2       1.0  0.76000  0.09630  0.42400  1.0000
  Ni  Ni3       1.0  0.00000  0.50000  0.50000  1.0000
  Ni  Ni4       1.0  0.24000  0.90400  0.57600  1.0000
  Ni  Ni5       1.0  0.66300  0.62800  0.69700  1.0000
