data_image0
_chemical_formula_structural       Ce3Rh4Si4
_chemical_formula_sum              "Ce3 Rh4 Si4"
_cell_length_a       4.18948
_cell_length_b       4.16868
_cell_length_c       12.7272
_cell_angle_alpha    99.4258
_cell_angle_beta     99.4733
_cell_angle_gamma    90

_space_group_name_H-M_alt    "P 1"
_space_group_IT_number       1

loop_
  _space_group_symop_operation_xyz
  'x, y, z'

loop_
  _atom_site_type_symbol
  _atom_site_label
  _atom_site_symmetry_multiplicity
  _atom_site_fract_x
  _atom_site_fract_y
  _atom_site_fract_z
  _atom_site_occupancy
  Ce  Ce1       1.0  0.00000  0.00000  0.00000  1.0000
  Ce  Ce2       1.0  0.14500  0.64500  0.28900  1.0000
  Ce  Ce3       1.0  0.85500  0.35500  0.71100  1.0000
  Rh  Rh1       1.0  0.60000  0.10000  0.20000  1.0000
  Rh  Rh2       1.0  0.24900  0.24900  0.49900  1.0000
  Rh  Rh3       1.0  0.75100  0.75100  0.50100  1.0000
  Rh  Rh4       1.0  0.40000  0.90000  0.80000  1.0000
  Si  Si1       1.0  0.54800  0.54800  0.09690  1.0000
  Si  Si2       1.0  0.69900  0.19900  0.39900  1.0000
  Si  Si3       1.0  0.30100  0.80100  0.60100  1.0000
  Si  Si4       1.0  0.45200  0.45200  0.90300  1.0000
