data_image0
_chemical_formula_structural       H6I6N4
_chemical_formula_sum              "H6 I6 N4"
_cell_length_a       7.13396
_cell_length_b       7.55584
_cell_length_c       6.23648
_cell_angle_alpha    90
_cell_angle_beta     98.4601
_cell_angle_gamma    90

_space_group_name_H-M_alt    "P 1"
_space_group_IT_number       1

loop_
  _space_group_symop_operation_xyz
  'x, y, z'

loop_
  _atom_site_type_symbol
  _atom_site_label
  _atom_site_symmetry_multiplicity
  _atom_site_fract_x
  _atom_site_fract_y
  _atom_site_fract_z
  _atom_site_occupancy
  H   H1        1.0  0.69400  0.13900  0.05090  1.0000
  H   H2        1.0  0.69400  0.36100  0.05090  1.0000
  H   H3        1.0  0.18700  0.75000  0.11800  1.0000
  H   H4        1.0  0.81300  0.25000  0.88200  1.0000
  H   H5        1.0  0.30600  0.63900  0.94900  1.0000
  H   H6        1.0  0.30600  0.86100  0.94900  1.0000
  I   I1        1.0  0.76100  0.75000  0.13700  1.0000
  I   I2        1.0  0.05930  0.25000  0.31000  1.0000
  I   I3        1.0  0.50000  0.00000  0.50000  1.0000
  I   I4        1.0  0.50000  0.50000  0.50000  1.0000
  I   I5        1.0  0.94100  0.75000  0.69000  1.0000
  I   I6        1.0  0.23900  0.25000  0.86300  1.0000
  N   N1        1.0  0.77400  0.25000  0.03420  1.0000
  N   N2        1.0  0.67700  0.75000  0.45600  1.0000
  N   N3        1.0  0.32300  0.25000  0.54400  1.0000
  N   N4        1.0  0.22600  0.75000  0.96600  1.0000
