data_image0
_chemical_formula_structural       Ba4Br4H4O4
_chemical_formula_sum              "Ba4 Br4 H4 O4"
_cell_length_a       7.60719
_cell_length_b       4.36951
_cell_length_c       10.4694
_cell_angle_alpha    90
_cell_angle_beta     90
_cell_angle_gamma    90

_space_group_name_H-M_alt    "P 1"
_space_group_IT_number       1

loop_
  _space_group_symop_operation_xyz
  'x, y, z'

loop_
  _atom_site_type_symbol
  _atom_site_label
  _atom_site_symmetry_multiplicity
  _atom_site_fract_x
  _atom_site_fract_y
  _atom_site_fract_z
  _atom_site_occupancy
  Ba  Ba1       1.0  0.19800  0.25000  0.09310  1.0000
  Ba  Ba2       1.0  0.69800  0.25000  0.40700  1.0000
  Ba  Ba3       1.0  0.30200  0.75000  0.59300  1.0000
  Ba  Ba4       1.0  0.80200  0.75000  0.90700  1.0000
  Br  Br1       1.0  0.53400  0.75000  0.17700  1.0000
  Br  Br2       1.0  0.03350  0.75000  0.32300  1.0000
  Br  Br3       1.0  0.96600  0.25000  0.67700  1.0000
  Br  Br4       1.0  0.46600  0.25000  0.82300  1.0000
  H   H1        1.0  0.76400  0.25000  0.10100  1.0000
  H   H2        1.0  0.26400  0.25000  0.39900  1.0000
  H   H3        1.0  0.73600  0.75000  0.60100  1.0000
  H   H4        1.0  0.23600  0.75000  0.89900  1.0000
  O   O1        1.0  0.86000  0.25000  0.03990  1.0000
  O   O2        1.0  0.36000  0.25000  0.46000  1.0000
  O   O3        1.0  0.64000  0.75000  0.54000  1.0000
  O   O4        1.0  0.14000  0.75000  0.96000  1.0000
