data_image0
_chemical_formula_structural       Ge4La3Pd4
_chemical_formula_sum              "Ge4 La3 Pd4"
_cell_length_a       4.24132
_cell_length_b       4.42566
_cell_length_c       13.0558
_cell_angle_alpha    99.7582
_cell_angle_beta     99.348
_cell_angle_gamma    90

_space_group_name_H-M_alt    "P 1"
_space_group_IT_number       1

loop_
  _space_group_symop_operation_xyz
  'x, y, z'

loop_
  _atom_site_type_symbol
  _atom_site_label
  _atom_site_symmetry_multiplicity
  _atom_site_fract_x
  _atom_site_fract_y
  _atom_site_fract_z
  _atom_site_occupancy
  Ge  Ge1       1.0  0.55000  0.55000  0.09980  1.0000
  Ge  Ge2       1.0  0.69700  0.19700  0.39300  1.0000
  Ge  Ge3       1.0  0.30300  0.80300  0.60700  1.0000
  Ge  Ge4       1.0  0.45000  0.45000  0.90000  1.0000
  La  La1       1.0  0.00000  0.00000  0.00000  1.0000
  La  La2       1.0  0.14800  0.64800  0.29700  1.0000
  La  La3       1.0  0.85200  0.35200  0.70300  1.0000
  Pd  Pd1       1.0  0.59700  0.09750  0.19500  1.0000
  Pd  Pd2       1.0  0.75000  0.75000  0.50000  1.0000
  Pd  Pd3       1.0  0.25000  0.25000  0.50000  1.0000
  Pd  Pd4       1.0  0.40300  0.90300  0.80500  1.0000
