data_image0
_chemical_formula_structural       H4Mn4O8
_chemical_formula_sum              "H4 Mn4 O8"
_cell_length_a       10.5872
_cell_length_b       2.9055
_cell_length_c       4.51381
_cell_angle_alpha    90
_cell_angle_beta     90
_cell_angle_gamma    90

_space_group_name_H-M_alt    "P 1"
_space_group_IT_number       1

loop_
  _space_group_symop_operation_xyz
  'x, y, z'

loop_
  _atom_site_type_symbol
  _atom_site_label
  _atom_site_symmetry_multiplicity
  _atom_site_fract_x
  _atom_site_fract_y
  _atom_site_fract_z
  _atom_site_occupancy
  H   H1        1.0  0.39100  0.25000  0.90900  1.0000
  H   H2        1.0  0.60900  0.75000  0.09150  1.0000
  H   H3        1.0  0.10900  0.75000  0.40800  1.0000
  H   H4        1.0  0.89100  0.25000  0.59200  1.0000
  Mn  Mn1       1.0  0.86300  0.75000  0.05770  1.0000
  Mn  Mn2       1.0  0.36300  0.75000  0.44200  1.0000
  Mn  Mn3       1.0  0.63700  0.25000  0.55800  1.0000
  Mn  Mn4       1.0  0.13700  0.25000  0.94200  1.0000
  O   O1        1.0  0.31500  0.25000  0.18400  1.0000
  O   O2        1.0  0.06950  0.75000  0.19700  1.0000
  O   O3        1.0  0.57000  0.75000  0.30300  1.0000
  O   O4        1.0  0.81500  0.25000  0.31600  1.0000
  O   O5        1.0  0.18500  0.75000  0.68400  1.0000
  O   O6        1.0  0.43000  0.25000  0.69700  1.0000
  O   O7        1.0  0.93000  0.25000  0.80300  1.0000
  O   O8        1.0  0.68500  0.75000  0.81600  1.0000
