data_image0
_chemical_formula_structural       F4H4Hg4O4
_chemical_formula_sum              "F4 H4 Hg4 O4"
_cell_length_a       4.90792
_cell_length_b       5.85927
_cell_length_c       6.86841
_cell_angle_alpha    90
_cell_angle_beta     90
_cell_angle_gamma    90

_space_group_name_H-M_alt    "P 1"
_space_group_IT_number       1

loop_
  _space_group_symop_operation_xyz
  'x, y, z'

loop_
  _atom_site_type_symbol
  _atom_site_label
  _atom_site_symmetry_multiplicity
  _atom_site_fract_x
  _atom_site_fract_y
  _atom_site_fract_z
  _atom_site_occupancy
  F   F1        1.0  0.08950  0.88600  0.12200  1.0000
  F   F2        1.0  0.91000  0.38600  0.37800  1.0000
  F   F3        1.0  0.41000  0.11400  0.62200  1.0000
  F   F4        1.0  0.59000  0.61400  0.87800  1.0000
  H   H1        1.0  0.34400  0.01130  0.12100  1.0000
  H   H2        1.0  0.65600  0.51100  0.37900  1.0000
  H   H3        1.0  0.15600  0.98900  0.62100  1.0000
  H   H4        1.0  0.84400  0.48900  0.87900  1.0000
  Hg  Hg1       1.0  0.25500  0.48500  0.12600  1.0000
  Hg  Hg2       1.0  0.74500  0.98500  0.37400  1.0000
  Hg  Hg3       1.0  0.24500  0.51500  0.62600  1.0000
  Hg  Hg4       1.0  0.75500  0.01530  0.87400  1.0000
  O   O1        1.0  0.51900  0.11000  0.12500  1.0000
  O   O2        1.0  0.48100  0.61000  0.37500  1.0000
  O   O3        1.0  0.98100  0.89000  0.62500  1.0000
  O   O4        1.0  0.01850  0.39000  0.87500  1.0000
