data_image0
_chemical_formula_structural       MoO8V2
_chemical_formula_sum              "Mo1 O8 V2"
_cell_length_a       3.72209
_cell_length_b       3.87417
_cell_length_c       9.82118
_cell_angle_alpha    90.1981
_cell_angle_beta     100.923
_cell_angle_gamma    90

_space_group_name_H-M_alt    "P 1"
_space_group_IT_number       1

loop_
  _space_group_symop_operation_xyz
  'x, y, z'

loop_
  _atom_site_type_symbol
  _atom_site_label
  _atom_site_symmetry_multiplicity
  _atom_site_fract_x
  _atom_site_fract_y
  _atom_site_fract_z
  _atom_site_occupancy
  Mo  Mo1       1.0  0.00000  0.00000  0.00000  1.0000
  O   O1        1.0  0.50000  0.00000  0.00000  1.0000
  O   O2        1.0  0.00000  0.50000  0.00000  1.0000
  O   O3        1.0  0.09900  0.00604  0.19800  1.0000
  O   O4        1.0  0.18900  0.50800  0.37800  1.0000
  O   O5        1.0  0.70800  0.00408  0.41700  1.0000
  O   O6        1.0  0.29200  0.99600  0.58300  1.0000
  O   O7        1.0  0.81100  0.49200  0.62200  1.0000
  O   O8        1.0  0.90100  0.99400  0.80200  1.0000
  V   V1        1.0  0.19000  0.08820  0.38000  1.0000
  V   V2        1.0  0.81000  0.91200  0.62000  1.0000
