data_image0
_chemical_formula_structural       Ge4La3Rh4
_chemical_formula_sum              "Ge4 La3 Rh4"
_cell_length_a       4.19141
_cell_length_b       4.26984
_cell_length_c       13.0517
_cell_angle_alpha    99.4144
_cell_angle_beta     99.24
_cell_angle_gamma    90

_space_group_name_H-M_alt    "P 1"
_space_group_IT_number       1

loop_
  _space_group_symop_operation_xyz
  'x, y, z'

loop_
  _atom_site_type_symbol
  _atom_site_label
  _atom_site_symmetry_multiplicity
  _atom_site_fract_x
  _atom_site_fract_y
  _atom_site_fract_z
  _atom_site_occupancy
  Ge  Ge1       1.0  0.55000  0.55000  0.09920  1.0000
  Ge  Ge2       1.0  0.69800  0.19800  0.39700  1.0000
  Ge  Ge3       1.0  0.30200  0.80200  0.60300  1.0000
  Ge  Ge4       1.0  0.45000  0.45000  0.90100  1.0000
  La  La1       1.0  0.00000  0.00000  0.00000  1.0000
  La  La2       1.0  0.14500  0.64500  0.29100  1.0000
  La  La3       1.0  0.85500  0.35500  0.70900  1.0000
  Rh  Rh1       1.0  0.60000  0.10000  0.20000  1.0000
  Rh  Rh2       1.0  0.25000  0.25000  0.50000  1.0000
  Rh  Rh3       1.0  0.75000  0.75000  0.50000  1.0000
  Rh  Rh4       1.0  0.40000  0.90000  0.80000  1.0000
