data_image0
_chemical_formula_structural       Cu4Nd3Sn4
_chemical_formula_sum              "Cu4 Nd3 Sn4"
_cell_length_a       4.57886
_cell_length_b       7.01137
_cell_length_c       8.61273
_cell_angle_alpha    114.019
_cell_angle_beta     105.416
_cell_angle_gamma    90

_space_group_name_H-M_alt    "P 1"
_space_group_IT_number       1

loop_
  _space_group_symop_operation_xyz
  'x, y, z'

loop_
  _atom_site_type_symbol
  _atom_site_label
  _atom_site_symmetry_multiplicity
  _atom_site_fract_x
  _atom_site_fract_y
  _atom_site_fract_z
  _atom_site_occupancy
  Cu  Cu1       1.0  0.66800  0.48400  0.33600  1.0000
  Cu  Cu2       1.0  0.66800  0.85200  0.33600  1.0000
  Cu  Cu3       1.0  0.33200  0.14800  0.66400  1.0000
  Cu  Cu4       1.0  0.33200  0.51600  0.66400  1.0000
  Nd  Nd1       1.0  0.00000  0.50000  0.00000  1.0000
  Nd  Nd2       1.0  0.13300  0.13300  0.26700  1.0000
  Nd  Nd3       1.0  0.86700  0.86700  0.73300  1.0000
  Sn  Sn1       1.0  0.50000  0.20100  0.00000  1.0000
  Sn  Sn2       1.0  0.50000  0.79900  0.00000  1.0000
  Sn  Sn3       1.0  0.21600  0.71600  0.43200  1.0000
  Sn  Sn4       1.0  0.78400  0.28400  0.56800  1.0000
