data_image0
_chemical_formula_structural       Mn2Sn5Yb4
_chemical_formula_sum              "Mn2 Sn5 Yb4"
_cell_length_a       4.61396
_cell_length_b       7.70587
_cell_length_c       8.63316
_cell_angle_alpha    106.865
_cell_angle_beta     105.499
_cell_angle_gamma    90

_space_group_name_H-M_alt    "P 1"
_space_group_IT_number       1

loop_
  _space_group_symop_operation_xyz
  'x, y, z'

loop_
  _atom_site_type_symbol
  _atom_site_label
  _atom_site_symmetry_multiplicity
  _atom_site_fract_x
  _atom_site_fract_y
  _atom_site_fract_z
  _atom_site_occupancy
  Mn  Mn1       1.0  0.72500  0.11100  0.44900  1.0000
  Mn  Mn2       1.0  0.27500  0.88900  0.55100  1.0000
  Sn  Sn1       1.0  0.50000  0.50000  0.00000  1.0000
  Sn  Sn2       1.0  0.57100  0.16100  0.14300  1.0000
  Sn  Sn3       1.0  0.69700  0.74500  0.39400  1.0000
  Sn  Sn4       1.0  0.30300  0.25500  0.60600  1.0000
  Sn  Sn5       1.0  0.42900  0.83900  0.85700  1.0000
  Yb  Yb1       1.0  0.07900  0.86300  0.15800  1.0000
  Yb  Yb2       1.0  0.15000  0.44000  0.30100  1.0000
  Yb  Yb3       1.0  0.85000  0.56000  0.69900  1.0000
  Yb  Yb4       1.0  0.92100  0.13700  0.84200  1.0000
