data_image0
_chemical_formula_structural       Ge4Pd4Tm3
_chemical_formula_sum              "Ge4 Pd4 Tm3"
_cell_length_a       4.14427
_cell_length_b       7.08793
_cell_length_c       8.06733
_cell_angle_alpha    116.059
_cell_angle_beta     104.884
_cell_angle_gamma    90

_space_group_name_H-M_alt    "P 1"
_space_group_IT_number       1

loop_
  _space_group_symop_operation_xyz
  'x, y, z'

loop_
  _atom_site_type_symbol
  _atom_site_label
  _atom_site_symmetry_multiplicity
  _atom_site_fract_x
  _atom_site_fract_y
  _atom_site_fract_z
  _atom_site_occupancy
  Ge  Ge1       1.0  0.50000  0.31200  0.00000  1.0000
  Ge  Ge2       1.0  0.50000  0.68800  0.00000  1.0000
  Ge  Ge3       1.0  0.21800  0.21800  0.43600  1.0000
  Ge  Ge4       1.0  0.78200  0.78200  0.56400  1.0000
  Pd  Pd1       1.0  0.67500  0.37600  0.35000  1.0000
  Pd  Pd2       1.0  0.67500  0.97400  0.35000  1.0000
  Pd  Pd3       1.0  0.32500  0.02650  0.65000  1.0000
  Pd  Pd4       1.0  0.32500  0.62400  0.65000  1.0000
  Tm  Tm1       1.0  0.00000  0.00000  0.00000  1.0000
  Tm  Tm2       1.0  0.12600  0.62600  0.25100  1.0000
  Tm  Tm3       1.0  0.87400  0.37400  0.74900  1.0000
