data_image0
_chemical_formula_structural       As2K2S6Sn
_chemical_formula_sum              "As2 K2 S6 Sn1"
_cell_length_a       6.76913
_cell_length_b       6.7691
_cell_length_c       7.32324
_cell_angle_alpha    90.0003
_cell_angle_beta     89.9988
_cell_angle_gamma    119.999

_space_group_name_H-M_alt    "P 1"
_space_group_IT_number       1

loop_
  _space_group_symop_operation_xyz
  'x, y, z'

loop_
  _atom_site_type_symbol
  _atom_site_label
  _atom_site_symmetry_multiplicity
  _atom_site_fract_x
  _atom_site_fract_y
  _atom_site_fract_z
  _atom_site_occupancy
  As  As1       1.0  0.33300  0.66700  0.06810  1.0000
  As  As2       1.0  0.66700  0.33300  0.93200  1.0000
  K   K1        1.0  0.66700  0.33300  0.39600  1.0000
  K   K2        1.0  0.33300  0.66700  0.60400  1.0000
  S   S1        1.0  0.11400  0.33700  0.22500  1.0000
  S   S2        1.0  0.22400  0.88600  0.22500  1.0000
  S   S3        1.0  0.66300  0.77600  0.22500  1.0000
  S   S4        1.0  0.33700  0.22400  0.77500  1.0000
  S   S5        1.0  0.77600  0.11400  0.77500  1.0000
  S   S6        1.0  0.88600  0.66300  0.77500  1.0000
  Sn  Sn1       1.0  0.00000  0.00000  0.00000  1.0000
