data_image0
_chemical_formula_structural       Ag4Nd3Sn4
_chemical_formula_sum              "Ag4 Nd3 Sn4"
_cell_length_a       4.66501
_cell_length_b       7.40165
_cell_length_c       8.91784
_cell_angle_alpha    114.519
_cell_angle_beta     105.162
_cell_angle_gamma    90

_space_group_name_H-M_alt    "P 1"
_space_group_IT_number       1

loop_
  _space_group_symop_operation_xyz
  'x, y, z'

loop_
  _atom_site_type_symbol
  _atom_site_label
  _atom_site_symmetry_multiplicity
  _atom_site_fract_x
  _atom_site_fract_y
  _atom_site_fract_z
  _atom_site_occupancy
  Ag  Ag1       1.0  0.67000  0.47500  0.34000  1.0000
  Ag  Ag2       1.0  0.67000  0.86600  0.34000  1.0000
  Ag  Ag3       1.0  0.33000  0.13400  0.66000  1.0000
  Ag  Ag4       1.0  0.33000  0.52500  0.66000  1.0000
  Nd  Nd1       1.0  0.00000  0.50000  0.00000  1.0000
  Nd  Nd2       1.0  0.12900  0.12900  0.25800  1.0000
  Nd  Nd3       1.0  0.87100  0.87100  0.74200  1.0000
  Sn  Sn1       1.0  0.50000  0.19500  0.00000  1.0000
  Sn  Sn2       1.0  0.50000  0.80500  0.00000  1.0000
  Sn  Sn3       1.0  0.21500  0.71500  0.43100  1.0000
  Sn  Sn4       1.0  0.78500  0.28500  0.56900  1.0000
