data_image0
_chemical_formula_structural       Cu4Sc3Si4
_chemical_formula_sum              "Cu4 Sc3 Si4"
_cell_length_a       3.94575
_cell_length_b       6.4118
_cell_length_c       7.54571
_cell_angle_alpha    115.142
_cell_angle_beta     105.157
_cell_angle_gamma    90

_space_group_name_H-M_alt    "P 1"
_space_group_IT_number       1

loop_
  _space_group_symop_operation_xyz
  'x, y, z'

loop_
  _atom_site_type_symbol
  _atom_site_label
  _atom_site_symmetry_multiplicity
  _atom_site_fract_x
  _atom_site_fract_y
  _atom_site_fract_z
  _atom_site_occupancy
  Cu  Cu1       1.0  0.67100  0.47700  0.34200  1.0000
  Cu  Cu2       1.0  0.67100  0.86500  0.34200  1.0000
  Cu  Cu3       1.0  0.32900  0.13500  0.65800  1.0000
  Cu  Cu4       1.0  0.32900  0.52300  0.65800  1.0000
  Sc  Sc1       1.0  0.00000  0.50000  0.00000  1.0000
  Sc  Sc2       1.0  0.12600  0.12600  0.25200  1.0000
  Sc  Sc3       1.0  0.87400  0.87400  0.74800  1.0000
  Si  Si1       1.0  0.50000  0.18700  0.00000  1.0000
  Si  Si2       1.0  0.50000  0.81300  0.00000  1.0000
  Si  Si3       1.0  0.21700  0.71700  0.43400  1.0000
  Si  Si4       1.0  0.78300  0.28300  0.56600  1.0000
