data_image0
_chemical_formula_structural       O7V2Zn2
_chemical_formula_sum              "O7 V2 Zn2"
_cell_length_a       5.00504
_cell_length_b       5.3666
_cell_length_c       5.3666
_cell_angle_alpha    103.95
_cell_angle_beta     99.458
_cell_angle_gamma    99.458

_space_group_name_H-M_alt    "P 1"
_space_group_IT_number       1

loop_
  _space_group_symop_operation_xyz
  'x, y, z'

loop_
  _atom_site_type_symbol
  _atom_site_label
  _atom_site_symmetry_multiplicity
  _atom_site_fract_x
  _atom_site_fract_y
  _atom_site_fract_z
  _atom_site_occupancy
  O   O1        1.0  0.00000  0.00000  0.00000  1.0000
  O   O2        1.0  0.71100  0.39400  0.05410  1.0000
  O   O3        1.0  0.71100  0.05410  0.39400  1.0000
  O   O4        1.0  0.22500  0.42800  0.42800  1.0000
  O   O5        1.0  0.77500  0.57200  0.57200  1.0000
  O   O6        1.0  0.28900  0.94600  0.60600  1.0000
  O   O7        1.0  0.28900  0.60600  0.94600  1.0000
  V   V1        1.0  0.90100  0.23800  0.23800  1.0000
  V   V2        1.0  0.09910  0.76200  0.76200  1.0000
  Zn  Zn1       1.0  0.50000  0.68600  0.31400  1.0000
  Zn  Zn2       1.0  0.50000  0.31400  0.68600  1.0000
