data_image0
_chemical_formula_structural       Sb6Te6
_chemical_formula_sum              "Sb6 Te6"
_cell_length_a       4.35024
_cell_length_b       4.35027
_cell_length_c       24.1652
_cell_angle_alpha    90
_cell_angle_beta     90.0011
_cell_angle_gamma    120

_space_group_name_H-M_alt    "P 1"
_space_group_IT_number       1

loop_
  _space_group_symop_operation_xyz
  'x, y, z'

loop_
  _atom_site_type_symbol
  _atom_site_label
  _atom_site_symmetry_multiplicity
  _atom_site_fract_x
  _atom_site_fract_y
  _atom_site_fract_z
  _atom_site_occupancy
  Sb  Sb1       1.0  0.00001  0.00001  0.12800  1.0000
  Sb  Sb2       1.0  0.33300  0.66700  0.29200  1.0000
  Sb  Sb3       1.0  0.66700  0.33300  0.46800  1.0000
  Sb  Sb4       1.0  0.33300  0.66700  0.53200  1.0000
  Sb  Sb5       1.0  0.66700  0.33300  0.70800  1.0000
  Sb  Sb6       1.0  0.00000  0.00000  0.87200  1.0000
  Te  Te1       1.0  0.33300  0.66700  0.05790  1.0000
  Te  Te2       1.0  0.66700  0.33300  0.21000  1.0000
  Te  Te3       1.0  0.00001  0.00001  0.36300  1.0000
  Te  Te4       1.0  0.00000  0.00000  0.63700  1.0000
  Te  Te5       1.0  0.33300  0.66700  0.79000  1.0000
  Te  Te6       1.0  0.66700  0.33300  0.94200  1.0000
