data_image0
_chemical_formula_structural       H4I4O4Sr4
_chemical_formula_sum              "H4 I4 O4 Sr4"
_cell_length_a       7.69992
_cell_length_b       4.2248
_cell_length_c       10.782
_cell_angle_alpha    90
_cell_angle_beta     90
_cell_angle_gamma    90

_space_group_name_H-M_alt    "P 1"
_space_group_IT_number       1

loop_
  _space_group_symop_operation_xyz
  'x, y, z'

loop_
  _atom_site_type_symbol
  _atom_site_label
  _atom_site_symmetry_multiplicity
  _atom_site_fract_x
  _atom_site_fract_y
  _atom_site_fract_z
  _atom_site_occupancy
  H   H1        1.0  0.78000  0.25000  0.09920  1.0000
  H   H2        1.0  0.28000  0.25000  0.40100  1.0000
  H   H3        1.0  0.72000  0.75000  0.59900  1.0000
  H   H4        1.0  0.22000  0.75000  0.90100  1.0000
  I   I1        1.0  0.52500  0.75000  0.18000  1.0000
  I   I2        1.0  0.02460  0.75000  0.32000  1.0000
  I   I3        1.0  0.97500  0.25000  0.68000  1.0000
  I   I4        1.0  0.47500  0.25000  0.82000  1.0000
  O   O1        1.0  0.86600  0.25000  0.03270  1.0000
  O   O2        1.0  0.36600  0.25000  0.46700  1.0000
  O   O3        1.0  0.63400  0.75000  0.53300  1.0000
  O   O4        1.0  0.13400  0.75000  0.96700  1.0000
  Sr  Sr1       1.0  0.18000  0.25000  0.08050  1.0000
  Sr  Sr2       1.0  0.68000  0.25000  0.41900  1.0000
  Sr  Sr3       1.0  0.32000  0.75000  0.58100  1.0000
  Sr  Sr4       1.0  0.82000  0.75000  0.91900  1.0000
