data_image0
_chemical_formula_structural       Cu4Ge4U3
_chemical_formula_sum              "Cu4 Ge4 U3"
_cell_length_a       4.33119
_cell_length_b       6.51347
_cell_length_c       7.91874
_cell_angle_alpha    114.285
_cell_angle_beta     105.871
_cell_angle_gamma    90

_space_group_name_H-M_alt    "P 1"
_space_group_IT_number       1

loop_
  _space_group_symop_operation_xyz
  'x, y, z'

loop_
  _atom_site_type_symbol
  _atom_site_label
  _atom_site_symmetry_multiplicity
  _atom_site_fract_x
  _atom_site_fract_y
  _atom_site_fract_z
  _atom_site_occupancy
  Cu  Cu1       1.0  0.67100  0.48000  0.34100  1.0000
  Cu  Cu2       1.0  0.67100  0.86100  0.34100  1.0000
  Cu  Cu3       1.0  0.32900  0.13900  0.65900  1.0000
  Cu  Cu4       1.0  0.32900  0.52000  0.65900  1.0000
  Ge  Ge1       1.0  0.50000  0.19800  0.00000  1.0000
  Ge  Ge2       1.0  0.50000  0.80200  0.00000  1.0000
  Ge  Ge3       1.0  0.21600  0.71600  0.43200  1.0000
  Ge  Ge4       1.0  0.78400  0.28400  0.56800  1.0000
  U   U1        1.0  0.00000  0.50000  0.00000  1.0000
  U   U2        1.0  0.12400  0.12400  0.24800  1.0000
  U   U3        1.0  0.87600  0.87600  0.75200  1.0000
