data_image0
_chemical_formula_structural       Cd2F8Tb
_chemical_formula_sum              "Cd2 F8 Tb1"
_cell_length_a       5.09424
_cell_length_b       5.09424
_cell_length_c       6.62326
_cell_angle_alpha    112.617
_cell_angle_beta     112.617
_cell_angle_gamma    90

_space_group_name_H-M_alt    "P 1"
_space_group_IT_number       1

loop_
  _space_group_symop_operation_xyz
  'x, y, z'

loop_
  _atom_site_type_symbol
  _atom_site_label
  _atom_site_symmetry_multiplicity
  _atom_site_fract_x
  _atom_site_fract_y
  _atom_site_fract_z
  _atom_site_occupancy
  Cd  Cd1       1.0  0.67400  0.67400  0.34800  1.0000
  Cd  Cd2       1.0  0.32600  0.32600  0.65200  1.0000
  F   F1        1.0  0.70100  0.26400  0.11200  1.0000
  F   F2        1.0  0.41200  0.84900  0.11200  1.0000
  F   F3        1.0  0.02360  0.95100  0.34200  1.0000
  F   F4        1.0  0.31900  0.39200  0.34200  1.0000
  F   F5        1.0  0.60800  0.97600  0.65800  1.0000
  F   F6        1.0  0.04910  0.68100  0.65800  1.0000
  F   F7        1.0  0.15100  0.29900  0.88800  1.0000
  F   F8        1.0  0.73600  0.58800  0.88800  1.0000
  Tb  Tb1       1.0  0.00000  0.00000  0.00000  1.0000
