data_image0
_chemical_formula_structural       S4V5
_chemical_formula_sum              "S4 V5"
_cell_length_a       3.16215
_cell_length_b       6.51774
_cell_length_c       6.51774
_cell_angle_alpha    93.3735
_cell_angle_beta     104.039
_cell_angle_gamma    75.9611

_space_group_name_H-M_alt    "P 1"
_space_group_IT_number       1

loop_
  _space_group_symop_operation_xyz
  'x, y, z'

loop_
  _atom_site_type_symbol
  _atom_site_label
  _atom_site_symmetry_multiplicity
  _atom_site_fract_x
  _atom_site_fract_y
  _atom_site_fract_z
  _atom_site_occupancy
  S   S1        1.0  0.93800  0.33400  0.21000  1.0000
  S   S2        1.0  0.27200  0.79000  0.33400  1.0000
  S   S3        1.0  0.72800  0.21000  0.66600  1.0000
  S   S4        1.0  0.06200  0.66600  0.79000  1.0000
  V   V1        1.0  0.00000  0.00000  0.00000  1.0000
  V   V2        1.0  0.69900  0.67900  0.07780  1.0000
  V   V3        1.0  0.62100  0.07780  0.32100  1.0000
  V   V4        1.0  0.37900  0.92200  0.67900  1.0000
  V   V5        1.0  0.30100  0.32100  0.92200  1.0000
