data_image0
_chemical_formula_structural       B3C4Gd4
_chemical_formula_sum              "B3 C4 Gd4"
_cell_length_a       3.61664
_cell_length_b       3.65859
_cell_length_c       12.0338
_cell_angle_alpha    92.6758
_cell_angle_beta     98.9001
_cell_angle_gamma    90.0727

_space_group_name_H-M_alt    "P 1"
_space_group_IT_number       1

loop_
  _space_group_symop_operation_xyz
  'x, y, z'

loop_
  _atom_site_type_symbol
  _atom_site_label
  _atom_site_symmetry_multiplicity
  _atom_site_fract_x
  _atom_site_fract_y
  _atom_site_fract_z
  _atom_site_occupancy
  B   B1        1.0  0.00000  0.00000  0.00000  1.0000
  B   B2        1.0  0.79800  0.49600  0.45400  1.0000
  B   B3        1.0  0.20200  0.50400  0.54600  1.0000
  C   C1        1.0  0.08720  0.94900  0.12200  1.0000
  C   C2        1.0  0.70000  0.47800  0.33000  1.0000
  C   C3        1.0  0.30000  0.52200  0.67000  1.0000
  C   C4        1.0  0.91300  0.05100  0.87800  1.0000
  Gd  Gd1       1.0  0.59600  0.45100  0.13700  1.0000
  Gd  Gd2       1.0  0.20900  0.98200  0.34800  1.0000
  Gd  Gd3       1.0  0.79100  0.01810  0.65200  1.0000
  Gd  Gd4       1.0  0.40400  0.54900  0.86300  1.0000
