data_image0
_chemical_formula_structural       Cl6K4Mn
_chemical_formula_sum              "Cl6 K4 Mn1"
_cell_length_a       7.65667
_cell_length_b       7.65667
_cell_length_c       7.65667
_cell_angle_alpha    109.48
_cell_angle_beta     109.48
_cell_angle_gamma    109.48

_space_group_name_H-M_alt    "P 1"
_space_group_IT_number       1

loop_
  _space_group_symop_operation_xyz
  'x, y, z'

loop_
  _atom_site_type_symbol
  _atom_site_label
  _atom_site_symmetry_multiplicity
  _atom_site_fract_x
  _atom_site_fract_y
  _atom_site_fract_z
  _atom_site_occupancy
  Cl  Cl1       1.0  0.50000  0.21000  0.21000  1.0000
  Cl  Cl2       1.0  0.21000  0.50000  0.21000  1.0000
  Cl  Cl3       1.0  0.79000  0.79000  0.50000  1.0000
  Cl  Cl4       1.0  0.21000  0.21000  0.50000  1.0000
  Cl  Cl5       1.0  0.79000  0.50000  0.79000  1.0000
  Cl  Cl6       1.0  0.50000  0.79000  0.79000  1.0000
  K   K1        1.0  0.00000  0.00000  0.00000  1.0000
  K   K2        1.0  0.00000  0.50000  0.50000  1.0000
  K   K3        1.0  0.50000  0.00000  0.50000  1.0000
  K   K4        1.0  0.50000  0.50000  0.00000  1.0000
  Mn  Mn1       1.0  0.50000  0.50000  0.50000  1.0000
