data_image0
_chemical_formula_structural       MnSnTe4Tl2
_chemical_formula_sum              "Mn1 Sn1 Te4 Tl2"
_cell_length_a       7.06986
_cell_length_b       7.06986
_cell_length_c       7.06986
_cell_angle_alpha    119.9
_cell_angle_beta     104.522
_cell_angle_gamma    104.522

_space_group_name_H-M_alt    "P 1"
_space_group_IT_number       1

loop_
  _space_group_symop_operation_xyz
  'x, y, z'

loop_
  _atom_site_type_symbol
  _atom_site_label
  _atom_site_symmetry_multiplicity
  _atom_site_fract_x
  _atom_site_fract_y
  _atom_site_fract_z
  _atom_site_occupancy
  Mn  Mn1       1.0  0.00000  0.50000  0.50000  1.0000
  Sn  Sn1       1.0  0.00000  0.00000  0.00000  1.0000
  Te  Te1       1.0  0.00000  0.43000  0.07870  1.0000
  Te  Te2       1.0  0.00000  0.07870  0.43000  1.0000
  Te  Te3       1.0  0.64800  0.57000  0.57000  1.0000
  Te  Te4       1.0  0.35200  0.92100  0.92100  1.0000
  Tl  Tl1       1.0  0.50000  0.50000  0.00000  1.0000
  Tl  Tl2       1.0  0.50000  0.00000  0.50000  1.0000
