data_image0
_chemical_formula_structural       BaF8Tm2
_chemical_formula_sum              "Ba1 F8 Tm2"
_cell_length_a       4.15002
_cell_length_b       6.13467
_cell_length_c       6.13467
_cell_angle_alpha    112.959
_cell_angle_beta     95.3649
_cell_angle_gamma    95.3649

_space_group_name_H-M_alt    "P 1"
_space_group_IT_number       1

loop_
  _space_group_symop_operation_xyz
  'x, y, z'

loop_
  _atom_site_type_symbol
  _atom_site_label
  _atom_site_symmetry_multiplicity
  _atom_site_fract_x
  _atom_site_fract_y
  _atom_site_fract_z
  _atom_site_occupancy
  Ba  Ba1       1.0  0.00000  0.00000  0.00000  1.0000
  F   F1        1.0  0.56400  0.32700  0.04830  1.0000
  F   F2        1.0  0.00000  0.73900  0.26100  1.0000
  F   F3        1.0  0.56400  0.04830  0.32700  1.0000
  F   F4        1.0  0.21700  0.39300  0.39300  1.0000
  F   F5        1.0  0.78300  0.60700  0.60700  1.0000
  F   F6        1.0  0.43600  0.95200  0.67300  1.0000
  F   F7        1.0  0.00000  0.26100  0.73900  1.0000
  F   F8        1.0  0.43600  0.67300  0.95200  1.0000
  Tm  Tm1       1.0  0.50000  0.67600  0.32400  1.0000
  Tm  Tm2       1.0  0.50000  0.32400  0.67600  1.0000
