data_image0
_chemical_formula_structural       La3O7Ta
_chemical_formula_sum              "La3 O7 Ta1"
_cell_length_a       3.93938
_cell_length_b       6.73606
_cell_length_c       6.73606
_cell_angle_alpha    110.556
_cell_angle_beta     90
_cell_angle_gamma    90

_space_group_name_H-M_alt    "P 1"
_space_group_IT_number       1

loop_
  _space_group_symop_operation_xyz
  'x, y, z'

loop_
  _atom_site_type_symbol
  _atom_site_label
  _atom_site_symmetry_multiplicity
  _atom_site_fract_x
  _atom_site_fract_y
  _atom_site_fract_z
  _atom_site_occupancy
  La  La1       1.0  0.50000  0.50000  0.00000  1.0000
  La  La2       1.0  0.00000  0.00000  0.00000  1.0000
  La  La3       1.0  0.50000  0.00000  0.50000  1.0000
  O   O1        1.0  0.50000  0.87000  0.13000  1.0000
  O   O2        1.0  0.00000  0.43200  0.18400  1.0000
  O   O3        1.0  0.00000  0.18400  0.43200  1.0000
  O   O4        1.0  0.50000  0.50000  0.50000  1.0000
  O   O5        1.0  0.00000  0.81600  0.56800  1.0000
  O   O6        1.0  0.00000  0.56800  0.81600  1.0000
  O   O7        1.0  0.50000  0.13000  0.87000  1.0000
  Ta  Ta1       1.0  0.00000  0.50000  0.50000  1.0000
