data_image0
_chemical_formula_structural       C6Lu4N12
_chemical_formula_sum              "C6 Lu4 N12"
_cell_length_a       10.495
_cell_length_b       10.4952
_cell_length_c       10.4981
_cell_angle_alpha    32.7044
_cell_angle_beta     32.7043
_cell_angle_gamma    32.7064

_space_group_name_H-M_alt    "P 1"
_space_group_IT_number       1

loop_
  _space_group_symop_operation_xyz
  'x, y, z'

loop_
  _atom_site_type_symbol
  _atom_site_label
  _atom_site_symmetry_multiplicity
  _atom_site_fract_x
  _atom_site_fract_y
  _atom_site_fract_z
  _atom_site_occupancy
  C   C1        1.0  0.75000  0.42900  0.07060  1.0000
  C   C2        1.0  0.07060  0.75000  0.42900  1.0000
  C   C3        1.0  0.42900  0.07060  0.75000  1.0000
  C   C4        1.0  0.25000  0.57100  0.92900  1.0000
  C   C5        1.0  0.92900  0.25000  0.57100  1.0000
  C   C6        1.0  0.57100  0.92900  0.25000  1.0000
  Lu  Lu1       1.0  0.33300  0.33300  0.33300  1.0000
  Lu  Lu2       1.0  0.16700  0.16700  0.16700  1.0000
  Lu  Lu3       1.0  0.66700  0.66700  0.66700  1.0000
  Lu  Lu4       1.0  0.83300  0.83300  0.83300  1.0000
  N   N1        1.0  0.66700  0.41300  0.04840  1.0000
  N   N2        1.0  0.04860  0.66700  0.41300  1.0000
  N   N3        1.0  0.41300  0.04870  0.66600  1.0000
  N   N4        1.0  0.08680  0.83300  0.45200  1.0000
  N   N5        1.0  0.83300  0.45100  0.08700  1.0000
  N   N6        1.0  0.45100  0.08670  0.83400  1.0000
  N   N7        1.0  0.33300  0.58700  0.95200  1.0000
  N   N8        1.0  0.95100  0.33300  0.58700  1.0000
  N   N9        1.0  0.58700  0.95100  0.33400  1.0000
  N   N10       1.0  0.91300  0.16700  0.54800  1.0000
  N   N11       1.0  0.16700  0.54900  0.91300  1.0000
  N   N12       1.0  0.54900  0.91300  0.16600  1.0000
