data_image0
_chemical_formula_structural       B3C4Lu4
_chemical_formula_sum              "B3 C4 Lu4"
_cell_length_a       3.40404
_cell_length_b       3.49545
_cell_length_c       11.7551
_cell_angle_alpha    92.6806
_cell_angle_beta     96.0261
_cell_angle_gamma    90.1554

_space_group_name_H-M_alt    "P 1"
_space_group_IT_number       1

loop_
  _space_group_symop_operation_xyz
  'x, y, z'

loop_
  _atom_site_type_symbol
  _atom_site_label
  _atom_site_symmetry_multiplicity
  _atom_site_fract_x
  _atom_site_fract_y
  _atom_site_fract_z
  _atom_site_occupancy
  B   B1        1.0  0.00000  0.00000  0.00000  1.0000
  B   B2        1.0  0.73300  0.49300  0.46000  1.0000
  B   B3        1.0  0.26700  0.50700  0.54000  1.0000
  C   C1        1.0  0.11400  0.93600  0.12100  1.0000
  C   C2        1.0  0.68800  0.47200  0.33100  1.0000
  C   C3        1.0  0.31200  0.52800  0.66900  1.0000
  C   C4        1.0  0.88600  0.06380  0.87900  1.0000
  Lu  Lu1       1.0  0.61600  0.44600  0.14100  1.0000
  Lu  Lu2       1.0  0.19500  0.97500  0.35000  1.0000
  Lu  Lu3       1.0  0.80500  0.02490  0.65000  1.0000
  Lu  Lu4       1.0  0.38400  0.55400  0.85900  1.0000
