data_image0
_chemical_formula_structural       Cu4Sn4Y3
_chemical_formula_sum              "Cu4 Sn4 Y3"
_cell_length_a       4.46212
_cell_length_b       6.9437
_cell_length_c       8.42554
_cell_angle_alpha    114.334
_cell_angle_beta     105.355
_cell_angle_gamma    90

_space_group_name_H-M_alt    "P 1"
_space_group_IT_number       1

loop_
  _space_group_symop_operation_xyz
  'x, y, z'

loop_
  _atom_site_type_symbol
  _atom_site_label
  _atom_site_symmetry_multiplicity
  _atom_site_fract_x
  _atom_site_fract_y
  _atom_site_fract_z
  _atom_site_occupancy
  Cu  Cu1       1.0  0.67100  0.48300  0.34300  1.0000
  Cu  Cu2       1.0  0.67100  0.86000  0.34300  1.0000
  Cu  Cu3       1.0  0.32900  0.14000  0.65700  1.0000
  Cu  Cu4       1.0  0.32900  0.51700  0.65700  1.0000
  Sn  Sn1       1.0  0.50000  0.20300  0.00000  1.0000
  Sn  Sn2       1.0  0.50000  0.79700  0.00000  1.0000
  Sn  Sn3       1.0  0.21600  0.71600  0.43300  1.0000
  Sn  Sn4       1.0  0.78400  0.28400  0.56700  1.0000
  Y   Y1        1.0  0.00000  0.50000  0.00000  1.0000
  Y   Y2        1.0  0.13100  0.13100  0.26200  1.0000
  Y   Y3        1.0  0.86900  0.86900  0.73800  1.0000
