data_image0
_chemical_formula_structural       Cu4Si4Tb3
_chemical_formula_sum              "Cu4 Si4 Tb3"
_cell_length_a       4.14611
_cell_length_b       6.54442
_cell_length_c       7.87692
_cell_angle_alpha    114.546
_cell_angle_beta     105.259
_cell_angle_gamma    90

_space_group_name_H-M_alt    "P 1"
_space_group_IT_number       1

loop_
  _space_group_symop_operation_xyz
  'x, y, z'

loop_
  _atom_site_type_symbol
  _atom_site_label
  _atom_site_symmetry_multiplicity
  _atom_site_fract_x
  _atom_site_fract_y
  _atom_site_fract_z
  _atom_site_occupancy
  Cu  Cu1       1.0  0.66900  0.47800  0.33700  1.0000
  Cu  Cu2       1.0  0.66900  0.85900  0.33700  1.0000
  Cu  Cu3       1.0  0.33100  0.14100  0.66300  1.0000
  Cu  Cu4       1.0  0.33100  0.52200  0.66300  1.0000
  Si  Si1       1.0  0.50000  0.18500  0.00000  1.0000
  Si  Si2       1.0  0.50000  0.81500  0.00000  1.0000
  Si  Si3       1.0  0.21600  0.71600  0.43300  1.0000
  Si  Si4       1.0  0.78400  0.28400  0.56700  1.0000
  Tb  Tb1       1.0  0.00000  0.50000  0.00000  1.0000
  Tb  Tb2       1.0  0.13000  0.13000  0.26000  1.0000
  Tb  Tb3       1.0  0.87000  0.87000  0.74000  1.0000
