data_image0
_chemical_formula_structural       Bi2Ge3Te6
_chemical_formula_sum              "Bi2 Ge3 Te6"
_cell_length_a       4.29474
_cell_length_b       4.29474
_cell_length_c       21.9267
_cell_angle_alpha    84.3798
_cell_angle_beta     95.6202
_cell_angle_gamma    120

_space_group_name_H-M_alt    "P 1"
_space_group_IT_number       1

loop_
  _space_group_symop_operation_xyz
  'x, y, z'

loop_
  _atom_site_type_symbol
  _atom_site_label
  _atom_site_symmetry_multiplicity
  _atom_site_fract_x
  _atom_site_fract_y
  _atom_site_fract_z
  _atom_site_occupancy
  Bi  Bi1       1.0  0.72800  0.27200  0.18500  1.0000
  Bi  Bi2       1.0  0.99700  0.00294  0.99100  1.0000
  Ge  Ge1       1.0  0.45600  0.54400  0.36700  1.0000
  Ge  Ge2       1.0  0.54600  0.45400  0.63900  1.0000
  Ge  Ge3       1.0  0.26900  0.73100  0.80800  1.0000
  Te  Te1       1.0  0.36200  0.63800  0.08730  1.0000
  Te  Te2       1.0  0.08940  0.91100  0.26800  1.0000
  Te  Te3       1.0  0.81000  0.19000  0.43100  1.0000
  Te  Te4       1.0  0.19200  0.80800  0.57500  1.0000
  Te  Te5       1.0  0.91400  0.08560  0.74300  1.0000
  Te  Te6       1.0  0.63600  0.36400  0.90700  1.0000
