data_image0
_chemical_formula_structural       Ba4H4I4O4
_chemical_formula_sum              "Ba4 H4 I4 O4"
_cell_length_a       7.99651
_cell_length_b       4.4847
_cell_length_c       11.1775
_cell_angle_alpha    90
_cell_angle_beta     90
_cell_angle_gamma    90

_space_group_name_H-M_alt    "P 1"
_space_group_IT_number       1

loop_
  _space_group_symop_operation_xyz
  'x, y, z'

loop_
  _atom_site_type_symbol
  _atom_site_label
  _atom_site_symmetry_multiplicity
  _atom_site_fract_x
  _atom_site_fract_y
  _atom_site_fract_z
  _atom_site_occupancy
  Ba  Ba1       1.0  0.19000  0.25000  0.08230  1.0000
  Ba  Ba2       1.0  0.69000  0.25000  0.41800  1.0000
  Ba  Ba3       1.0  0.31000  0.75000  0.58200  1.0000
  Ba  Ba4       1.0  0.81000  0.75000  0.91800  1.0000
  H   H1        1.0  0.78700  0.25000  0.10200  1.0000
  H   H2        1.0  0.28700  0.25000  0.39800  1.0000
  H   H3        1.0  0.71300  0.75000  0.60200  1.0000
  H   H4        1.0  0.21300  0.75000  0.89800  1.0000
  I   I1        1.0  0.53200  0.75000  0.18000  1.0000
  I   I2        1.0  0.03150  0.75000  0.32000  1.0000
  I   I3        1.0  0.96800  0.25000  0.68000  1.0000
  I   I4        1.0  0.46800  0.25000  0.82000  1.0000
  O   O1        1.0  0.86600  0.25000  0.03550  1.0000
  O   O2        1.0  0.36600  0.25000  0.46400  1.0000
  O   O3        1.0  0.63400  0.75000  0.53600  1.0000
  O   O4        1.0  0.13400  0.75000  0.96400  1.0000
