data_image0
_chemical_formula_structural       K2O2Tl2
_chemical_formula_sum              "K2 O2 Tl2"
_cell_length_a       3.64097
_cell_length_b       6.29017
_cell_length_c       6.65465
_cell_angle_alpha    106.309
_cell_angle_beta     105.877
_cell_angle_gamma    90

_space_group_name_H-M_alt    "P 1"
_space_group_IT_number       1

loop_
  _space_group_symop_operation_xyz
  'x, y, z'

loop_
  _atom_site_type_symbol
  _atom_site_label
  _atom_site_symmetry_multiplicity
  _atom_site_fract_x
  _atom_site_fract_y
  _atom_site_fract_z
  _atom_site_occupancy
  K   K1        1.0  0.12800  0.34700  0.25600  1.0000
  K   K2        1.0  0.87200  0.65300  0.74400  1.0000
  O   O1        1.0  0.74900  0.22000  0.49900  1.0000
  O   O2        1.0  0.25100  0.78000  0.50100  1.0000
  Tl  Tl1       1.0  0.63500  0.84700  0.27100  1.0000
  Tl  Tl2       1.0  0.36500  0.15300  0.72900  1.0000
