data_image0
_chemical_formula_structural       Cu4Ho3Sn4
_chemical_formula_sum              "Cu4 Ho3 Sn4"
_cell_length_a       4.45149
_cell_length_b       6.9297
_cell_length_c       8.40795
_cell_angle_alpha    114.336
_cell_angle_beta     105.35
_cell_angle_gamma    90

_space_group_name_H-M_alt    "P 1"
_space_group_IT_number       1

loop_
  _space_group_symop_operation_xyz
  'x, y, z'

loop_
  _atom_site_type_symbol
  _atom_site_label
  _atom_site_symmetry_multiplicity
  _atom_site_fract_x
  _atom_site_fract_y
  _atom_site_fract_z
  _atom_site_occupancy
  Cu  Cu1       1.0  0.67100  0.48200  0.34300  1.0000
  Cu  Cu2       1.0  0.67100  0.86100  0.34300  1.0000
  Cu  Cu3       1.0  0.32900  0.13900  0.65700  1.0000
  Cu  Cu4       1.0  0.32900  0.51800  0.65700  1.0000
  Ho  Ho1       1.0  0.00000  0.50000  0.00000  1.0000
  Ho  Ho2       1.0  0.13100  0.13100  0.26100  1.0000
  Ho  Ho3       1.0  0.86900  0.86900  0.73900  1.0000
  Sn  Sn1       1.0  0.50000  0.20400  0.00000  1.0000
  Sn  Sn2       1.0  0.50000  0.79600  0.00000  1.0000
  Sn  Sn3       1.0  0.21600  0.71600  0.43200  1.0000
  Sn  Sn4       1.0  0.78400  0.28400  0.56800  1.0000
