data_image0
_chemical_formula_structural       Er4Ge4InNi2
_chemical_formula_sum              "Er4 Ge4 In1 Ni2"
_cell_length_a       4.21077
_cell_length_b       7.00483
_cell_length_c       7.98407
_cell_angle_alpha    107.939
_cell_angle_beta     105.29
_cell_angle_gamma    90

_space_group_name_H-M_alt    "P 1"
_space_group_IT_number       1

loop_
  _space_group_symop_operation_xyz
  'x, y, z'

loop_
  _atom_site_type_symbol
  _atom_site_label
  _atom_site_symmetry_multiplicity
  _atom_site_fract_x
  _atom_site_fract_y
  _atom_site_fract_z
  _atom_site_occupancy
  Er  Er1       1.0  0.59100  0.39100  0.18300  1.0000
  Er  Er2       1.0  0.65600  0.93700  0.31200  1.0000
  Er  Er3       1.0  0.34400  0.06290  0.68800  1.0000
  Er  Er4       1.0  0.40900  0.60900  0.81700  1.0000
  Ge  Ge1       1.0  0.06610  0.66300  0.13200  1.0000
  Ge  Ge2       1.0  0.20300  0.26700  0.40500  1.0000
  Ge  Ge3       1.0  0.79700  0.73300  0.59500  1.0000
  Ge  Ge4       1.0  0.93400  0.33700  0.86800  1.0000
  In  In1       1.0  0.00000  0.00000  0.00000  1.0000
  Ni  Ni1       1.0  0.21800  0.64100  0.43500  1.0000
  Ni  Ni2       1.0  0.78200  0.35900  0.56500  1.0000
