data_image0
_chemical_formula_structural       Ni4Si4U3
_chemical_formula_sum              "Ni4 Si4 U3"
_cell_length_a       3.84336
_cell_length_b       3.93539
_cell_length_c       12.0252
_cell_angle_alpha    99.4177
_cell_angle_beta     99.1956
_cell_angle_gamma    90

_space_group_name_H-M_alt    "P 1"
_space_group_IT_number       1

loop_
  _space_group_symop_operation_xyz
  'x, y, z'

loop_
  _atom_site_type_symbol
  _atom_site_label
  _atom_site_symmetry_multiplicity
  _atom_site_fract_x
  _atom_site_fract_y
  _atom_site_fract_z
  _atom_site_occupancy
  Ni  Ni1       1.0  0.59900  0.09850  0.19700  1.0000
  Ni  Ni2       1.0  0.75000  0.75000  0.49900  1.0000
  Ni  Ni3       1.0  0.25000  0.25000  0.50100  1.0000
  Ni  Ni4       1.0  0.40100  0.90100  0.80300  1.0000
  Si  Si1       1.0  0.55000  0.55000  0.10000  1.0000
  Si  Si2       1.0  0.69700  0.19700  0.39300  1.0000
  Si  Si3       1.0  0.30300  0.80300  0.60700  1.0000
  Si  Si4       1.0  0.45000  0.45000  0.90000  1.0000
  U   U1        1.0  0.00000  0.00000  0.00000  1.0000
  U   U2        1.0  0.14700  0.64700  0.29300  1.0000
  U   U3        1.0  0.85300  0.35300  0.70700  1.0000
