data_image0
_chemical_formula_structural       Cu4Ge4Yb3
_chemical_formula_sum              "Cu4 Ge4 Yb3"
_cell_length_a       4.21379
_cell_length_b       6.70259
_cell_length_c       7.9685
_cell_angle_alpha    114.87
_cell_angle_beta     105.331
_cell_angle_gamma    90

_space_group_name_H-M_alt    "P 1"
_space_group_IT_number       1

loop_
  _space_group_symop_operation_xyz
  'x, y, z'

loop_
  _atom_site_type_symbol
  _atom_site_label
  _atom_site_symmetry_multiplicity
  _atom_site_fract_x
  _atom_site_fract_y
  _atom_site_fract_z
  _atom_site_occupancy
  Cu  Cu1       1.0  0.67000  0.48000  0.34100  1.0000
  Cu  Cu2       1.0  0.67000  0.86100  0.34100  1.0000
  Cu  Cu3       1.0  0.33000  0.13900  0.65900  1.0000
  Cu  Cu4       1.0  0.33000  0.52000  0.65900  1.0000
  Ge  Ge1       1.0  0.50000  0.18600  0.00000  1.0000
  Ge  Ge2       1.0  0.50000  0.81400  0.00000  1.0000
  Ge  Ge3       1.0  0.21800  0.71800  0.43600  1.0000
  Ge  Ge4       1.0  0.78200  0.28200  0.56400  1.0000
  Yb  Yb1       1.0  0.00000  0.50000  0.00000  1.0000
  Yb  Yb2       1.0  0.13000  0.13000  0.26100  1.0000
  Yb  Yb3       1.0  0.87000  0.87000  0.73900  1.0000
