data_image0
_chemical_formula_structural       As2Cs2H4O8
_chemical_formula_sum              "As2 Cs2 H4 O8"
_cell_length_a       6.74466
_cell_length_b       6.74466
_cell_length_c       6.8921
_cell_angle_alpha    108.804
_cell_angle_beta     108.804
_cell_angle_gamma    109.954

_space_group_name_H-M_alt    "P 1"
_space_group_IT_number       1

loop_
  _space_group_symop_operation_xyz
  'x, y, z'

loop_
  _atom_site_type_symbol
  _atom_site_label
  _atom_site_symmetry_multiplicity
  _atom_site_fract_x
  _atom_site_fract_y
  _atom_site_fract_z
  _atom_site_occupancy
  As  As1       1.0  0.99400  0.99400  0.00000  1.0000
  As  As2       1.0  0.74400  0.24400  0.50000  1.0000
  Cs  Cs1       1.0  0.50800  0.50800  0.00000  1.0000
  Cs  Cs2       1.0  0.25800  0.75800  0.50000  1.0000
  H   H1        1.0  0.35600  0.98500  0.08320  1.0000
  H   H2        1.0  0.02330  0.15100  0.41700  1.0000
  H   H3        1.0  0.73500  0.60600  0.58300  1.0000
  H   H4        1.0  0.90100  0.27300  0.91700  1.0000
  O   O1        1.0  0.03800  0.28300  0.05840  1.0000
  O   O2        1.0  0.02680  0.96900  0.24400  1.0000
  O   O3        1.0  0.53300  0.97500  0.25600  1.0000
  O   O4        1.0  0.73000  0.47500  0.44200  1.0000
  O   O5        1.0  0.03300  0.28800  0.55800  1.0000
  O   O6        1.0  0.71900  0.27700  0.74400  1.0000
  O   O7        1.0  0.72500  0.78300  0.75600  1.0000
  O   O8        1.0  0.22500  0.98000  0.94200  1.0000
