data_image0
_chemical_formula_structural       Cu4Ge4Sc3
_chemical_formula_sum              "Cu4 Ge4 Sc3"
_cell_length_a       4.03133
_cell_length_b       6.54718
_cell_length_c       7.71402
_cell_angle_alpha    115.111
_cell_angle_beta     105.147
_cell_angle_gamma    90

_space_group_name_H-M_alt    "P 1"
_space_group_IT_number       1

loop_
  _space_group_symop_operation_xyz
  'x, y, z'

loop_
  _atom_site_type_symbol
  _atom_site_label
  _atom_site_symmetry_multiplicity
  _atom_site_fract_x
  _atom_site_fract_y
  _atom_site_fract_z
  _atom_site_occupancy
  Cu  Cu1       1.0  0.67200  0.47700  0.34400  1.0000
  Cu  Cu2       1.0  0.67200  0.86700  0.34400  1.0000
  Cu  Cu3       1.0  0.32800  0.13300  0.65600  1.0000
  Cu  Cu4       1.0  0.32800  0.52300  0.65600  1.0000
  Ge  Ge1       1.0  0.50000  0.19400  0.00000  1.0000
  Ge  Ge2       1.0  0.50000  0.80600  0.00000  1.0000
  Ge  Ge3       1.0  0.21600  0.71600  0.43300  1.0000
  Ge  Ge4       1.0  0.78400  0.28400  0.56700  1.0000
  Sc  Sc1       1.0  0.00000  0.50000  0.00000  1.0000
  Sc  Sc2       1.0  0.12700  0.12700  0.25400  1.0000
  Sc  Sc3       1.0  0.87300  0.87300  0.74600  1.0000
