data_image0
_chemical_formula_structural       Bi2STe2
_chemical_formula_sum              "Bi2 S1 Te2"
_cell_length_a       10.5309
_cell_length_b       10.5309
_cell_length_c       10.5309
_cell_angle_alpha    23.5663
_cell_angle_beta     23.5663
_cell_angle_gamma    23.5663

_space_group_name_H-M_alt    "P 1"
_space_group_IT_number       1

loop_
  _space_group_symop_operation_xyz
  'x, y, z'

loop_
  _atom_site_type_symbol
  _atom_site_label
  _atom_site_symmetry_multiplicity
  _atom_site_fract_x
  _atom_site_fract_y
  _atom_site_fract_z
  _atom_site_occupancy
  Bi  Bi1       1.0  0.39000  0.39000  0.39000  1.0000
  Bi  Bi2       1.0  0.61000  0.61000  0.61000  1.0000
  S   S1        1.0  0.00000  0.00000  0.00000  1.0000
  Te  Te1       1.0  0.21800  0.21800  0.21800  1.0000
  Te  Te2       1.0  0.78200  0.78200  0.78200  1.0000
