data_image0
_chemical_formula_structural       Cu4Pr3Sn4
_chemical_formula_sum              "Cu4 Pr3 Sn4"
_cell_length_a       4.59984
_cell_length_b       7.04121
_cell_length_c       8.64451
_cell_angle_alpha    114.033
_cell_angle_beta     105.43
_cell_angle_gamma    90

_space_group_name_H-M_alt    "P 1"
_space_group_IT_number       1

loop_
  _space_group_symop_operation_xyz
  'x, y, z'

loop_
  _atom_site_type_symbol
  _atom_site_label
  _atom_site_symmetry_multiplicity
  _atom_site_fract_x
  _atom_site_fract_y
  _atom_site_fract_z
  _atom_site_occupancy
  Cu  Cu1       1.0  0.66800  0.48500  0.33600  1.0000
  Cu  Cu2       1.0  0.66800  0.85100  0.33600  1.0000
  Cu  Cu3       1.0  0.33200  0.14900  0.66400  1.0000
  Cu  Cu4       1.0  0.33200  0.51500  0.66400  1.0000
  Pr  Pr1       1.0  0.00000  0.50000  0.00000  1.0000
  Pr  Pr2       1.0  0.13300  0.13300  0.26600  1.0000
  Pr  Pr3       1.0  0.86700  0.86700  0.73400  1.0000
  Sn  Sn1       1.0  0.50000  0.20000  0.00000  1.0000
  Sn  Sn2       1.0  0.50000  0.80000  0.00000  1.0000
  Sn  Sn3       1.0  0.21700  0.71700  0.43300  1.0000
  Sn  Sn4       1.0  0.78300  0.28300  0.56700  1.0000
