data_image0
_chemical_formula_structural       Cu3I2O4Sr2
_chemical_formula_sum              "Cu3 I2 O4 Sr2"
_cell_length_a       5.65455
_cell_length_b       5.65455
_cell_length_c       9.06268
_cell_angle_alpha    108.178
_cell_angle_beta     108.178
_cell_angle_gamma    90

_space_group_name_H-M_alt    "P 1"
_space_group_IT_number       1

loop_
  _space_group_symop_operation_xyz
  'x, y, z'

loop_
  _atom_site_type_symbol
  _atom_site_label
  _atom_site_symmetry_multiplicity
  _atom_site_fract_x
  _atom_site_fract_y
  _atom_site_fract_z
  _atom_site_occupancy
  Cu  Cu1       1.0  0.00000  0.00000  0.00000  1.0000
  Cu  Cu2       1.0  0.50000  0.00000  0.00000  1.0000
  Cu  Cu3       1.0  0.00000  0.50000  0.00000  1.0000
  I   I1        1.0  0.75000  0.25000  0.50000  1.0000
  I   I2        1.0  0.25000  0.75000  0.50000  1.0000
  O   O1        1.0  0.22800  0.22800  0.00000  1.0000
  O   O2        1.0  0.77200  0.22800  0.00000  1.0000
  O   O3        1.0  0.22800  0.77200  0.00000  1.0000
  O   O4        1.0  0.77200  0.77200  0.00000  1.0000
  Sr  Sr1       1.0  0.15400  0.15400  0.30700  1.0000
  Sr  Sr2       1.0  0.84600  0.84600  0.69300  1.0000
