data_image0
_chemical_formula_structural       Br7Nb3S
_chemical_formula_sum              "Br7 Nb3 S1"
_cell_length_a       7.19355
_cell_length_b       7.19328
_cell_length_c       6.7115
_cell_angle_alpha    90
_cell_angle_beta     89.9988
_cell_angle_gamma    119.999

_space_group_name_H-M_alt    "P 1"
_space_group_IT_number       1

loop_
  _space_group_symop_operation_xyz
  'x, y, z'

loop_
  _atom_site_type_symbol
  _atom_site_label
  _atom_site_symmetry_multiplicity
  _atom_site_fract_x
  _atom_site_fract_y
  _atom_site_fract_z
  _atom_site_occupancy
  Br  Br1       1.0  0.00003  0.00002  0.01500  1.0000
  Br  Br2       1.0  0.33700  0.16800  0.43800  1.0000
  Br  Br3       1.0  0.83200  0.16800  0.43800  1.0000
  Br  Br4       1.0  0.83200  0.66300  0.43800  1.0000
  Br  Br5       1.0  0.50100  0.00274  0.96800  1.0000
  Br  Br6       1.0  0.50100  0.49900  0.96800  1.0000
  Br  Br7       1.0  0.99700  0.49900  0.96800  1.0000
  Nb  Nb1       1.0  0.60300  0.80200  0.22300  1.0000
  Nb  Nb2       1.0  0.19800  0.39700  0.22300  1.0000
  Nb  Nb3       1.0  0.19800  0.80200  0.22300  1.0000
  S   S1        1.0  0.33300  0.66700  0.48100  1.0000
