data_image0
_chemical_formula_structural       Al2H8Mg
_chemical_formula_sum              "Al2 H8 Mg1"
_cell_length_a       4.63246
_cell_length_b       4.74212
_cell_length_c       6.29301
_cell_angle_alpha    95.3224
_cell_angle_beta     97.6303
_cell_angle_gamma    123.768

_space_group_name_H-M_alt    "P 1"
_space_group_IT_number       1

loop_
  _space_group_symop_operation_xyz
  'x, y, z'

loop_
  _atom_site_type_symbol
  _atom_site_label
  _atom_site_symmetry_multiplicity
  _atom_site_fract_x
  _atom_site_fract_y
  _atom_site_fract_z
  _atom_site_occupancy
  Al  Al1       1.0  0.78800  0.41900  0.29800  1.0000
  Al  Al2       1.0  0.19700  0.56600  0.71100  1.0000
  H   H1        1.0  0.42400  0.37500  0.16700  1.0000
  H   H2        1.0  0.73100  0.05890  0.19400  1.0000
  H   H3        1.0  0.07830  0.75700  0.20800  1.0000
  H   H4        1.0  0.25400  0.53600  0.46200  1.0000
  H   H5        1.0  0.73500  0.45300  0.54800  1.0000
  H   H6        1.0  0.90600  0.22600  0.79800  1.0000
  H   H7        1.0  0.25500  0.92700  0.81600  1.0000
  H   H8        1.0  0.55800  0.60900  0.84400  1.0000
  Mg  Mg1       1.0  0.99200  0.99300  0.00419  1.0000
