data_image0
_chemical_formula_structural       Cs2O7U2
_chemical_formula_sum              "Cs2 O7 U2"
_cell_length_a       4.35127
_cell_length_b       7.33944
_cell_length_c       7.66117
_cell_angle_alpha    113.185
_cell_angle_beta     106.498
_cell_angle_gamma    90

_space_group_name_H-M_alt    "P 1"
_space_group_IT_number       1

loop_
  _space_group_symop_operation_xyz
  'x, y, z'

loop_
  _atom_site_type_symbol
  _atom_site_label
  _atom_site_symmetry_multiplicity
  _atom_site_fract_x
  _atom_site_fract_y
  _atom_site_fract_z
  _atom_site_occupancy
  Cs  Cs1       1.0  0.59900  0.41000  0.19900  1.0000
  Cs  Cs2       1.0  0.40100  0.59000  0.80100  1.0000
  O   O1        1.0  0.00000  0.00000  0.00000  1.0000
  O   O2        1.0  0.09010  0.71500  0.18000  1.0000
  O   O3        1.0  0.68800  0.99300  0.37700  1.0000
  O   O4        1.0  0.20200  0.27000  0.40300  1.0000
  O   O5        1.0  0.79800  0.73000  0.59700  1.0000
  O   O6        1.0  0.31200  0.00677  0.62300  1.0000
  O   O7        1.0  0.91000  0.28500  0.82000  1.0000
  U   U1        1.0  0.14800  0.99200  0.29500  1.0000
  U   U2        1.0  0.85200  0.00774  0.70500  1.0000
