data_image0
_chemical_formula_structural       Cu2Eu3P4Zn2
_chemical_formula_sum              "Cu2 Eu3 P4 Zn2"
_cell_length_a       4.06925
_cell_length_b       4.06907
_cell_length_c       14.9084
_cell_angle_alpha    90
_cell_angle_beta     90.0003
_cell_angle_gamma    119.999

_space_group_name_H-M_alt    "P 1"
_space_group_IT_number       1

loop_
  _space_group_symop_operation_xyz
  'x, y, z'

loop_
  _atom_site_type_symbol
  _atom_site_label
  _atom_site_symmetry_multiplicity
  _atom_site_fract_x
  _atom_site_fract_y
  _atom_site_fract_z
  _atom_site_occupancy
  Cu  Cu1       1.0  0.33300  0.66700  0.13700  1.0000
  Cu  Cu2       1.0  0.66700  0.33300  0.86300  1.0000
  Eu  Eu1       1.0  0.00000  0.00000  0.00000  1.0000
  Eu  Eu2       1.0  0.00000  0.00000  0.27000  1.0000
  Eu  Eu3       1.0  0.00000  0.00000  0.73000  1.0000
  P   P1        1.0  0.66700  0.33300  0.13500  1.0000
  P   P2        1.0  0.33300  0.66700  0.39200  1.0000
  P   P3        1.0  0.66700  0.33300  0.60800  1.0000
  P   P4        1.0  0.33300  0.66700  0.86500  1.0000
  Zn  Zn1       1.0  0.66700  0.33300  0.43800  1.0000
  Zn  Zn2       1.0  0.33300  0.66700  0.56200  1.0000
