data_image0
_chemical_formula_structural       B6Ni3Tm2
_chemical_formula_sum              "B6 Ni3 Tm2"
_cell_length_a       3.44757
_cell_length_b       5.75851
_cell_length_c       5.75851
_cell_angle_alpha    96.6838
_cell_angle_beta     90
_cell_angle_gamma    90

_space_group_name_H-M_alt    "P 1"
_space_group_IT_number       1

loop_
  _space_group_symop_operation_xyz
  'x, y, z'

loop_
  _atom_site_type_symbol
  _atom_site_label
  _atom_site_symmetry_multiplicity
  _atom_site_fract_x
  _atom_site_fract_y
  _atom_site_fract_z
  _atom_site_occupancy
  B   B1        1.0  0.50000  0.38500  0.08410  1.0000
  B   B2        1.0  0.50000  0.08410  0.38500  1.0000
  B   B3        1.0  0.50000  0.38700  0.38700  1.0000
  B   B4        1.0  0.50000  0.61300  0.61300  1.0000
  B   B5        1.0  0.50000  0.91600  0.61500  1.0000
  B   B6        1.0  0.50000  0.61500  0.91600  1.0000
  Ni  Ni1       1.0  0.50000  0.00000  0.00000  1.0000
  Ni  Ni2       1.0  0.00000  0.22800  0.22800  1.0000
  Ni  Ni3       1.0  0.00000  0.77200  0.77200  1.0000
  Tm  Tm1       1.0  0.00000  0.72400  0.27600  1.0000
  Tm  Tm2       1.0  0.00000  0.27600  0.72400  1.0000
