data_image0
_chemical_formula_structural       C4F6Hg
_chemical_formula_sum              "C4 F6 Hg1"
_cell_length_a       4.78286
_cell_length_b       5.51627
_cell_length_c       6.28723
_cell_angle_alpha    106.152
_cell_angle_beta     111.341
_cell_angle_gamma    107.014

_space_group_name_H-M_alt    "P 1"
_space_group_IT_number       1

loop_
  _space_group_symop_operation_xyz
  'x, y, z'

loop_
  _atom_site_type_symbol
  _atom_site_label
  _atom_site_symmetry_multiplicity
  _atom_site_fract_x
  _atom_site_fract_y
  _atom_site_fract_z
  _atom_site_occupancy
  C   C1        1.0  0.78000  0.86900  0.20000  1.0000
  C   C2        1.0  0.80100  0.66600  0.26800  1.0000
  C   C3        1.0  0.19900  0.33400  0.73200  1.0000
  C   C4        1.0  0.22000  0.13100  0.80000  1.0000
  F   F1        1.0  0.97600  0.53100  0.21900  1.0000
  F   F2        1.0  0.59900  0.99500  0.27200  1.0000
  F   F3        1.0  0.65800  0.57000  0.39300  1.0000
  F   F4        1.0  0.34200  0.43000  0.60700  1.0000
  F   F5        1.0  0.40100  0.00488  0.72800  1.0000
  F   F6        1.0  0.02360  0.46900  0.78100  1.0000
  Hg  Hg1       1.0  0.00000  0.00000  0.00000  1.0000
