data_image0
_chemical_formula_structural       Cu4Er3Ge4
_chemical_formula_sum              "Cu4 Er3 Ge4"
_cell_length_a       4.17139
_cell_length_b       6.63984
_cell_length_c       7.95423
_cell_angle_alpha    114.669
_cell_angle_beta     105.201
_cell_angle_gamma    90

_space_group_name_H-M_alt    "P 1"
_space_group_IT_number       1

loop_
  _space_group_symop_operation_xyz
  'x, y, z'

loop_
  _atom_site_type_symbol
  _atom_site_label
  _atom_site_symmetry_multiplicity
  _atom_site_fract_x
  _atom_site_fract_y
  _atom_site_fract_z
  _atom_site_occupancy
  Cu  Cu1       1.0  0.67000  0.47900  0.34100  1.0000
  Cu  Cu2       1.0  0.67000  0.86200  0.34100  1.0000
  Cu  Cu3       1.0  0.33000  0.13800  0.65900  1.0000
  Cu  Cu4       1.0  0.33000  0.52100  0.65900  1.0000
  Er  Er1       1.0  0.00000  0.50000  0.00000  1.0000
  Er  Er2       1.0  0.12900  0.12900  0.25800  1.0000
  Er  Er3       1.0  0.87100  0.87100  0.74200  1.0000
  Ge  Ge1       1.0  0.50000  0.19300  0.00000  1.0000
  Ge  Ge2       1.0  0.50000  0.80700  0.00000  1.0000
  Ge  Ge3       1.0  0.21600  0.71600  0.43300  1.0000
  Ge  Ge4       1.0  0.78400  0.28400  0.56700  1.0000
