data_image0
_chemical_formula_structural       Cl6HfTe4
_chemical_formula_sum              "Cl6 Hf1 Te4"
_cell_length_a       6.93484
_cell_length_b       6.9429
_cell_length_c       7.92138
_cell_angle_alpha    74.1155
_cell_angle_beta     75.9396
_cell_angle_gamma    83.6388

_space_group_name_H-M_alt    "P 1"
_space_group_IT_number       1

loop_
  _space_group_symop_operation_xyz
  'x, y, z'

loop_
  _atom_site_type_symbol
  _atom_site_label
  _atom_site_symmetry_multiplicity
  _atom_site_fract_x
  _atom_site_fract_y
  _atom_site_fract_z
  _atom_site_occupancy
  Cl  Cl1       1.0  0.26400  0.12500  0.08720  1.0000
  Cl  Cl2       1.0  0.11800  0.65100  0.12000  1.0000
  Cl  Cl3       1.0  0.78200  0.99300  0.30100  1.0000
  Cl  Cl4       1.0  0.21800  0.00716  0.69900  1.0000
  Cl  Cl5       1.0  0.88200  0.34900  0.88000  1.0000
  Cl  Cl6       1.0  0.73600  0.87500  0.91300  1.0000
  Hf  Hf1       1.0  0.00000  0.00000  0.00000  1.0000
  Te  Te1       1.0  0.50200  0.40500  0.29400  1.0000
  Te  Te2       1.0  0.28200  0.68600  0.44700  1.0000
  Te  Te3       1.0  0.71800  0.31400  0.55300  1.0000
  Te  Te4       1.0  0.49800  0.59500  0.70600  1.0000
