data_image0
_chemical_formula_structural       O4Te3U4
_chemical_formula_sum              "O4 Te3 U4"
_cell_length_a       4.07821
_cell_length_b       4.07821
_cell_length_c       14.2513
_cell_angle_alpha    98.2262
_cell_angle_beta     98.2262
_cell_angle_gamma    90

_space_group_name_H-M_alt    "P 1"
_space_group_IT_number       1

loop_
  _space_group_symop_operation_xyz
  'x, y, z'

loop_
  _atom_site_type_symbol
  _atom_site_label
  _atom_site_symmetry_multiplicity
  _atom_site_fract_x
  _atom_site_fract_y
  _atom_site_fract_z
  _atom_site_occupancy
  O   O1        1.0  0.61700  0.11700  0.23300  1.0000
  O   O2        1.0  0.11700  0.61700  0.23300  1.0000
  O   O3        1.0  0.88300  0.38300  0.76700  1.0000
  O   O4        1.0  0.38300  0.88300  0.76700  1.0000
  Te  Te1       1.0  0.00000  0.00000  0.00000  1.0000
  Te  Te2       1.0  0.71600  0.71600  0.43100  1.0000
  Te  Te3       1.0  0.28400  0.28400  0.56900  1.0000
  U   U1        1.0  0.57300  0.57300  0.14600  1.0000
  U   U2        1.0  0.16300  0.16300  0.32500  1.0000
  U   U3        1.0  0.83700  0.83700  0.67500  1.0000
  U   U4        1.0  0.42700  0.42700  0.85400  1.0000
