data_image0
_chemical_formula_structural       Br5C2La4
_chemical_formula_sum              "Br5 C2 La4"
_cell_length_a       10.2974
_cell_length_b       4.03282
_cell_length_c       8.33808
_cell_angle_alpha    90
_cell_angle_beta     113.883
_cell_angle_gamma    101.292

_space_group_name_H-M_alt    "P 1"
_space_group_IT_number       1

loop_
  _space_group_symop_operation_xyz
  'x, y, z'

loop_
  _atom_site_type_symbol
  _atom_site_label
  _atom_site_symmetry_multiplicity
  _atom_site_fract_x
  _atom_site_fract_y
  _atom_site_fract_z
  _atom_site_occupancy
  Br  Br1       1.0  0.00000  0.50000  0.00000  1.0000
  Br  Br2       1.0  0.66900  0.83500  0.05770  1.0000
  Br  Br3       1.0  0.33100  0.16500  0.38800  1.0000
  Br  Br4       1.0  0.66900  0.83500  0.61200  1.0000
  Br  Br5       1.0  0.33100  0.16500  0.94200  1.0000
  C   C1        1.0  0.92300  0.46100  0.46100  1.0000
  C   C2        1.0  0.07730  0.53900  0.53900  1.0000
  La  La1       1.0  0.00000  0.00000  0.29500  1.0000
  La  La2       1.0  0.67200  0.33600  0.33600  1.0000
  La  La3       1.0  0.32800  0.66400  0.66400  1.0000
  La  La4       1.0  0.00000  0.00000  0.70500  1.0000
