data_image0
_chemical_formula_structural       Ge4Mn4Tb3
_chemical_formula_sum              "Ge4 Mn4 Tb3"
_cell_length_a       4.16828
_cell_length_b       7.27221
_cell_length_c       8.25126
_cell_angle_alpha    116.147
_cell_angle_beta     104.631
_cell_angle_gamma    90

_space_group_name_H-M_alt    "P 1"
_space_group_IT_number       1

loop_
  _space_group_symop_operation_xyz
  'x, y, z'

loop_
  _atom_site_type_symbol
  _atom_site_label
  _atom_site_symmetry_multiplicity
  _atom_site_fract_x
  _atom_site_fract_y
  _atom_site_fract_z
  _atom_site_occupancy
  Ge  Ge1       1.0  0.50000  0.19400  0.00000  1.0000
  Ge  Ge2       1.0  0.50000  0.80600  0.00000  1.0000
  Ge  Ge3       1.0  0.22100  0.72100  0.44100  1.0000
  Ge  Ge4       1.0  0.77900  0.27900  0.55900  1.0000
  Mn  Mn1       1.0  0.67500  0.48500  0.35000  1.0000
  Mn  Mn2       1.0  0.67500  0.86400  0.35000  1.0000
  Mn  Mn3       1.0  0.32500  0.13600  0.65000  1.0000
  Mn  Mn4       1.0  0.32500  0.51500  0.65000  1.0000
  Tb  Tb1       1.0  0.00000  0.50000  0.00000  1.0000
  Tb  Tb2       1.0  0.12400  0.12400  0.24800  1.0000
  Tb  Tb3       1.0  0.87600  0.87600  0.75200  1.0000
