data_image0
_chemical_formula_structural       C3Cr2Ho2
_chemical_formula_sum              "C3 Cr2 Ho2"
_cell_length_a       3.35613
_cell_length_b       5.47333
_cell_length_c       5.53915
_cell_angle_alpha    105.177
_cell_angle_beta     90
_cell_angle_gamma    107.854

_space_group_name_H-M_alt    "P 1"
_space_group_IT_number       1

loop_
  _space_group_symop_operation_xyz
  'x, y, z'

loop_
  _atom_site_type_symbol
  _atom_site_label
  _atom_site_symmetry_multiplicity
  _atom_site_fract_x
  _atom_site_fract_y
  _atom_site_fract_z
  _atom_site_occupancy
  C   C1        1.0  0.71600  0.43200  0.26800  1.0000
  C   C2        1.0  0.00000  0.00000  0.50000  1.0000
  C   C3        1.0  0.28400  0.56800  0.73200  1.0000
  Cr  Cr1       1.0  0.15600  0.31300  0.38900  1.0000
  Cr  Cr2       1.0  0.84400  0.68700  0.61100  1.0000
  Ho  Ho1       1.0  0.39300  0.78700  0.18400  1.0000
  Ho  Ho2       1.0  0.60700  0.21300  0.81600  1.0000
