data_image0
_chemical_formula_structural       CrFe2Se4
_chemical_formula_sum              "Cr1 Fe2 Se4"
_cell_length_a       3.54822
_cell_length_b       6.1312
_cell_length_c       6.58855
_cell_angle_alpha    115.863
_cell_angle_beta     105.621
_cell_angle_gamma    90

_space_group_name_H-M_alt    "P 1"
_space_group_IT_number       1

loop_
  _space_group_symop_operation_xyz
  'x, y, z'

loop_
  _atom_site_type_symbol
  _atom_site_label
  _atom_site_symmetry_multiplicity
  _atom_site_fract_x
  _atom_site_fract_y
  _atom_site_fract_z
  _atom_site_occupancy
  Cr  Cr1       1.0  0.00000  0.00000  0.00000  1.0000
  Fe  Fe1       1.0  0.74300  0.69300  0.48500  1.0000
  Fe  Fe2       1.0  0.25700  0.30700  0.51500  1.0000
  Se  Se1       1.0  0.11500  0.46000  0.23100  1.0000
  Se  Se2       1.0  0.64000  0.98200  0.28100  1.0000
  Se  Se3       1.0  0.36000  0.01850  0.71900  1.0000
  Se  Se4       1.0  0.88500  0.54000  0.76900  1.0000
