data_image0
_chemical_formula_structural       Cu4Ge4Ho3
_chemical_formula_sum              "Cu4 Ge4 Ho3"
_cell_length_a       4.18437
_cell_length_b       6.64133
_cell_length_c       7.97608
_cell_angle_alpha    114.603
_cell_angle_beta     105.207
_cell_angle_gamma    90

_space_group_name_H-M_alt    "P 1"
_space_group_IT_number       1

loop_
  _space_group_symop_operation_xyz
  'x, y, z'

loop_
  _atom_site_type_symbol
  _atom_site_label
  _atom_site_symmetry_multiplicity
  _atom_site_fract_x
  _atom_site_fract_y
  _atom_site_fract_z
  _atom_site_occupancy
  Cu  Cu1       1.0  0.66900  0.47900  0.33800  1.0000
  Cu  Cu2       1.0  0.66900  0.86000  0.33800  1.0000
  Cu  Cu3       1.0  0.33100  0.14000  0.66200  1.0000
  Cu  Cu4       1.0  0.33100  0.52100  0.66200  1.0000
  Ge  Ge1       1.0  0.50000  0.19200  0.00000  1.0000
  Ge  Ge2       1.0  0.50000  0.80800  0.00000  1.0000
  Ge  Ge3       1.0  0.21600  0.71600  0.43300  1.0000
  Ge  Ge4       1.0  0.78400  0.28400  0.56700  1.0000
  Ho  Ho1       1.0  0.00000  0.50000  0.00000  1.0000
  Ho  Ho2       1.0  0.13000  0.13000  0.26000  1.0000
  Ho  Ho3       1.0  0.87000  0.87000  0.74000  1.0000
