data_image0
_chemical_formula_structural       I7Nb3Te
_chemical_formula_sum              "I7 Nb3 Te1"
_cell_length_a       7.73061
_cell_length_b       7.73077
_cell_length_c       7.23234
_cell_angle_alpha    90
_cell_angle_beta     89.9943
_cell_angle_gamma    120.001

_space_group_name_H-M_alt    "P 1"
_space_group_IT_number       1

loop_
  _space_group_symop_operation_xyz
  'x, y, z'

loop_
  _atom_site_type_symbol
  _atom_site_label
  _atom_site_symmetry_multiplicity
  _atom_site_fract_x
  _atom_site_fract_y
  _atom_site_fract_z
  _atom_site_occupancy
  I   I1        1.0  0.00298  0.50100  0.28500  1.0000
  I   I2        1.0  0.49800  0.50100  0.28500  1.0000
  I   I3        1.0  0.49800  0.99700  0.28500  1.0000
  I   I4        1.0  0.66700  0.33300  0.70100  1.0000
  I   I5        1.0  0.16800  0.83200  0.75500  1.0000
  I   I6        1.0  0.16800  0.33600  0.75500  1.0000
  I   I7        1.0  0.66400  0.83200  0.75500  1.0000
  Nb  Nb1       1.0  0.86700  0.13200  0.49900  1.0000
  Nb  Nb2       1.0  0.86700  0.73500  0.49900  1.0000
  Nb  Nb3       1.0  0.26500  0.13300  0.49900  1.0000
  Te  Te1       1.0  0.00000  0.00000  0.21000  1.0000
