data_image0
_chemical_formula_structural       Ba2Ni2O4
_chemical_formula_sum              "Ba2 Ni2 O4"
_cell_length_a       4.69777
_cell_length_b       5.42838
_cell_length_c       5.42838
_cell_angle_alpha    116.323
_cell_angle_beta     90
_cell_angle_gamma    90

_space_group_name_H-M_alt    "P 1"
_space_group_IT_number       1

loop_
  _space_group_symop_operation_xyz
  'x, y, z'

loop_
  _atom_site_type_symbol
  _atom_site_label
  _atom_site_symmetry_multiplicity
  _atom_site_fract_x
  _atom_site_fract_y
  _atom_site_fract_z
  _atom_site_occupancy
  Ba  Ba1       1.0  0.75000  0.65500  0.34500  1.0000
  Ba  Ba2       1.0  0.25000  0.34500  0.65500  1.0000
  Ni  Ni1       1.0  0.00000  0.00000  0.00000  1.0000
  Ni  Ni2       1.0  0.50000  0.00000  0.00000  1.0000
  O   O1        1.0  0.25000  0.30300  0.13800  1.0000
  O   O2        1.0  0.75000  0.13800  0.30300  1.0000
  O   O3        1.0  0.25000  0.86200  0.69700  1.0000
  O   O4        1.0  0.75000  0.69700  0.86200  1.0000
