data_image0
_chemical_formula_structural       Gd2Ge4Ni2
_chemical_formula_sum              "Gd2 Ge4 Ni2"
_cell_length_a       4.12118
_cell_length_b       4.19976
_cell_length_c       8.60228
_cell_angle_alpha    90
_cell_angle_beta     76.1406
_cell_angle_gamma    90

_space_group_name_H-M_alt    "P 1"
_space_group_IT_number       1

loop_
  _space_group_symop_operation_xyz
  'x, y, z'

loop_
  _atom_site_type_symbol
  _atom_site_label
  _atom_site_symmetry_multiplicity
  _atom_site_fract_x
  _atom_site_fract_y
  _atom_site_fract_z
  _atom_site_occupancy
  Gd  Gd1       1.0  0.89300  0.25000  0.21500  1.0000
  Gd  Gd2       1.0  0.10700  0.75000  0.78500  1.0000
  Ge  Ge1       1.0  0.45900  0.75000  0.08280  1.0000
  Ge  Ge2       1.0  0.25200  0.25000  0.49600  1.0000
  Ge  Ge3       1.0  0.74800  0.75000  0.50400  1.0000
  Ge  Ge4       1.0  0.54100  0.25000  0.91700  1.0000
  Ni  Ni1       1.0  0.32100  0.75000  0.35900  1.0000
  Ni  Ni2       1.0  0.67900  0.25000  0.64100  1.0000
