data_image0
_chemical_formula_structural       Cu4Sn4Tm3
_chemical_formula_sum              "Cu4 Sn4 Tm3"
_cell_length_a       4.42384
_cell_length_b       6.91762
_cell_length_c       8.3535
_cell_angle_alpha    114.46
_cell_angle_beta     105.354
_cell_angle_gamma    90

_space_group_name_H-M_alt    "P 1"
_space_group_IT_number       1

loop_
  _space_group_symop_operation_xyz
  'x, y, z'

loop_
  _atom_site_type_symbol
  _atom_site_label
  _atom_site_symmetry_multiplicity
  _atom_site_fract_x
  _atom_site_fract_y
  _atom_site_fract_z
  _atom_site_occupancy
  Cu  Cu1       1.0  0.67200  0.48200  0.34300  1.0000
  Cu  Cu2       1.0  0.67200  0.86100  0.34300  1.0000
  Cu  Cu3       1.0  0.32800  0.13900  0.65700  1.0000
  Cu  Cu4       1.0  0.32800  0.51800  0.65700  1.0000
  Sn  Sn1       1.0  0.50000  0.20500  0.00000  1.0000
  Sn  Sn2       1.0  0.50000  0.79500  0.00000  1.0000
  Sn  Sn3       1.0  0.21700  0.71700  0.43300  1.0000
  Sn  Sn4       1.0  0.78300  0.28300  0.56700  1.0000
  Tm  Tm1       1.0  0.00000  0.50000  0.00000  1.0000
  Tm  Tm2       1.0  0.13000  0.13000  0.26000  1.0000
  Tm  Tm3       1.0  0.87000  0.87000  0.74000  1.0000
