data_image0
_chemical_formula_structural       Cu2SnTe3
_chemical_formula_sum              "Cu2 Sn1 Te3"
_cell_length_a       4.35067
_cell_length_b       6.0791
_cell_length_c       7.50134
_cell_angle_alpha    113.904
_cell_angle_beta     106.858
_cell_angle_gamma    90

_space_group_name_H-M_alt    "P 1"
_space_group_IT_number       1

loop_
  _space_group_symop_operation_xyz
  'x, y, z'

loop_
  _atom_site_type_symbol
  _atom_site_label
  _atom_site_symmetry_multiplicity
  _atom_site_fract_x
  _atom_site_fract_y
  _atom_site_fract_z
  _atom_site_occupancy
  Cu  Cu1       1.0  0.17100  0.91500  0.34200  1.0000
  Cu  Cu2       1.0  0.82900  0.57200  0.65800  1.0000
  Sn  Sn1       1.0  0.50000  0.26300  0.00000  1.0000
  Te  Te1       1.0  0.00000  0.95600  0.00000  1.0000
  Te  Te2       1.0  0.67900  0.69800  0.35900  1.0000
  Te  Te3       1.0  0.32100  0.33900  0.64100  1.0000
