data_image0
_chemical_formula_structural       Ce2PPt8
_chemical_formula_sum              "Ce2 P1 Pt8"
_cell_length_a       4.31453
_cell_length_b       5.46787
_cell_length_c       9.26091
_cell_angle_alpha    107.17
_cell_angle_beta     90
_cell_angle_gamma    90

_space_group_name_H-M_alt    "P 1"
_space_group_IT_number       1

loop_
  _space_group_symop_operation_xyz
  'x, y, z'

loop_
  _atom_site_type_symbol
  _atom_site_label
  _atom_site_symmetry_multiplicity
  _atom_site_fract_x
  _atom_site_fract_y
  _atom_site_fract_z
  _atom_site_occupancy
  Ce  Ce1       1.0  0.50000  0.61700  0.24700  1.0000
  Ce  Ce2       1.0  0.50000  0.37100  0.75300  1.0000
  P   P1        1.0  0.00000  0.22300  0.00000  1.0000
  Pt  Pt1       1.0  0.50000  0.00453  0.00000  1.0000
  Pt  Pt2       1.0  0.00000  0.63300  0.00000  1.0000
  Pt  Pt3       1.0  0.00000  0.11100  0.22000  1.0000
  Pt  Pt4       1.0  0.50000  0.19400  0.40200  1.0000
  Pt  Pt5       1.0  0.00000  0.98600  0.49500  1.0000
  Pt  Pt6       1.0  0.00000  0.49100  0.50500  1.0000
  Pt  Pt7       1.0  0.50000  0.79200  0.59800  1.0000
  Pt  Pt8       1.0  0.00000  0.89100  0.78000  1.0000
