data_image0
_chemical_formula_structural       Bi2Se3
_chemical_formula_sum              "Bi2 Se3"
_cell_length_a       9.89467
_cell_length_b       9.89467
_cell_length_c       9.89467
_cell_angle_alpha    24.4401
_cell_angle_beta     24.4401
_cell_angle_gamma    24.4401

_space_group_name_H-M_alt    "P 1"
_space_group_IT_number       1

loop_
  _space_group_symop_operation_xyz
  'x, y, z'

loop_
  _atom_site_type_symbol
  _atom_site_label
  _atom_site_symmetry_multiplicity
  _atom_site_fract_x
  _atom_site_fract_y
  _atom_site_fract_z
  _atom_site_occupancy
  Bi  Bi1       1.0  0.40100  0.40100  0.40100  1.0000
  Bi  Bi2       1.0  0.59900  0.59900  0.59900  1.0000
  Se  Se1       1.0  0.00000  0.00000  0.00000  1.0000
  Se  Se2       1.0  0.21100  0.21100  0.21100  1.0000
  Se  Se3       1.0  0.78900  0.78900  0.78900  1.0000
