data_image0
_chemical_formula_structural       B2BaF8
_chemical_formula_sum              "B2 Ba1 F8"
_cell_length_a       4.51998
_cell_length_b       4.88036
_cell_length_c       6.56716
_cell_angle_alpha    111.813
_cell_angle_beta     108.984
_cell_angle_gamma    90

_space_group_name_H-M_alt    "P 1"
_space_group_IT_number       1

loop_
  _space_group_symop_operation_xyz
  'x, y, z'

loop_
  _atom_site_type_symbol
  _atom_site_label
  _atom_site_symmetry_multiplicity
  _atom_site_fract_x
  _atom_site_fract_y
  _atom_site_fract_z
  _atom_site_occupancy
  B   B1        1.0  0.72100  0.65400  0.30800  1.0000
  B   B2        1.0  0.27900  0.34600  0.69200  1.0000
  Ba  Ba1       1.0  0.00000  0.00000  0.00000  1.0000
  F   F1        1.0  0.95600  0.60100  0.20300  1.0000
  F   F2        1.0  0.53700  0.38000  0.23300  1.0000
  F   F3        1.0  0.53700  0.85300  0.23300  1.0000
  F   F4        1.0  0.13700  0.22500  0.45000  1.0000
  F   F5        1.0  0.86300  0.77500  0.55000  1.0000
  F   F6        1.0  0.46300  0.14700  0.76700  1.0000
  F   F7        1.0  0.46300  0.62000  0.76700  1.0000
  F   F8        1.0  0.04410  0.39900  0.79700  1.0000
