data_image0
_chemical_formula_structural       C5Ni2Yb4
_chemical_formula_sum              "C5 Ni2 Yb4"
_cell_length_a       3.62414
_cell_length_b       11.9062
_cell_length_c       3.76595
_cell_angle_alpha    90.0001
_cell_angle_beta     90
_cell_angle_gamma    90

_space_group_name_H-M_alt    "P 1"
_space_group_IT_number       1

loop_
  _space_group_symop_operation_xyz
  'x, y, z'

loop_
  _atom_site_type_symbol
  _atom_site_label
  _atom_site_symmetry_multiplicity
  _atom_site_fract_x
  _atom_site_fract_y
  _atom_site_fract_z
  _atom_site_occupancy
  C   C1        1.0  0.00000  0.33800  0.20500  1.0000
  C   C2        1.0  0.00000  0.66200  0.20500  1.0000
  C   C3        1.0  0.50000  0.00000  0.48000  1.0000
  C   C4        1.0  0.00000  0.75200  0.99900  1.0000
  C   C5        1.0  0.00000  0.24800  0.99900  1.0000
  Ni  Ni1       1.0  0.00000  0.61300  0.68900  1.0000
  Ni  Ni2       1.0  0.00000  0.38700  0.68900  1.0000
  Yb  Yb1       1.0  0.50000  0.50000  0.20000  1.0000
  Yb  Yb2       1.0  0.50000  0.79300  0.52200  1.0000
  Yb  Yb3       1.0  0.50000  0.20700  0.52200  1.0000
  Yb  Yb4       1.0  0.00000  0.00000  0.99100  1.0000
