data_image0
_chemical_formula_structural       N4Th3
_chemical_formula_sum              "N4 Th3"
_cell_length_a       9.34375
_cell_length_b       9.34375
_cell_length_c       9.34375
_cell_angle_alpha    23.9012
_cell_angle_beta     23.9012
_cell_angle_gamma    23.9012

_space_group_name_H-M_alt    "P 1"
_space_group_IT_number       1

loop_
  _space_group_symop_operation_xyz
  'x, y, z'

loop_
  _atom_site_type_symbol
  _atom_site_label
  _atom_site_symmetry_multiplicity
  _atom_site_fract_x
  _atom_site_fract_y
  _atom_site_fract_z
  _atom_site_occupancy
  N   N1        1.0  0.13200  0.13200  0.13200  1.0000
  N   N2        1.0  0.37700  0.37700  0.37700  1.0000
  N   N3        1.0  0.62300  0.62300  0.62300  1.0000
  N   N4        1.0  0.86800  0.86800  0.86800  1.0000
  Th  Th1       1.0  0.00000  0.00000  0.00000  1.0000
  Th  Th2       1.0  0.22200  0.22200  0.22200  1.0000
  Th  Th3       1.0  0.77800  0.77800  0.77800  1.0000
