data_image0
_chemical_formula_structural       C2Cl5Pr4
_chemical_formula_sum              "C2 Cl5 Pr4"
_cell_length_a       9.8267
_cell_length_b       3.91558
_cell_length_c       7.90347
_cell_angle_alpha    90
_cell_angle_beta     113.712
_cell_angle_gamma    101.492

_space_group_name_H-M_alt    "P 1"
_space_group_IT_number       1

loop_
  _space_group_symop_operation_xyz
  'x, y, z'

loop_
  _atom_site_type_symbol
  _atom_site_label
  _atom_site_symmetry_multiplicity
  _atom_site_fract_x
  _atom_site_fract_y
  _atom_site_fract_z
  _atom_site_occupancy
  C   C1        1.0  0.92000  0.46000  0.46000  1.0000
  C   C2        1.0  0.08040  0.54000  0.54000  1.0000
  Cl  Cl1       1.0  0.00000  0.50000  0.00000  1.0000
  Cl  Cl2       1.0  0.66500  0.83300  0.06190  1.0000
  Cl  Cl3       1.0  0.33500  0.16700  0.39600  1.0000
  Cl  Cl4       1.0  0.66500  0.83300  0.60400  1.0000
  Cl  Cl5       1.0  0.33500  0.16700  0.93800  1.0000
  Pr  Pr1       1.0  0.00000  0.00000  0.28700  1.0000
  Pr  Pr2       1.0  0.66000  0.33000  0.33000  1.0000
  Pr  Pr3       1.0  0.34000  0.67000  0.67000  1.0000
  Pr  Pr4       1.0  0.00000  0.00000  0.71300  1.0000
