data_image0
_chemical_formula_structural       C2N2Th2
_chemical_formula_sum              "C2 N2 Th2"
_cell_length_a       3.93447
_cell_length_b       4.03329
_cell_length_c       7.23332
_cell_angle_alpha    95.2558
_cell_angle_beta     90
_cell_angle_gamma    119.193

_space_group_name_H-M_alt    "P 1"
_space_group_IT_number       1

loop_
  _space_group_symop_operation_xyz
  'x, y, z'

loop_
  _atom_site_type_symbol
  _atom_site_label
  _atom_site_symmetry_multiplicity
  _atom_site_fract_x
  _atom_site_fract_y
  _atom_site_fract_z
  _atom_site_occupancy
  C   C1        1.0  0.54700  0.09490  0.43100  1.0000
  C   C2        1.0  0.45300  0.90500  0.56900  1.0000
  N   N1        1.0  0.85000  0.70000  0.12600  1.0000
  N   N2        1.0  0.15000  0.30000  0.87400  1.0000
  Th  Th1       1.0  0.18500  0.37100  0.20400  1.0000
  Th  Th2       1.0  0.81500  0.62900  0.79600  1.0000
