data_image0
_chemical_formula_structural       Ag4Pr3Sn4
_chemical_formula_sum              "Ag4 Pr3 Sn4"
_cell_length_a       4.36117
_cell_length_b       8.39755
_cell_length_c       9.49602
_cell_angle_alpha    116.242
_cell_angle_beta     103.275
_cell_angle_gamma    90

_space_group_name_H-M_alt    "P 1"
_space_group_IT_number       1

loop_
  _space_group_symop_operation_xyz
  'x, y, z'

loop_
  _atom_site_type_symbol
  _atom_site_label
  _atom_site_symmetry_multiplicity
  _atom_site_fract_x
  _atom_site_fract_y
  _atom_site_fract_z
  _atom_site_occupancy
  Ag  Ag1       1.0  0.61700  0.41300  0.23400  1.0000
  Ag  Ag2       1.0  0.61700  0.82100  0.23400  1.0000
  Ag  Ag3       1.0  0.38300  0.17900  0.76600  1.0000
  Ag  Ag4       1.0  0.38300  0.58700  0.76600  1.0000
  Pr  Pr1       1.0  0.00000  0.50000  0.00000  1.0000
  Pr  Pr2       1.0  0.18100  0.18100  0.36300  1.0000
  Pr  Pr3       1.0  0.81900  0.81900  0.63700  1.0000
  Sn  Sn1       1.0  0.00000  0.15900  0.00000  1.0000
  Sn  Sn2       1.0  0.00000  0.84100  0.00000  1.0000
  Sn  Sn3       1.0  0.18800  0.68800  0.37600  1.0000
  Sn  Sn4       1.0  0.81200  0.31200  0.62400  1.0000
