data_image0
_chemical_formula_structural       Ge4U2
_chemical_formula_sum              "Ge4 U2"
_cell_length_a       4.03222
_cell_length_b       4.17974
_cell_length_c       7.50963
_cell_angle_alpha    90
_cell_angle_beta     74.4268
_cell_angle_gamma    90

_space_group_name_H-M_alt    "P 1"
_space_group_IT_number       1

loop_
  _space_group_symop_operation_xyz
  'x, y, z'

loop_
  _atom_site_type_symbol
  _atom_site_label
  _atom_site_symmetry_multiplicity
  _atom_site_fract_x
  _atom_site_fract_y
  _atom_site_fract_z
  _atom_site_occupancy
  Ge  Ge1       1.0  0.50000  0.00000  0.00000  1.0000
  Ge  Ge2       1.0  0.00000  0.50000  0.00000  1.0000
  Ge  Ge3       1.0  0.31300  0.50000  0.37500  1.0000
  Ge  Ge4       1.0  0.68700  0.50000  0.62500  1.0000
  U   U1        1.0  0.85400  0.00000  0.29100  1.0000
  U   U2        1.0  0.14600  0.00000  0.70900  1.0000
