data_image0
_chemical_formula_structural       Eu2F2O2
_chemical_formula_sum              "Eu2 F2 O2"
_cell_length_a       6.96887
_cell_length_b       6.96887
_cell_length_c       6.96887
_cell_angle_alpha    31.9979
_cell_angle_beta     31.9979
_cell_angle_gamma    31.9979

_space_group_name_H-M_alt    "P 1"
_space_group_IT_number       1

loop_
  _space_group_symop_operation_xyz
  'x, y, z'

loop_
  _atom_site_type_symbol
  _atom_site_label
  _atom_site_symmetry_multiplicity
  _atom_site_fract_x
  _atom_site_fract_y
  _atom_site_fract_z
  _atom_site_occupancy
  Eu  Eu1       1.0  0.25400  0.25400  0.25400  1.0000
  Eu  Eu2       1.0  0.74600  0.74600  0.74600  1.0000
  F   F1        1.0  0.37500  0.37500  0.37500  1.0000
  F   F2        1.0  0.62500  0.62500  0.62500  1.0000
  O   O1        1.0  0.13600  0.13600  0.13600  1.0000
  O   O2        1.0  0.86400  0.86400  0.86400  1.0000
