data_image0
_chemical_formula_structural       CS2Ta2
_chemical_formula_sum              "C1 S2 Ta2"
_cell_length_a       3.28701
_cell_length_b       3.28701
_cell_length_c       9.2198
_cell_angle_alpha    100.268
_cell_angle_beta     90
_cell_angle_gamma    120

_space_group_name_H-M_alt    "P 1"
_space_group_IT_number       1

loop_
  _space_group_symop_operation_xyz
  'x, y, z'

loop_
  _atom_site_type_symbol
  _atom_site_label
  _atom_site_symmetry_multiplicity
  _atom_site_fract_x
  _atom_site_fract_y
  _atom_site_fract_z
  _atom_site_occupancy
  C   C1        1.0  0.00000  0.00000  0.00000  1.0000
  S   S1        1.0  0.77100  0.54100  0.31200  1.0000
  S   S2        1.0  0.22900  0.45900  0.68800  1.0000
  Ta  Ta1       1.0  0.37700  0.75400  0.13200  1.0000
  Ta  Ta2       1.0  0.62300  0.24600  0.86800  1.0000
