data_image0
_chemical_formula_structural       F3O4PSn3
_chemical_formula_sum              "F3 O4 P1 Sn3"
_cell_length_a       4.54267
_cell_length_b       6.79281
_cell_length_c       6.79281
_cell_angle_alpha    115.18
_cell_angle_beta     102.88
_cell_angle_gamma    102.88

_space_group_name_H-M_alt    "P 1"
_space_group_IT_number       1

loop_
  _space_group_symop_operation_xyz
  'x, y, z'

loop_
  _atom_site_type_symbol
  _atom_site_label
  _atom_site_symmetry_multiplicity
  _atom_site_fract_x
  _atom_site_fract_y
  _atom_site_fract_z
  _atom_site_occupancy
  F   F1        1.0  0.64500  0.46000  0.12800  1.0000
  F   F2        1.0  0.51700  0.87200  0.33200  1.0000
  F   F3        1.0  0.18500  0.66800  0.54000  1.0000
  O   O1        1.0  0.33900  0.00000  0.00000  1.0000
  O   O2        1.0  0.04690  0.20900  0.23600  1.0000
  O   O3        1.0  0.83800  0.02680  0.79100  1.0000
  O   O4        1.0  0.81100  0.76400  0.97300  1.0000
  P   P1        1.0  0.99400  0.00000  0.00000  1.0000
  Sn  Sn1       1.0  0.71900  0.35400  0.38100  1.0000
  Sn  Sn2       1.0  0.36500  0.02740  0.64600  1.0000
  Sn  Sn3       1.0  0.33800  0.61900  0.97300  1.0000
