data_image0
_chemical_formula_structural       O8U3
_chemical_formula_sum              "O8 U3"
_cell_length_a       4.16818
_cell_length_b       6.88566
_cell_length_c       6.8235
_cell_angle_alpha    120.302
_cell_angle_beta     90
_cell_angle_gamma    90

_space_group_name_H-M_alt    "P 1"
_space_group_IT_number       1

loop_
  _space_group_symop_operation_xyz
  'x, y, z'

loop_
  _atom_site_type_symbol
  _atom_site_label
  _atom_site_symmetry_multiplicity
  _atom_site_fract_x
  _atom_site_fract_y
  _atom_site_fract_z
  _atom_site_occupancy
  O   O1        1.0  0.50000  0.03840  0.00000  1.0000
  O   O2        1.0  0.00000  0.41000  0.00000  1.0000
  O   O3        1.0  0.00000  0.93300  0.24700  1.0000
  O   O4        1.0  0.00000  0.33600  0.32900  1.0000
  O   O5        1.0  0.50000  0.67600  0.35600  1.0000
  O   O6        1.0  0.50000  0.32000  0.64400  1.0000
  O   O7        1.0  0.00000  0.00721  0.67100  1.0000
  O   O8        1.0  0.00000  0.68600  0.75300  1.0000
  U   U1        1.0  0.00000  0.02850  0.00000  1.0000
  U   U2        1.0  0.00000  0.67400  0.35200  1.0000
  U   U3        1.0  0.00000  0.32200  0.64800  1.0000
