data_image0
_chemical_formula_structural       Cl2H2O2Pb2
_chemical_formula_sum              "Cl2 H2 O2 Pb2"
_cell_length_a       4.00885
_cell_length_b       5.80341
_cell_length_c       7.09586
_cell_angle_alpha    100.328
_cell_angle_beta     106.408
_cell_angle_gamma    110.205

_space_group_name_H-M_alt    "P 1"
_space_group_IT_number       1

loop_
  _space_group_symop_operation_xyz
  'x, y, z'

loop_
  _atom_site_type_symbol
  _atom_site_label
  _atom_site_symmetry_multiplicity
  _atom_site_fract_x
  _atom_site_fract_y
  _atom_site_fract_z
  _atom_site_occupancy
  Cl  Cl1       1.0  0.75500  0.32100  0.18800  1.0000
  Cl  Cl2       1.0  0.24500  0.67900  0.81200  1.0000
  H   H1        1.0  0.51200  0.62500  0.39900  1.0000
  H   H2        1.0  0.48800  0.37500  0.60100  1.0000
  O   O1        1.0  0.61200  0.81000  0.41500  1.0000
  O   O2        1.0  0.38800  0.19000  0.58500  1.0000
  Pb  Pb1       1.0  0.06350  0.89000  0.23700  1.0000
  Pb  Pb2       1.0  0.93600  0.11000  0.76300  1.0000
