data_image0
_chemical_formula_structural       Cl4Cr2O4
_chemical_formula_sum              "Cl4 Cr2 O4"
_cell_length_a       6.35546
_cell_length_b       5.1247
_cell_length_c       7.22286
_cell_angle_alpha    94.8229
_cell_angle_beta     100.455
_cell_angle_gamma    96.9105

_space_group_name_H-M_alt    "P 1"
_space_group_IT_number       1

loop_
  _space_group_symop_operation_xyz
  'x, y, z'

loop_
  _atom_site_type_symbol
  _atom_site_label
  _atom_site_symmetry_multiplicity
  _atom_site_fract_x
  _atom_site_fract_y
  _atom_site_fract_z
  _atom_site_occupancy
  Cl  Cl1       1.0  0.54700  0.12400  0.10300  1.0000
  Cl  Cl2       1.0  0.75100  0.83300  0.45200  1.0000
  Cl  Cl3       1.0  0.29900  0.01070  0.46800  1.0000
  Cl  Cl4       1.0  0.97700  0.19100  0.83200  1.0000
  Cr  Cr1       1.0  0.00794  0.72800  0.32000  1.0000
  Cr  Cr2       1.0  0.28300  0.26700  0.74900  1.0000
  O   O1        1.0  0.96300  0.76900  0.10000  1.0000
  O   O2        1.0  0.04070  0.43100  0.35800  1.0000
  O   O3        1.0  0.38300  0.56800  0.75000  1.0000
  O   O4        1.0  0.48100  0.07770  0.86800  1.0000
