data_image0
_chemical_formula_structural       Ga2I8Pd
_chemical_formula_sum              "Ga2 I8 Pd1"
_cell_length_a       7.95503
_cell_length_b       8.40333
_cell_length_c       8.40333
_cell_angle_alpha    64.5494
_cell_angle_beta     96.0593
_cell_angle_gamma    96.0593

_space_group_name_H-M_alt    "P 1"
_space_group_IT_number       1

loop_
  _space_group_symop_operation_xyz
  'x, y, z'

loop_
  _atom_site_type_symbol
  _atom_site_label
  _atom_site_symmetry_multiplicity
  _atom_site_fract_x
  _atom_site_fract_y
  _atom_site_fract_z
  _atom_site_occupancy
  Ga  Ga1       1.0  0.34100  0.20900  0.20900  1.0000
  Ga  Ga2       1.0  0.65900  0.79100  0.79100  1.0000
  I   I1        1.0  0.85300  0.67800  0.09410  1.0000
  I   I2        1.0  0.64000  0.16600  0.16600  1.0000
  I   I3        1.0  0.14700  0.90600  0.32200  1.0000
  I   I4        1.0  0.31400  0.38400  0.38400  1.0000
  I   I5        1.0  0.68600  0.61600  0.61600  1.0000
  I   I6        1.0  0.85300  0.09410  0.67800  1.0000
  I   I7        1.0  0.36000  0.83400  0.83400  1.0000
  I   I8        1.0  0.14700  0.32200  0.90600  1.0000
  Pd  Pd1       1.0  0.00000  0.00000  0.00000  1.0000
