data_image0
_chemical_formula_structural       Ce3Cu4Ge4
_chemical_formula_sum              "Ce3 Cu4 Ge4"
_cell_length_a       4.40805
_cell_length_b       6.82906
_cell_length_c       8.33429
_cell_angle_alpha    65.8143
_cell_angle_beta     105.334
_cell_angle_gamma    90

_space_group_name_H-M_alt    "P 1"
_space_group_IT_number       1

loop_
  _space_group_symop_operation_xyz
  'x, y, z'

loop_
  _atom_site_type_symbol
  _atom_site_label
  _atom_site_symmetry_multiplicity
  _atom_site_fract_x
  _atom_site_fract_y
  _atom_site_fract_z
  _atom_site_occupancy
  Ce  Ce1       1.0  0.00000  0.50000  0.00000  1.0000
  Ce  Ce2       1.0  0.13300  0.86700  0.26700  1.0000
  Ce  Ce3       1.0  0.86700  0.13300  0.73300  1.0000
  Cu  Cu1       1.0  0.66500  0.51800  0.33100  1.0000
  Cu  Cu2       1.0  0.66500  0.15100  0.33100  1.0000
  Cu  Cu3       1.0  0.33500  0.84900  0.66900  1.0000
  Cu  Cu4       1.0  0.33500  0.48200  0.66900  1.0000
  Ge  Ge1       1.0  0.50000  0.81300  0.00000  1.0000
  Ge  Ge2       1.0  0.50000  0.18700  0.00000  1.0000
  Ge  Ge3       1.0  0.21700  0.28300  0.43300  1.0000
  Ge  Ge4       1.0  0.78300  0.71700  0.56700  1.0000
