data_image0
_chemical_formula_structural       BaBi4I2O4
_chemical_formula_sum              "Ba1 Bi4 I2 O4"
_cell_length_a       4.07201
_cell_length_b       4.07201
_cell_length_c       16.7765
_cell_angle_alpha    96.9706
_cell_angle_beta     96.9706
_cell_angle_gamma    90

_space_group_name_H-M_alt    "P 1"
_space_group_IT_number       1

loop_
  _space_group_symop_operation_xyz
  'x, y, z'

loop_
  _atom_site_type_symbol
  _atom_site_label
  _atom_site_symmetry_multiplicity
  _atom_site_fract_x
  _atom_site_fract_y
  _atom_site_fract_z
  _atom_site_occupancy
  Ba  Ba1       1.0  0.50000  0.50000  0.00000  1.0000
  Bi  Bi1       1.0  0.08470  0.08470  0.16900  1.0000
  Bi  Bi2       1.0  0.22500  0.22500  0.45100  1.0000
  Bi  Bi3       1.0  0.77500  0.77500  0.54900  1.0000
  Bi  Bi4       1.0  0.91500  0.91500  0.83100  1.0000
  I   I1        1.0  0.66400  0.66400  0.32800  1.0000
  I   I2        1.0  0.33600  0.33600  0.67200  1.0000
  O   O1        1.0  0.55600  0.05630  0.11300  1.0000
  O   O2        1.0  0.05630  0.55600  0.11300  1.0000
  O   O3        1.0  0.94400  0.44400  0.88700  1.0000
  O   O4        1.0  0.44400  0.94400  0.88700  1.0000
