data_image0
_chemical_formula_structural       Ag6Cs2S4
_chemical_formula_sum              "Ag6 Cs2 S4"
_cell_length_a       4.37486
_cell_length_b       8.44618
_cell_length_c       9.18086
_cell_angle_alpha    112.449
_cell_angle_beta     90
_cell_angle_gamma    105.01

_space_group_name_H-M_alt    "P 1"
_space_group_IT_number       1

loop_
  _space_group_symop_operation_xyz
  'x, y, z'

loop_
  _atom_site_type_symbol
  _atom_site_label
  _atom_site_symmetry_multiplicity
  _atom_site_fract_x
  _atom_site_fract_y
  _atom_site_fract_z
  _atom_site_occupancy
  Ag  Ag1       1.0  0.40500  0.80900  0.35400  1.0000
  Ag  Ag2       1.0  0.05830  0.11700  0.40200  1.0000
  Ag  Ag3       1.0  0.68800  0.37700  0.41600  1.0000
  Ag  Ag4       1.0  0.31200  0.62300  0.58400  1.0000
  Ag  Ag5       1.0  0.94200  0.88300  0.59800  1.0000
  Ag  Ag6       1.0  0.59500  0.19100  0.64600  1.0000
  Cs  Cs1       1.0  0.13600  0.27100  0.04360  1.0000
  Cs  Cs2       1.0  0.86400  0.72900  0.95600  1.0000
  S   S1        1.0  0.52100  0.04230  0.23400  1.0000
  S   S2        1.0  0.80800  0.61600  0.31300  1.0000
  S   S3        1.0  0.19200  0.38400  0.68700  1.0000
  S   S4        1.0  0.47900  0.95800  0.76600  1.0000
