data_image0
_chemical_formula_structural       Nd2P10
_chemical_formula_sum              "Nd2 P10"
_cell_length_a       5.02229
_cell_length_b       9.59135
_cell_length_c       5.46336
_cell_angle_alpha    90
_cell_angle_beta     102.335
_cell_angle_gamma    90

_space_group_name_H-M_alt    "P 1"
_space_group_IT_number       1

loop_
  _space_group_symop_operation_xyz
  'x, y, z'

loop_
  _atom_site_type_symbol
  _atom_site_label
  _atom_site_symmetry_multiplicity
  _atom_site_fract_x
  _atom_site_fract_y
  _atom_site_fract_z
  _atom_site_occupancy
  Nd  Nd1       1.0  0.01100  0.25000  0.35000  1.0000
  Nd  Nd2       1.0  0.98900  0.75000  0.65000  1.0000
  P   P1        1.0  0.38400  0.59100  0.04620  1.0000
  P   P2        1.0  0.38400  0.90900  0.04620  1.0000
  P   P3        1.0  0.71300  0.75000  0.09850  1.0000
  P   P4        1.0  0.29200  0.53100  0.40200  1.0000
  P   P5        1.0  0.29200  0.96900  0.40200  1.0000
  P   P6        1.0  0.70800  0.03100  0.59800  1.0000
  P   P7        1.0  0.70800  0.46900  0.59800  1.0000
  P   P8        1.0  0.28700  0.25000  0.90200  1.0000
  P   P9        1.0  0.61600  0.09080  0.95400  1.0000
  P   P10       1.0  0.61600  0.40900  0.95400  1.0000
