data_image0
_chemical_formula_structural       Cs4H8O16P4
_chemical_formula_sum              "Cs4 H8 O16 P4"
_cell_length_a       14.9827
_cell_length_b       5.93183
_cell_length_c       4.77625
_cell_angle_alpha    90
_cell_angle_beta     109.801
_cell_angle_gamma    90

_space_group_name_H-M_alt    "P 1"
_space_group_IT_number       1

loop_
  _space_group_symop_operation_xyz
  'x, y, z'

loop_
  _atom_site_type_symbol
  _atom_site_label
  _atom_site_symmetry_multiplicity
  _atom_site_fract_x
  _atom_site_fract_y
  _atom_site_fract_z
  _atom_site_occupancy
  Cs  Cs1       1.0  0.12800  0.24700  0.25600  1.0000
  Cs  Cs2       1.0  0.87200  0.74700  0.74400  1.0000
  Cs  Cs3       1.0  0.62800  0.25900  0.25600  1.0000
  Cs  Cs4       1.0  0.37200  0.75900  0.74400  1.0000
  H   H1        1.0  0.99700  0.49500  0.48900  1.0000
  H   H2        1.0  0.00316  0.99500  0.51100  1.0000
  H   H3        1.0  0.18900  0.74800  0.21500  1.0000
  H   H4        1.0  0.81100  0.24800  0.78500  1.0000
  H   H5        1.0  0.50400  0.51200  0.51200  1.0000
  H   H6        1.0  0.49600  0.01160  0.48800  1.0000
  H   H7        1.0  0.69000  0.75900  0.21300  1.0000
  H   H8        1.0  0.31000  0.25900  0.78700  1.0000
  O   O1        1.0  0.56400  0.97200  0.72700  1.0000
  O   O2        1.0  0.43600  0.47200  0.27300  1.0000
  O   O3        1.0  0.56500  0.54500  0.72600  1.0000
  O   O4        1.0  0.43500  0.04540  0.27400  1.0000
  O   O5        1.0  0.71100  0.75600  0.02850  1.0000
  O   O6        1.0  0.28900  0.25600  0.97100  1.0000
  O   O7        1.0  0.66300  0.76000  0.47500  1.0000
  O   O8        1.0  0.33700  0.26000  0.52500  1.0000
  O   O9        1.0  0.06400  0.96100  0.72800  1.0000
  O   O10       1.0  0.93600  0.46100  0.27200  1.0000
  O   O11       1.0  0.06380  0.53400  0.72900  1.0000
  O   O12       1.0  0.93600  0.03440  0.27100  1.0000
  O   O13       1.0  0.21000  0.75100  0.02990  1.0000
  O   O14       1.0  0.79000  0.25100  0.97000  1.0000
  O   O15       1.0  0.16300  0.74700  0.47700  1.0000
  O   O16       1.0  0.83700  0.24700  0.52300  1.0000
  P   P1        1.0  0.62400  0.76100  0.72800  1.0000
  P   P2        1.0  0.37600  0.26100  0.27200  1.0000
  P   P3        1.0  0.12400  0.74600  0.72900  1.0000
  P   P4        1.0  0.87600  0.24600  0.27100  1.0000
