data_image0
_chemical_formula_structural       As6Eu6
_chemical_formula_sum              "As6 Eu6"
_cell_length_a       8.12283
_cell_length_b       8.12282
_cell_length_c       6.06448
_cell_angle_alpha    90
_cell_angle_beta     90
_cell_angle_gamma    119.998

_space_group_name_H-M_alt    "P 1"
_space_group_IT_number       1

loop_
  _space_group_symop_operation_xyz
  'x, y, z'

loop_
  _atom_site_type_symbol
  _atom_site_label
  _atom_site_symmetry_multiplicity
  _atom_site_fract_x
  _atom_site_fract_y
  _atom_site_fract_z
  _atom_site_occupancy
  As  As1       1.0  0.66700  0.33300  0.21300  1.0000
  As  As2       1.0  0.33300  0.66700  0.21300  1.0000
  As  As3       1.0  0.00002  0.00002  0.29300  1.0000
  As  As4       1.0  0.00002  0.00002  0.70700  1.0000
  As  As5       1.0  0.66700  0.33300  0.78700  1.0000
  As  As6       1.0  0.33300  0.66700  0.78700  1.0000
  Eu  Eu1       1.0  0.31400  0.00001  0.00000  1.0000
  Eu  Eu2       1.0  0.00001  0.31400  0.00000  1.0000
  Eu  Eu3       1.0  0.68600  0.68600  0.00000  1.0000
  Eu  Eu4       1.0  0.64900  0.00002  0.50000  1.0000
  Eu  Eu5       1.0  0.35100  0.35100  0.50000  1.0000
  Eu  Eu6       1.0  0.00002  0.64900  0.50000  1.0000
