data_image0
_chemical_formula_structural       Li4O6Si2
_chemical_formula_sum              "Li4 O6 Si2"
_cell_length_a       4.65067
_cell_length_b       5.36181
_cell_length_c       5.3877
_cell_angle_alpha    119.841
_cell_angle_beta     90
_cell_angle_gamma    90

_space_group_name_H-M_alt    "P 1"
_space_group_IT_number       1

loop_
  _space_group_symop_operation_xyz
  'x, y, z'

loop_
  _atom_site_type_symbol
  _atom_site_label
  _atom_site_symmetry_multiplicity
  _atom_site_fract_x
  _atom_site_fract_y
  _atom_site_fract_z
  _atom_site_occupancy
  Li  Li1       1.0  0.50600  0.51500  0.34500  1.0000
  Li  Li2       1.0  0.00610  0.83100  0.34500  1.0000
  Li  Li3       1.0  0.50600  0.16900  0.65500  1.0000
  Li  Li4       1.0  0.00610  0.48500  0.65500  1.0000
  O   O1        1.0  0.64700  0.11900  0.00000  1.0000
  O   O2        1.0  0.14700  0.88100  0.00000  1.0000
  O   O3        1.0  0.09070  0.45700  0.29200  1.0000
  O   O4        1.0  0.59100  0.83500  0.29200  1.0000
  O   O5        1.0  0.09070  0.16500  0.70800  1.0000
  O   O6        1.0  0.59100  0.54300  0.70800  1.0000
  Si  Si1       1.0  0.00568  0.17300  0.00000  1.0000
  Si  Si2       1.0  0.50600  0.82700  0.00000  1.0000
