data_image0
_chemical_formula_structural       Cr2P2S8
_chemical_formula_sum              "Cr2 P2 S8"
_cell_length_a       6.34201
_cell_length_b       6.54779
_cell_length_c       6.54779
_cell_angle_alpha    67.7538
_cell_angle_beta     91.6608
_cell_angle_gamma    91.6608

_space_group_name_H-M_alt    "P 1"
_space_group_IT_number       1

loop_
  _space_group_symop_operation_xyz
  'x, y, z'

loop_
  _atom_site_type_symbol
  _atom_site_label
  _atom_site_symmetry_multiplicity
  _atom_site_fract_x
  _atom_site_fract_y
  _atom_site_fract_z
  _atom_site_occupancy
  Cr  Cr1       1.0  0.00000  0.74500  0.25500  1.0000
  Cr  Cr2       1.0  0.00000  0.25500  0.74500  1.0000
  P   P1        1.0  0.16000  0.29700  0.29700  1.0000
  P   P2        1.0  0.84000  0.70300  0.70300  1.0000
  S   S1        1.0  0.18400  0.10400  0.10400  1.0000
  S   S2        1.0  0.29000  0.60000  0.13200  1.0000
  S   S3        1.0  0.85900  0.37100  0.37100  1.0000
  S   S4        1.0  0.71000  0.86800  0.40000  1.0000
  S   S5        1.0  0.29000  0.13200  0.60000  1.0000
  S   S6        1.0  0.14100  0.62900  0.62900  1.0000
  S   S7        1.0  0.71000  0.40000  0.86800  1.0000
  S   S8        1.0  0.81600  0.89600  0.89600  1.0000
