data_image0
_chemical_formula_structural       Cl7Mn2Rb3
_chemical_formula_sum              "Cl7 Mn2 Rb3"
_cell_length_a       5.04787
_cell_length_b       5.04787
_cell_length_c       13.6029
_cell_angle_alpha    100.693
_cell_angle_beta     100.693
_cell_angle_gamma    90

_space_group_name_H-M_alt    "P 1"
_space_group_IT_number       1

loop_
  _space_group_symop_operation_xyz
  'x, y, z'

loop_
  _atom_site_type_symbol
  _atom_site_label
  _atom_site_symmetry_multiplicity
  _atom_site_fract_x
  _atom_site_fract_y
  _atom_site_fract_z
  _atom_site_occupancy
  Cl  Cl1       1.0  0.50000  0.50000  0.00000  1.0000
  Cl  Cl2       1.0  0.59600  0.09560  0.19100  1.0000
  Cl  Cl3       1.0  0.09560  0.59600  0.19100  1.0000
  Cl  Cl4       1.0  0.69300  0.69300  0.38700  1.0000
  Cl  Cl5       1.0  0.30700  0.30700  0.61300  1.0000
  Cl  Cl6       1.0  0.90400  0.40400  0.80900  1.0000
  Cl  Cl7       1.0  0.40400  0.90400  0.80900  1.0000
  Mn  Mn1       1.0  0.59800  0.59800  0.19700  1.0000
  Mn  Mn2       1.0  0.40200  0.40200  0.80300  1.0000
  Rb  Rb1       1.0  0.00000  0.00000  0.00000  1.0000
  Rb  Rb2       1.0  0.18300  0.18300  0.36600  1.0000
  Rb  Rb3       1.0  0.81700  0.81700  0.63400  1.0000
