data_image0
_chemical_formula_structural       Fe2Nb2O8
_chemical_formula_sum              "Fe2 Nb2 O8"
_cell_length_a       3.85482
_cell_length_b       6.55953
_cell_length_c       6.6872
_cell_angle_alpha    106.775
_cell_angle_beta     90
_cell_angle_gamma    107.088

_space_group_name_H-M_alt    "P 1"
_space_group_IT_number       1

loop_
  _space_group_symop_operation_xyz
  'x, y, z'

loop_
  _atom_site_type_symbol
  _atom_site_label
  _atom_site_symmetry_multiplicity
  _atom_site_fract_x
  _atom_site_fract_y
  _atom_site_fract_z
  _atom_site_occupancy
  Fe  Fe1       1.0  0.80000  0.60300  0.18600  1.0000
  Fe  Fe2       1.0  0.19700  0.39700  0.81400  1.0000
  Nb  Nb1       1.0  0.10100  0.20700  0.23000  1.0000
  Nb  Nb2       1.0  0.89300  0.79300  0.77000  1.0000
  O   O1        1.0  0.94100  0.89000  0.13400  1.0000
  O   O2        1.0  0.25600  0.51600  0.14700  1.0000
  O   O3        1.0  0.63400  0.27200  0.20200  1.0000
  O   O4        1.0  0.86500  0.72700  0.48500  1.0000
  O   O5        1.0  0.13800  0.27300  0.51500  1.0000
  O   O6        1.0  0.36200  0.72800  0.79800  1.0000
  O   O7        1.0  0.74100  0.48400  0.85300  1.0000
  O   O8        1.0  0.05070  0.11000  0.86600  1.0000
