data_image0
_chemical_formula_structural       Ca2O8S2
_chemical_formula_sum              "Ca2 O8 S2"
_cell_length_a       4.64801
_cell_length_b       4.64801
_cell_length_c       6.951
_cell_angle_alpha    90
_cell_angle_beta     90
_cell_angle_gamma    83.5659

_space_group_name_H-M_alt    "P 1"
_space_group_IT_number       1

loop_
  _space_group_symop_operation_xyz
  'x, y, z'

loop_
  _atom_site_type_symbol
  _atom_site_label
  _atom_site_symmetry_multiplicity
  _atom_site_fract_x
  _atom_site_fract_y
  _atom_site_fract_z
  _atom_site_occupancy
  Ca  Ca1       1.0  0.34800  0.65200  0.25000  1.0000
  Ca  Ca2       1.0  0.65200  0.34800  0.75000  1.0000
  O   O1        1.0  0.70100  0.29900  0.07950  1.0000
  O   O2        1.0  0.15900  0.18600  0.25000  1.0000
  O   O3        1.0  0.81400  0.84100  0.25000  1.0000
  O   O4        1.0  0.70100  0.29900  0.42100  1.0000
  O   O5        1.0  0.29900  0.70100  0.57900  1.0000
  O   O6        1.0  0.18600  0.15900  0.75000  1.0000
  O   O7        1.0  0.84100  0.81400  0.75000  1.0000
  O   O8        1.0  0.29900  0.70100  0.92100  1.0000
  S   S1        1.0  0.84500  0.15500  0.25000  1.0000
  S   S2        1.0  0.15500  0.84500  0.75000  1.0000
