data_image0
_chemical_formula_structural       K2O8Re2
_chemical_formula_sum              "K2 O8 Re2"
_cell_length_a       7.41969
_cell_length_b       5.60065
_cell_length_c       5.60065
_cell_angle_alpha    90
_cell_angle_beta     112.174
_cell_angle_gamma    112.174

_space_group_name_H-M_alt    "P 1"
_space_group_IT_number       1

loop_
  _space_group_symop_operation_xyz
  'x, y, z'

loop_
  _atom_site_type_symbol
  _atom_site_label
  _atom_site_symmetry_multiplicity
  _atom_site_fract_x
  _atom_site_fract_y
  _atom_site_fract_z
  _atom_site_occupancy
  K   K1        1.0  0.25000  0.62500  0.37500  1.0000
  K   K2        1.0  0.75000  0.37500  0.62500  1.0000
  O   O1        1.0  0.90900  0.72700  0.08320  1.0000
  O   O2        1.0  0.40900  0.08320  0.18200  1.0000
  O   O3        1.0  0.59100  0.67400  0.27300  1.0000
  O   O4        1.0  0.90900  0.18200  0.32600  1.0000
  O   O5        1.0  0.09080  0.81800  0.67400  1.0000
  O   O6        1.0  0.40900  0.32600  0.72700  1.0000
  O   O7        1.0  0.59100  0.91700  0.81800  1.0000
  O   O8        1.0  0.09080  0.27300  0.91700  1.0000
  Re  Re1       1.0  0.75000  0.87500  0.12500  1.0000
  Re  Re2       1.0  0.25000  0.12500  0.87500  1.0000
