data_image0
_chemical_formula_structural       Cl4F4Sn4
_chemical_formula_sum              "Cl4 F4 Sn4"
_cell_length_a       6.11551
_cell_length_b       4.31993
_cell_length_c       9.841
_cell_angle_alpha    90
_cell_angle_beta     90
_cell_angle_gamma    90

_space_group_name_H-M_alt    "P 1"
_space_group_IT_number       1

loop_
  _space_group_symop_operation_xyz
  'x, y, z'

loop_
  _atom_site_type_symbol
  _atom_site_label
  _atom_site_symmetry_multiplicity
  _atom_site_fract_x
  _atom_site_fract_y
  _atom_site_fract_z
  _atom_site_occupancy
  Cl  Cl1       1.0  0.59300  0.75000  0.14400  1.0000
  Cl  Cl2       1.0  0.09300  0.75000  0.35600  1.0000
  Cl  Cl3       1.0  0.90700  0.25000  0.64400  1.0000
  Cl  Cl4       1.0  0.40700  0.25000  0.85600  1.0000
  F   F1        1.0  0.10900  0.75000  0.01750  1.0000
  F   F2        1.0  0.60900  0.75000  0.48200  1.0000
  F   F3        1.0  0.39100  0.25000  0.51800  1.0000
  F   F4        1.0  0.89100  0.25000  0.98200  1.0000
  Sn  Sn1       1.0  0.21800  0.25000  0.09190  1.0000
  Sn  Sn2       1.0  0.71800  0.25000  0.40800  1.0000
  Sn  Sn3       1.0  0.28200  0.75000  0.59200  1.0000
  Sn  Sn4       1.0  0.78200  0.75000  0.90800  1.0000
