data_image0
_chemical_formula_structural       Br4Nd4S4
_chemical_formula_sum              "Br4 Nd4 S4"
_cell_length_a       7.08178
_cell_length_b       6.98052
_cell_length_c       7.09654
_cell_angle_alpha    90
_cell_angle_beta     90
_cell_angle_gamma    99.8355

_space_group_name_H-M_alt    "P 1"
_space_group_IT_number       1

loop_
  _space_group_symop_operation_xyz
  'x, y, z'

loop_
  _atom_site_type_symbol
  _atom_site_label
  _atom_site_symmetry_multiplicity
  _atom_site_fract_x
  _atom_site_fract_y
  _atom_site_fract_z
  _atom_site_occupancy
  Br  Br1       1.0  0.08220  0.29300  0.11800  1.0000
  Br  Br2       1.0  0.08220  0.79300  0.38200  1.0000
  Br  Br3       1.0  0.91800  0.20700  0.61800  1.0000
  Br  Br4       1.0  0.91800  0.70700  0.88200  1.0000
  Nd  Nd1       1.0  0.31800  0.70900  0.03400  1.0000
  Nd  Nd2       1.0  0.31800  0.20900  0.46600  1.0000
  Nd  Nd3       1.0  0.68200  0.79100  0.53400  1.0000
  Nd  Nd4       1.0  0.68200  0.29100  0.96600  1.0000
  S   S1        1.0  0.55000  0.00854  0.24100  1.0000
  S   S2        1.0  0.55000  0.50900  0.25900  1.0000
  S   S3        1.0  0.45000  0.49100  0.74100  1.0000
  S   S4        1.0  0.45000  0.99100  0.75900  1.0000
