data_image0
_chemical_formula_structural       Ag2Au2Cl8
_chemical_formula_sum              "Ag2 Au2 Cl8"
_cell_length_a       4.17867
_cell_length_b       6.68944
_cell_length_c       11.8044
_cell_angle_alpha    92.7122
_cell_angle_beta     100.195
_cell_angle_gamma    71.8001

_space_group_name_H-M_alt    "P 1"
_space_group_IT_number       1

loop_
  _space_group_symop_operation_xyz
  'x, y, z'

loop_
  _atom_site_type_symbol
  _atom_site_label
  _atom_site_symmetry_multiplicity
  _atom_site_fract_x
  _atom_site_fract_y
  _atom_site_fract_z
  _atom_site_occupancy
  Ag  Ag1       1.0  0.75500  0.75000  0.25000  1.0000
  Ag  Ag2       1.0  0.24500  0.25000  0.75000  1.0000
  Au  Au1       1.0  0.00000  0.00000  0.00000  1.0000
  Au  Au2       1.0  0.50000  0.50000  0.50000  1.0000
  Cl  Cl1       1.0  0.18000  0.67500  0.09270  1.0000
  Cl  Cl2       1.0  0.32900  0.12500  0.15000  1.0000
  Cl  Cl3       1.0  0.80400  0.37500  0.35000  1.0000
  Cl  Cl4       1.0  0.26300  0.82500  0.40700  1.0000
  Cl  Cl5       1.0  0.73700  0.17500  0.59300  1.0000
  Cl  Cl6       1.0  0.19600  0.62500  0.65000  1.0000
  Cl  Cl7       1.0  0.67100  0.87500  0.85000  1.0000
  Cl  Cl8       1.0  0.82000  0.32500  0.90700  1.0000
