data_image0
_chemical_formula_structural       AlKO8S2
_chemical_formula_sum              "Al1 K1 O8 S2"
_cell_length_a       4.72988
_cell_length_b       4.72972
_cell_length_c       7.78501
_cell_angle_alpha    90
_cell_angle_beta     90.0013
_cell_angle_gamma    119.999

_space_group_name_H-M_alt    "P 1"
_space_group_IT_number       1

loop_
  _space_group_symop_operation_xyz
  'x, y, z'

loop_
  _atom_site_type_symbol
  _atom_site_label
  _atom_site_symmetry_multiplicity
  _atom_site_fract_x
  _atom_site_fract_y
  _atom_site_fract_z
  _atom_site_occupancy
  Al  Al1       1.0  0.00000  0.00003  0.50000  1.0000
  K   K1        1.0  0.00000  0.00003  0.00000  1.0000
  O   O1        1.0  0.33300  0.66700  0.09290  1.0000
  O   O2        1.0  0.26000  0.34200  0.34400  1.0000
  O   O3        1.0  0.65800  0.91900  0.34400  1.0000
  O   O4        1.0  0.08130  0.74000  0.34400  1.0000
  O   O5        1.0  0.91900  0.65900  0.65600  1.0000
  O   O6        1.0  0.34200  0.26000  0.65600  1.0000
  O   O7        1.0  0.74000  0.08140  0.65600  1.0000
  O   O8        1.0  0.66700  0.33300  0.90700  1.0000
  S   S1        1.0  0.33300  0.66700  0.27900  1.0000
  S   S2        1.0  0.66700  0.33300  0.72100  1.0000
