data_image0
_chemical_formula_structural       Ge4Pt4Se4
_chemical_formula_sum              "Ge4 Pt4 Se4"
_cell_length_a       6.09674
_cell_length_b       6.14801
_cell_length_c       6.07542
_cell_angle_alpha    90
_cell_angle_beta     90
_cell_angle_gamma    90

_space_group_name_H-M_alt    "P 1"
_space_group_IT_number       1

loop_
  _space_group_symop_operation_xyz
  'x, y, z'

loop_
  _atom_site_type_symbol
  _atom_site_label
  _atom_site_symmetry_multiplicity
  _atom_site_fract_x
  _atom_site_fract_y
  _atom_site_fract_z
  _atom_site_occupancy
  Ge  Ge1       1.0  0.11900  0.12500  0.11800  1.0000
  Ge  Ge2       1.0  0.61900  0.87500  0.11800  1.0000
  Ge  Ge3       1.0  0.38100  0.12500  0.61800  1.0000
  Ge  Ge4       1.0  0.88100  0.87500  0.61800  1.0000
  Pt  Pt1       1.0  0.49200  0.24100  0.99600  1.0000
  Pt  Pt2       1.0  0.99200  0.75900  0.99600  1.0000
  Pt  Pt3       1.0  0.00789  0.24100  0.49600  1.0000
  Pt  Pt4       1.0  0.50800  0.75900  0.49600  1.0000
  Se  Se1       1.0  0.61600  0.36400  0.38400  1.0000
  Se  Se2       1.0  0.11600  0.63600  0.38400  1.0000
  Se  Se3       1.0  0.88400  0.36400  0.88400  1.0000
  Se  Se4       1.0  0.38400  0.63600  0.88400  1.0000
