data_image0
_chemical_formula_structural       Cl8Tl4
_chemical_formula_sum              "Cl8 Tl4"
_cell_length_a       7.04255
_cell_length_b       7.04255
_cell_length_c       9.27923
_cell_angle_alpha    112.301
_cell_angle_beta     112.301
_cell_angle_gamma    90

_space_group_name_H-M_alt    "P 1"
_space_group_IT_number       1

loop_
  _space_group_symop_operation_xyz
  'x, y, z'

loop_
  _atom_site_type_symbol
  _atom_site_label
  _atom_site_symmetry_multiplicity
  _atom_site_fract_x
  _atom_site_fract_y
  _atom_site_fract_z
  _atom_site_occupancy
  Cl  Cl1       1.0  0.33500  0.24400  0.17300  1.0000
  Cl  Cl2       1.0  0.83800  0.92800  0.17300  1.0000
  Cl  Cl3       1.0  0.91500  0.50600  0.32700  1.0000
  Cl  Cl4       1.0  0.41200  0.82200  0.32700  1.0000
  Cl  Cl5       1.0  0.17800  0.08520  0.67300  1.0000
  Cl  Cl6       1.0  0.49400  0.58800  0.67300  1.0000
  Cl  Cl7       1.0  0.75600  0.16200  0.82700  1.0000
  Cl  Cl8       1.0  0.07160  0.66500  0.82700  1.0000
  Tl  Tl1       1.0  0.00000  0.00000  0.00000  1.0000
  Tl  Tl2       1.0  0.50000  0.50000  0.00000  1.0000
  Tl  Tl3       1.0  0.75000  0.25000  0.50000  1.0000
  Tl  Tl4       1.0  0.25000  0.75000  0.50000  1.0000
