data_image0
_chemical_formula_structural       Cu4Mg2O6
_chemical_formula_sum              "Cu4 Mg2 O6"
_cell_length_a       4.0124
_cell_length_b       9.24972
_cell_length_c       3.15088
_cell_angle_alpha    90
_cell_angle_beta     90
_cell_angle_gamma    90

_space_group_name_H-M_alt    "P 1"
_space_group_IT_number       1

loop_
  _space_group_symop_operation_xyz
  'x, y, z'

loop_
  _atom_site_type_symbol
  _atom_site_label
  _atom_site_symmetry_multiplicity
  _atom_site_fract_x
  _atom_site_fract_y
  _atom_site_fract_z
  _atom_site_occupancy
  Cu  Cu1       1.0  0.25000  0.58600  0.17200  1.0000
  Cu  Cu2       1.0  0.25000  0.91400  0.17200  1.0000
  Cu  Cu3       1.0  0.75000  0.08610  0.82800  1.0000
  Cu  Cu4       1.0  0.75000  0.41400  0.82800  1.0000
  Mg  Mg1       1.0  0.25000  0.25000  0.36200  1.0000
  Mg  Mg2       1.0  0.75000  0.75000  0.63800  1.0000
  O   O1        1.0  0.75000  0.59500  0.13200  1.0000
  O   O2        1.0  0.75000  0.90500  0.13200  1.0000
  O   O3        1.0  0.75000  0.25000  0.46100  1.0000
  O   O4        1.0  0.25000  0.75000  0.53900  1.0000
  O   O5        1.0  0.25000  0.09520  0.86800  1.0000
  O   O6        1.0  0.25000  0.40500  0.86800  1.0000
