data_image0
_chemical_formula_structural       O8Tb2V2
_chemical_formula_sum              "O8 Tb2 V2"
_cell_length_a       5.95519
_cell_length_b       5.95519
_cell_length_c       5.95519
_cell_angle_alpha    106.292
_cell_angle_beta     116.035
_cell_angle_gamma    106.292

_space_group_name_H-M_alt    "P 1"
_space_group_IT_number       1

loop_
  _space_group_symop_operation_xyz
  'x, y, z'

loop_
  _atom_site_type_symbol
  _atom_site_label
  _atom_site_symmetry_multiplicity
  _atom_site_fract_x
  _atom_site_fract_y
  _atom_site_fract_z
  _atom_site_occupancy
  O   O1        1.0  0.38900  0.31400  0.07480  1.0000
  O   O2        1.0  0.76000  0.68600  0.07480  1.0000
  O   O3        1.0  0.32500  0.81400  0.13900  1.0000
  O   O4        1.0  0.92500  0.31400  0.24000  1.0000
  O   O5        1.0  0.32500  0.18600  0.51000  1.0000
  O   O6        1.0  0.92500  0.68600  0.61100  1.0000
  O   O7        1.0  0.49000  0.81400  0.67500  1.0000
  O   O8        1.0  0.86100  0.18600  0.67500  1.0000
  Tb  Tb1       1.0  0.00000  0.00000  0.00000  1.0000
  Tb  Tb2       1.0  0.25000  0.50000  0.75000  1.0000
  V   V1        1.0  0.75000  0.50000  0.25000  1.0000
  V   V2        1.0  0.50000  0.00000  0.50000  1.0000
