data_image0
_chemical_formula_structural       Na4O6S2
_chemical_formula_sum              "Na4 O6 S2"
_cell_length_a       5.43231
_cell_length_b       5.43231
_cell_length_c       6.03821
_cell_angle_alpha    89.9986
_cell_angle_beta     90.0014
_cell_angle_gamma    120

_space_group_name_H-M_alt    "P 1"
_space_group_IT_number       1

loop_
  _space_group_symop_operation_xyz
  'x, y, z'

loop_
  _atom_site_type_symbol
  _atom_site_label
  _atom_site_symmetry_multiplicity
  _atom_site_fract_x
  _atom_site_fract_y
  _atom_site_fract_z
  _atom_site_occupancy
  Na  Na1       1.0  0.00000  0.00000  0.00000  1.0000
  Na  Na2       1.0  0.66700  0.33300  0.33800  1.0000
  Na  Na3       1.0  0.00000  0.00000  0.50000  1.0000
  Na  Na4       1.0  0.33300  0.66700  0.66200  1.0000
  O   O1        1.0  0.62100  0.74000  0.26500  1.0000
  O   O2        1.0  0.11900  0.37900  0.26500  1.0000
  O   O3        1.0  0.26000  0.88100  0.26500  1.0000
  O   O4        1.0  0.74000  0.11900  0.73500  1.0000
  O   O5        1.0  0.88100  0.62100  0.73500  1.0000
  O   O6        1.0  0.37900  0.26000  0.73500  1.0000
  S   S1        1.0  0.33300  0.66700  0.16100  1.0000
  S   S2        1.0  0.66700  0.33300  0.83900  1.0000
