data_image0
_chemical_formula_structural       Ga4H8Rb4
_chemical_formula_sum              "Ga4 H8 Rb4"
_cell_length_a       7.41208
_cell_length_b       4.49414
_cell_length_c       9.44585
_cell_angle_alpha    90
_cell_angle_beta     90
_cell_angle_gamma    90

_space_group_name_H-M_alt    "P 1"
_space_group_IT_number       1

loop_
  _space_group_symop_operation_xyz
  'x, y, z'

loop_
  _atom_site_type_symbol
  _atom_site_label
  _atom_site_symmetry_multiplicity
  _atom_site_fract_x
  _atom_site_fract_y
  _atom_site_fract_z
  _atom_site_occupancy
  Ga  Ga1       1.0  0.06410  0.75000  0.03420  1.0000
  Ga  Ga2       1.0  0.56400  0.75000  0.46600  1.0000
  Ga  Ga3       1.0  0.43600  0.25000  0.53400  1.0000
  Ga  Ga4       1.0  0.93600  0.25000  0.96600  1.0000
  H   H1        1.0  0.72000  0.25000  0.01870  1.0000
  H   H2        1.0  0.10400  0.75000  0.20700  1.0000
  H   H3        1.0  0.60400  0.75000  0.29300  1.0000
  H   H4        1.0  0.22000  0.25000  0.48100  1.0000
  H   H5        1.0  0.78000  0.75000  0.51900  1.0000
  H   H6        1.0  0.39600  0.25000  0.70700  1.0000
  H   H7        1.0  0.89600  0.25000  0.79300  1.0000
  H   H8        1.0  0.28000  0.75000  0.98100  1.0000
  Rb  Rb1       1.0  0.38200  0.25000  0.17300  1.0000
  Rb  Rb2       1.0  0.88200  0.25000  0.32700  1.0000
  Rb  Rb3       1.0  0.11800  0.75000  0.67300  1.0000
  Rb  Rb4       1.0  0.61800  0.75000  0.82700  1.0000
