data_image0
_chemical_formula_structural       Cu4Mg4P4
_chemical_formula_sum              "Cu4 Mg4 P4"
_cell_length_a       6.51026
_cell_length_b       3.83319
_cell_length_c       7.13955
_cell_angle_alpha    90
_cell_angle_beta     90
_cell_angle_gamma    90

_space_group_name_H-M_alt    "P 1"
_space_group_IT_number       1

loop_
  _space_group_symop_operation_xyz
  'x, y, z'

loop_
  _atom_site_type_symbol
  _atom_site_label
  _atom_site_symmetry_multiplicity
  _atom_site_fract_x
  _atom_site_fract_y
  _atom_site_fract_z
  _atom_site_occupancy
  Cu  Cu1       1.0  0.62700  0.25000  0.06250  1.0000
  Cu  Cu2       1.0  0.12700  0.25000  0.43700  1.0000
  Cu  Cu3       1.0  0.87300  0.75000  0.56300  1.0000
  Cu  Cu4       1.0  0.37300  0.75000  0.93700  1.0000
  Mg  Mg1       1.0  0.96700  0.75000  0.18000  1.0000
  Mg  Mg2       1.0  0.46700  0.75000  0.32000  1.0000
  Mg  Mg3       1.0  0.53300  0.25000  0.68000  1.0000
  Mg  Mg4       1.0  0.03250  0.25000  0.82000  1.0000
  P   P1        1.0  0.25300  0.25000  0.12200  1.0000
  P   P2        1.0  0.75300  0.25000  0.37800  1.0000
  P   P3        1.0  0.24700  0.75000  0.62200  1.0000
  P   P4        1.0  0.74700  0.75000  0.87800  1.0000
