data_image0
_chemical_formula_structural       Dy2O8V2
_chemical_formula_sum              "Dy2 O8 V2"
_cell_length_a       5.93303
_cell_length_b       5.93303
_cell_length_c       5.93303
_cell_angle_alpha    106.311
_cell_angle_beta     115.996
_cell_angle_gamma    106.311

_space_group_name_H-M_alt    "P 1"
_space_group_IT_number       1

loop_
  _space_group_symop_operation_xyz
  'x, y, z'

loop_
  _atom_site_type_symbol
  _atom_site_label
  _atom_site_symmetry_multiplicity
  _atom_site_fract_x
  _atom_site_fract_y
  _atom_site_fract_z
  _atom_site_occupancy
  Dy  Dy1       1.0  0.00000  0.00000  0.00000  1.0000
  Dy  Dy2       1.0  0.75000  0.50000  0.25000  1.0000
  O   O1        1.0  0.50900  0.18600  0.32400  1.0000
  O   O2        1.0  0.13800  0.81400  0.32400  1.0000
  O   O3        1.0  0.07350  0.31400  0.38800  1.0000
  O   O4        1.0  0.67600  0.81400  0.49100  1.0000
  O   O5        1.0  0.07350  0.68600  0.75900  1.0000
  O   O6        1.0  0.67600  0.18600  0.86200  1.0000
  O   O7        1.0  0.24100  0.31400  0.92600  1.0000
  O   O8        1.0  0.61200  0.68600  0.92600  1.0000
  V   V1        1.0  0.50000  0.00000  0.50000  1.0000
  V   V2        1.0  0.25000  0.50000  0.75000  1.0000
