data_image0
_chemical_formula_structural       O8V2Yb2
_chemical_formula_sum              "O8 V2 Yb2"
_cell_length_a       5.93048
_cell_length_b       5.93048
_cell_length_c       5.93048
_cell_angle_alpha    106.361
_cell_angle_beta     115.889
_cell_angle_gamma    106.361

_space_group_name_H-M_alt    "P 1"
_space_group_IT_number       1

loop_
  _space_group_symop_operation_xyz
  'x, y, z'

loop_
  _atom_site_type_symbol
  _atom_site_label
  _atom_site_symmetry_multiplicity
  _atom_site_fract_x
  _atom_site_fract_y
  _atom_site_fract_z
  _atom_site_occupancy
  O   O1        1.0  0.51700  0.18800  0.32900  1.0000
  O   O2        1.0  0.14000  0.81200  0.32900  1.0000
  O   O3        1.0  0.07870  0.31200  0.39000  1.0000
  O   O4        1.0  0.67100  0.81200  0.48300  1.0000
  O   O5        1.0  0.07870  0.68800  0.76700  1.0000
  O   O6        1.0  0.67100  0.18800  0.86000  1.0000
  O   O7        1.0  0.23300  0.31200  0.92100  1.0000
  O   O8        1.0  0.61000  0.68800  0.92100  1.0000
  V   V1        1.0  0.50000  0.00000  0.50000  1.0000
  V   V2        1.0  0.25000  0.50000  0.75000  1.0000
  Yb  Yb1       1.0  0.00000  0.00000  0.00000  1.0000
  Yb  Yb2       1.0  0.75000  0.50000  0.25000  1.0000
