data_image0
_chemical_formula_structural       H3HgIO6
_chemical_formula_sum              "H3 Hg1 I1 O6"
_cell_length_a       4.95897
_cell_length_b       5.47484
_cell_length_c       5.85377
_cell_angle_alpha    69.5325
_cell_angle_beta     73.6495
_cell_angle_gamma    59.0599

_space_group_name_H-M_alt    "P 1"
_space_group_IT_number       1

loop_
  _space_group_symop_operation_xyz
  'x, y, z'

loop_
  _atom_site_type_symbol
  _atom_site_label
  _atom_site_symmetry_multiplicity
  _atom_site_fract_x
  _atom_site_fract_y
  _atom_site_fract_z
  _atom_site_occupancy
  H   H1        1.0  0.70300  0.88000  0.29800  1.0000
  H   H2        1.0  0.40200  0.18000  0.33000  1.0000
  H   H3        1.0  0.87800  0.30800  0.38900  1.0000
  Hg  Hg1       1.0  0.31400  0.89600  0.01020  1.0000
  I   I1        1.0  0.08060  0.54300  0.68000  1.0000
  O   O1        1.0  0.81300  0.55200  0.06070  1.0000
  O   O2        1.0  0.84400  0.28000  0.24000  1.0000
  O   O3        1.0  0.17000  0.55700  0.34000  1.0000
  O   O4        1.0  0.47500  0.96600  0.35800  1.0000
  O   O5        1.0  0.80500  0.34800  0.67300  1.0000
  O   O6        1.0  0.84700  0.09550  0.86000  1.0000
