data_image0
_chemical_formula_structural       Bi2O8Re2
_chemical_formula_sum              "Bi2 O8 Re2"
_cell_length_a       3.85591
_cell_length_b       5.52394
_cell_length_c       7.74581
_cell_angle_alpha    90
_cell_angle_beta     75.5874
_cell_angle_gamma    90

_space_group_name_H-M_alt    "P 1"
_space_group_IT_number       1

loop_
  _space_group_symop_operation_xyz
  'x, y, z'

loop_
  _atom_site_type_symbol
  _atom_site_label
  _atom_site_symmetry_multiplicity
  _atom_site_fract_x
  _atom_site_fract_y
  _atom_site_fract_z
  _atom_site_occupancy
  Bi  Bi1       1.0  0.31300  0.75000  0.37400  1.0000
  Bi  Bi2       1.0  0.68700  0.25000  0.62600  1.0000
  O   O1        1.0  0.00000  0.00000  0.00000  1.0000
  O   O2        1.0  0.00000  0.50000  0.00000  1.0000
  O   O3        1.0  0.40900  0.25000  0.18200  1.0000
  O   O4        1.0  0.81200  0.01450  0.37500  1.0000
  O   O5        1.0  0.81200  0.48600  0.37500  1.0000
  O   O6        1.0  0.18800  0.51400  0.62500  1.0000
  O   O7        1.0  0.18800  0.98600  0.62500  1.0000
  O   O8        1.0  0.59100  0.75000  0.81800  1.0000
  Re  Re1       1.0  0.91600  0.25000  0.16800  1.0000
  Re  Re2       1.0  0.08400  0.75000  0.83200  1.0000
