data_image0
_chemical_formula_structural       As6Cd4I2
_chemical_formula_sum              "As6 Cd4 I2"
_cell_length_a       6.46855
_cell_length_b       6.46855
_cell_length_c       8.07836
_cell_angle_alpha    97.0705
_cell_angle_beta     97.0705
_cell_angle_gamma    97.3476

_space_group_name_H-M_alt    "P 1"
_space_group_IT_number       1

loop_
  _space_group_symop_operation_xyz
  'x, y, z'

loop_
  _atom_site_type_symbol
  _atom_site_label
  _atom_site_symmetry_multiplicity
  _atom_site_fract_x
  _atom_site_fract_y
  _atom_site_fract_z
  _atom_site_occupancy
  As  As1       1.0  0.45400  0.03440  0.03830  1.0000
  As  As2       1.0  0.41700  0.32100  0.25900  1.0000
  As  As3       1.0  0.07250  0.16700  0.31800  1.0000
  As  As4       1.0  0.03440  0.45400  0.53800  1.0000
  As  As5       1.0  0.32100  0.41700  0.75900  1.0000
  As  As6       1.0  0.16700  0.07250  0.81800  1.0000
  Cd  Cd1       1.0  0.85500  0.14500  0.99800  1.0000
  Cd  Cd2       1.0  0.34600  0.63300  0.08040  1.0000
  Cd  Cd3       1.0  0.14500  0.85500  0.49800  1.0000
  Cd  Cd4       1.0  0.63300  0.34600  0.58000  1.0000
  I   I1        1.0  0.87000  0.61800  0.03440  1.0000
  I   I2        1.0  0.61800  0.87000  0.53400  1.0000
