data_image0
_chemical_formula_structural       Hg2Mo2O8
_chemical_formula_sum              "Hg2 Mo2 O8"
_cell_length_a       5.14469
_cell_length_b       6.0209
_cell_length_c       6.45163
_cell_angle_alpha    117.815
_cell_angle_beta     110.317
_cell_angle_gamma    90

_space_group_name_H-M_alt    "P 1"
_space_group_IT_number       1

loop_
  _space_group_symop_operation_xyz
  'x, y, z'

loop_
  _atom_site_type_symbol
  _atom_site_label
  _atom_site_symmetry_multiplicity
  _atom_site_fract_x
  _atom_site_fract_y
  _atom_site_fract_z
  _atom_site_occupancy
  Hg  Hg1       1.0  0.00000  0.50000  0.50000  1.0000
  Hg  Hg2       1.0  0.50000  0.00000  0.50000  1.0000
  Mo  Mo1       1.0  0.25000  0.19400  0.00000  1.0000
  Mo  Mo2       1.0  0.75000  0.80600  0.00000  1.0000
  O   O1        1.0  0.03530  0.18700  0.19400  1.0000
  O   O2        1.0  0.53500  0.00666  0.19400  1.0000
  O   O3        1.0  0.47600  0.48900  0.23300  1.0000
  O   O4        1.0  0.97600  0.74400  0.23300  1.0000
  O   O5        1.0  0.02390  0.25600  0.76700  1.0000
  O   O6        1.0  0.52400  0.51100  0.76700  1.0000
  O   O7        1.0  0.46500  0.99300  0.80600  1.0000
  O   O8        1.0  0.96500  0.81300  0.80600  1.0000
