data_image0
_chemical_formula_structural       Cl8K2Tl2
_chemical_formula_sum              "Cl8 K2 Tl2"
_cell_length_a       9.17529
_cell_length_b       6.95245
_cell_length_c       6.95245
_cell_angle_alpha    90
_cell_angle_beta     112.264
_cell_angle_gamma    112.264

_space_group_name_H-M_alt    "P 1"
_space_group_IT_number       1

loop_
  _space_group_symop_operation_xyz
  'x, y, z'

loop_
  _atom_site_type_symbol
  _atom_site_label
  _atom_site_symmetry_multiplicity
  _atom_site_fract_x
  _atom_site_fract_y
  _atom_site_fract_z
  _atom_site_occupancy
  Cl  Cl1       1.0  0.92300  0.21200  0.04750  1.0000
  Cl  Cl2       1.0  0.42300  0.37500  0.21200  1.0000
  Cl  Cl3       1.0  0.57700  0.95200  0.29000  1.0000
  Cl  Cl4       1.0  0.92300  0.71000  0.37500  1.0000
  Cl  Cl5       1.0  0.07740  0.29000  0.62500  1.0000
  Cl  Cl6       1.0  0.42300  0.04750  0.71000  1.0000
  Cl  Cl7       1.0  0.57700  0.62500  0.78800  1.0000
  Cl  Cl8       1.0  0.07740  0.78800  0.95200  1.0000
  K   K1        1.0  0.25000  0.62500  0.37500  1.0000
  K   K2        1.0  0.75000  0.37500  0.62500  1.0000
  Tl  Tl1       1.0  0.75000  0.87500  0.12500  1.0000
  Tl  Tl2       1.0  0.25000  0.12500  0.87500  1.0000
