data_image0
_chemical_formula_structural       Cu2F8Sr2
_chemical_formula_sum              "Cu2 F8 Sr2"
_cell_length_a       5.57015
_cell_length_b       5.57015
_cell_length_c       6.57463
_cell_angle_alpha    115.063
_cell_angle_beta     115.063
_cell_angle_gamma    90

_space_group_name_H-M_alt    "P 1"
_space_group_IT_number       1

loop_
  _space_group_symop_operation_xyz
  'x, y, z'

loop_
  _atom_site_type_symbol
  _atom_site_label
  _atom_site_symmetry_multiplicity
  _atom_site_fract_x
  _atom_site_fract_y
  _atom_site_fract_z
  _atom_site_occupancy
  Cu  Cu1       1.0  0.50000  0.00000  0.00000  1.0000
  Cu  Cu2       1.0  0.00000  0.50000  0.00000  1.0000
  F   F1        1.0  0.79900  0.29900  0.24900  1.0000
  F   F2        1.0  0.29900  0.45000  0.24900  1.0000
  F   F3        1.0  0.95000  0.79900  0.24900  1.0000
  F   F4        1.0  0.45000  0.95000  0.24900  1.0000
  F   F5        1.0  0.55000  0.04990  0.75100  1.0000
  F   F6        1.0  0.04990  0.20100  0.75100  1.0000
  F   F7        1.0  0.70100  0.55000  0.75100  1.0000
  F   F8        1.0  0.20100  0.70100  0.75100  1.0000
  Sr  Sr1       1.0  0.25000  0.25000  0.50000  1.0000
  Sr  Sr2       1.0  0.75000  0.75000  0.50000  1.0000
