data_image0
_chemical_formula_structural       Ag6Na2O4
_chemical_formula_sum              "Ag6 Na2 O4"
_cell_length_a       5.99242
_cell_length_b       6.14717
_cell_length_c       6.77693
_cell_angle_alpha    116.971
_cell_angle_beta     116.239
_cell_angle_gamma    90

_space_group_name_H-M_alt    "P 1"
_space_group_IT_number       1

loop_
  _space_group_symop_operation_xyz
  'x, y, z'

loop_
  _atom_site_type_symbol
  _atom_site_label
  _atom_site_symmetry_multiplicity
  _atom_site_fract_x
  _atom_site_fract_y
  _atom_site_fract_z
  _atom_site_occupancy
  Ag  Ag1       1.0  0.00000  0.00000  0.00000  1.0000
  Ag  Ag2       1.0  0.50000  0.00000  0.00000  1.0000
  Ag  Ag3       1.0  0.00000  0.00000  0.50000  1.0000
  Ag  Ag4       1.0  0.50000  0.00000  0.50000  1.0000
  Ag  Ag5       1.0  0.00000  0.50000  0.50000  1.0000
  Ag  Ag6       1.0  0.50000  0.50000  0.50000  1.0000
  Na  Na1       1.0  0.25000  0.50000  0.00000  1.0000
  Na  Na2       1.0  0.75000  0.50000  0.00000  1.0000
  O   O1        1.0  0.11000  0.40100  0.21900  1.0000
  O   O2        1.0  0.61000  0.81800  0.21900  1.0000
  O   O3        1.0  0.39000  0.18200  0.78100  1.0000
  O   O4        1.0  0.89000  0.59900  0.78100  1.0000
