data_image0
_chemical_formula_structural       Cl4Ga4Te4
_chemical_formula_sum              "Cl4 Ga4 Te4"
_cell_length_a       5.91605
_cell_length_b       14.7733
_cell_length_c       4.12003
_cell_angle_alpha    90
_cell_angle_beta     90
_cell_angle_gamma    90

_space_group_name_H-M_alt    "P 1"
_space_group_IT_number       1

loop_
  _space_group_symop_operation_xyz
  'x, y, z'

loop_
  _atom_site_type_symbol
  _atom_site_label
  _atom_site_symmetry_multiplicity
  _atom_site_fract_x
  _atom_site_fract_y
  _atom_site_fract_z
  _atom_site_occupancy
  Cl  Cl1       1.0  0.26300  0.42600  0.00000  1.0000
  Cl  Cl2       1.0  0.73700  0.57400  0.00000  1.0000
  Cl  Cl3       1.0  0.76300  0.07390  0.50000  1.0000
  Cl  Cl4       1.0  0.23700  0.92600  0.50000  1.0000
  Ga  Ga1       1.0  0.02180  0.31200  0.00000  1.0000
  Ga  Ga2       1.0  0.97800  0.68800  0.00000  1.0000
  Ga  Ga3       1.0  0.52200  0.18800  0.50000  1.0000
  Ga  Ga4       1.0  0.47800  0.81200  0.50000  1.0000
  Te  Te1       1.0  0.24500  0.15600  0.00000  1.0000
  Te  Te2       1.0  0.75500  0.84400  0.00000  1.0000
  Te  Te3       1.0  0.74500  0.34400  0.50000  1.0000
  Te  Te4       1.0  0.25500  0.65600  0.50000  1.0000
