data_image0
_chemical_formula_structural       Na6O5Pb
_chemical_formula_sum              "Na6 O5 Pb1"
_cell_length_a       5.52774
_cell_length_b       6.11309
_cell_length_c       6.11309
_cell_angle_alpha    101.795
_cell_angle_beta     63.12
_cell_angle_gamma    116.88

_space_group_name_H-M_alt    "P 1"
_space_group_IT_number       1

loop_
  _space_group_symop_operation_xyz
  'x, y, z'

loop_
  _atom_site_type_symbol
  _atom_site_label
  _atom_site_symmetry_multiplicity
  _atom_site_fract_x
  _atom_site_fract_y
  _atom_site_fract_z
  _atom_site_occupancy
  Na  Na1       1.0  0.60500  0.39700  0.00000  1.0000
  Na  Na2       1.0  0.20800  0.60300  0.00000  1.0000
  Na  Na3       1.0  0.20800  0.00000  0.39700  1.0000
  Na  Na4       1.0  0.30400  0.50000  0.50000  1.0000
  Na  Na5       1.0  0.80400  0.50000  0.50000  1.0000
  Na  Na6       1.0  0.60500  0.00000  0.60300  1.0000
  O   O1        1.0  0.57600  0.00000  0.00000  1.0000
  O   O2        1.0  0.06490  0.27400  0.27400  1.0000
  O   O3        1.0  0.79100  0.72600  0.27400  1.0000
  O   O4        1.0  0.33900  0.27400  0.72600  1.0000
  O   O5        1.0  0.06490  0.72600  0.72600  1.0000
  Pb  Pb1       1.0  0.96100  0.00000  0.00000  1.0000
