data_image0
_chemical_formula_structural       F7K3Zn2
_chemical_formula_sum              "F7 K3 Zn2"
_cell_length_a       4.01948
_cell_length_b       4.01948
_cell_length_c       10.8248
_cell_angle_alpha    100.7
_cell_angle_beta     100.7
_cell_angle_gamma    90

_space_group_name_H-M_alt    "P 1"
_space_group_IT_number       1

loop_
  _space_group_symop_operation_xyz
  'x, y, z'

loop_
  _atom_site_type_symbol
  _atom_site_label
  _atom_site_symmetry_multiplicity
  _atom_site_fract_x
  _atom_site_fract_y
  _atom_site_fract_z
  _atom_site_occupancy
  F   F1        1.0  0.00000  0.00000  0.00000  1.0000
  F   F2        1.0  0.59500  0.09520  0.19000  1.0000
  F   F3        1.0  0.09520  0.59500  0.19000  1.0000
  F   F4        1.0  0.19500  0.19500  0.38900  1.0000
  F   F5        1.0  0.80500  0.80500  0.61100  1.0000
  F   F6        1.0  0.90500  0.40500  0.81000  1.0000
  F   F7        1.0  0.40500  0.90500  0.81000  1.0000
  K   K1        1.0  0.50000  0.50000  0.00000  1.0000
  K   K2        1.0  0.68500  0.68500  0.37100  1.0000
  K   K3        1.0  0.31500  0.31500  0.62900  1.0000
  Zn  Zn1       1.0  0.09760  0.09760  0.19500  1.0000
  Zn  Zn2       1.0  0.90200  0.90200  0.80500  1.0000
