data_image0
_chemical_formula_structural       Cr3KO8
_chemical_formula_sum              "Cr3 K1 O8"
_cell_length_a       5.03054
_cell_length_b       5.03054
_cell_length_c       7.48383
_cell_angle_alpha    94.7394
_cell_angle_beta     94.7394
_cell_angle_gamma    65.7492

_space_group_name_H-M_alt    "P 1"
_space_group_IT_number       1

loop_
  _space_group_symop_operation_xyz
  'x, y, z'

loop_
  _atom_site_type_symbol
  _atom_site_label
  _atom_site_symmetry_multiplicity
  _atom_site_fract_x
  _atom_site_fract_y
  _atom_site_fract_z
  _atom_site_occupancy
  Cr  Cr1       1.0  0.62200  0.62200  0.28900  1.0000
  Cr  Cr2       1.0  0.00000  0.00000  0.50000  1.0000
  Cr  Cr3       1.0  0.37800  0.37800  0.71100  1.0000
  K   K1        1.0  0.00000  0.00000  0.00000  1.0000
  O   O1        1.0  0.68600  0.68600  0.09290  1.0000
  O   O2        1.0  0.76100  0.25700  0.30800  1.0000
  O   O3        1.0  0.25700  0.76100  0.30800  1.0000
  O   O4        1.0  0.76800  0.76800  0.45400  1.0000
  O   O5        1.0  0.23200  0.23200  0.54600  1.0000
  O   O6        1.0  0.74300  0.23900  0.69200  1.0000
  O   O7        1.0  0.23900  0.74300  0.69200  1.0000
  O   O8        1.0  0.31400  0.31400  0.90700  1.0000
