data_image0
_chemical_formula_structural       Nb2Nd2O8
_chemical_formula_sum              "Nb2 Nd2 O8"
_cell_length_a       5.16184
_cell_length_b       5.47099
_cell_length_c       6.70383
_cell_angle_alpha    112.165
_cell_angle_beta     110.632
_cell_angle_gamma    94.5854

_space_group_name_H-M_alt    "P 1"
_space_group_IT_number       1

loop_
  _space_group_symop_operation_xyz
  'x, y, z'

loop_
  _atom_site_type_symbol
  _atom_site_label
  _atom_site_symmetry_multiplicity
  _atom_site_fract_x
  _atom_site_fract_y
  _atom_site_fract_z
  _atom_site_occupancy
  Nb  Nb1       1.0  0.35400  0.10400  0.20700  1.0000
  Nb  Nb2       1.0  0.64600  0.89600  0.79300  1.0000
  Nd  Nd1       1.0  0.87900  0.62900  0.25900  1.0000
  Nd  Nd2       1.0  0.12100  0.37100  0.74100  1.0000
  O   O1        1.0  0.07530  0.27400  0.06370  1.0000
  O   O2        1.0  0.48800  0.78900  0.06370  1.0000
  O   O3        1.0  0.21500  0.05500  0.41600  1.0000
  O   O4        1.0  0.70200  0.36100  0.41600  1.0000
  O   O5        1.0  0.29800  0.63900  0.58400  1.0000
  O   O6        1.0  0.78500  0.94500  0.58400  1.0000
  O   O7        1.0  0.51200  0.21100  0.93600  1.0000
  O   O8        1.0  0.92500  0.72600  0.93600  1.0000
