data_image0
_chemical_formula_structural       Au2F8K2
_chemical_formula_sum              "Au2 F8 K2"
_cell_length_a       5.76967
_cell_length_b       5.76967
_cell_length_c       6.90914
_cell_angle_alpha    114.679
_cell_angle_beta     114.679
_cell_angle_gamma    90

_space_group_name_H-M_alt    "P 1"
_space_group_IT_number       1

loop_
  _space_group_symop_operation_xyz
  'x, y, z'

loop_
  _atom_site_type_symbol
  _atom_site_label
  _atom_site_symmetry_multiplicity
  _atom_site_fract_x
  _atom_site_fract_y
  _atom_site_fract_z
  _atom_site_occupancy
  Au  Au1       1.0  0.50000  0.00000  0.00000  1.0000
  Au  Au2       1.0  0.00000  0.50000  0.00000  1.0000
  F   F1        1.0  0.29400  0.45100  0.24400  1.0000
  F   F2        1.0  0.79400  0.29400  0.24400  1.0000
  F   F3        1.0  0.45100  0.95100  0.24400  1.0000
  F   F4        1.0  0.95100  0.79400  0.24400  1.0000
  F   F5        1.0  0.04950  0.20600  0.75600  1.0000
  F   F6        1.0  0.54900  0.04950  0.75600  1.0000
  F   F7        1.0  0.20600  0.70600  0.75600  1.0000
  F   F8        1.0  0.70600  0.54900  0.75600  1.0000
  K   K1        1.0  0.25000  0.25000  0.50000  1.0000
  K   K2        1.0  0.75000  0.75000  0.50000  1.0000
