data_image0
_chemical_formula_structural       Ba2Cu2F8
_chemical_formula_sum              "Ba2 Cu2 F8"
_cell_length_a       4.32555
_cell_length_b       5.51568
_cell_length_c       7.12678
_cell_angle_alpha    90
_cell_angle_beta     72.3338
_cell_angle_gamma    90

_space_group_name_H-M_alt    "P 1"
_space_group_IT_number       1

loop_
  _space_group_symop_operation_xyz
  'x, y, z'

loop_
  _atom_site_type_symbol
  _atom_site_label
  _atom_site_symmetry_multiplicity
  _atom_site_fract_x
  _atom_site_fract_y
  _atom_site_fract_z
  _atom_site_occupancy
  Ba  Ba1       1.0  0.86700  0.51600  0.26600  1.0000
  Ba  Ba2       1.0  0.13300  0.01630  0.73400  1.0000
  Cu  Cu1       1.0  0.40100  0.02680  0.19800  1.0000
  Cu  Cu2       1.0  0.59900  0.52700  0.80200  1.0000
  F   F1        1.0  0.49300  0.29400  0.01420  1.0000
  F   F2        1.0  0.92100  0.02380  0.15800  1.0000
  F   F3        1.0  0.31100  0.76000  0.37800  1.0000
  F   F4        1.0  0.30100  0.27200  0.39700  1.0000
  F   F5        1.0  0.69900  0.77200  0.60300  1.0000
  F   F6        1.0  0.68900  0.26000  0.62200  1.0000
  F   F7        1.0  0.07880  0.52400  0.84200  1.0000
  F   F8        1.0  0.50700  0.79400  0.98600  1.0000
