data_image0
_chemical_formula_structural       Cl10Pa2
_chemical_formula_sum              "Cl10 Pa2"
_cell_length_a       6.99851
_cell_length_b       6.99851
_cell_length_c       8.43995
_cell_angle_alpha    98.9893
_cell_angle_beta     98.9893
_cell_angle_gamma    109.724

_space_group_name_H-M_alt    "P 1"
_space_group_IT_number       1

loop_
  _space_group_symop_operation_xyz
  'x, y, z'

loop_
  _atom_site_type_symbol
  _atom_site_label
  _atom_site_symmetry_multiplicity
  _atom_site_fract_x
  _atom_site_fract_y
  _atom_site_fract_z
  _atom_site_occupancy
  Cl  Cl1       1.0  0.12400  0.86400  0.06330  1.0000
  Cl  Cl2       1.0  0.61600  0.74400  0.16300  1.0000
  Cl  Cl3       1.0  0.71100  0.28900  0.25000  1.0000
  Cl  Cl4       1.0  0.25600  0.38400  0.33700  1.0000
  Cl  Cl5       1.0  0.13600  0.87600  0.43700  1.0000
  Cl  Cl6       1.0  0.86400  0.12400  0.56300  1.0000
  Cl  Cl7       1.0  0.74400  0.61600  0.66300  1.0000
  Cl  Cl8       1.0  0.28900  0.71100  0.75000  1.0000
  Cl  Cl9       1.0  0.38400  0.25600  0.83700  1.0000
  Cl  Cl10      1.0  0.87600  0.13600  0.93700  1.0000
  Pa  Pa1       1.0  0.92900  0.07130  0.25000  1.0000
  Pa  Pa2       1.0  0.07130  0.92900  0.75000  1.0000
