data_image0
_chemical_formula_structural       O8Pr2V2
_chemical_formula_sum              "O8 Pr2 V2"
_cell_length_a       6.12331
_cell_length_b       6.12331
_cell_length_c       6.12331
_cell_angle_alpha    106.201
_cell_angle_beta     116.23
_cell_angle_gamma    106.201

_space_group_name_H-M_alt    "P 1"
_space_group_IT_number       1

loop_
  _space_group_symop_operation_xyz
  'x, y, z'

loop_
  _atom_site_type_symbol
  _atom_site_label
  _atom_site_symmetry_multiplicity
  _atom_site_fract_x
  _atom_site_fract_y
  _atom_site_fract_z
  _atom_site_occupancy
  O   O1        1.0  0.51000  0.18100  0.33000  1.0000
  O   O2        1.0  0.14900  0.81900  0.33000  1.0000
  O   O3        1.0  0.07960  0.31900  0.39900  1.0000
  O   O4        1.0  0.67000  0.81900  0.49000  1.0000
  O   O5        1.0  0.07960  0.68100  0.76000  1.0000
  O   O6        1.0  0.67000  0.18100  0.85100  1.0000
  O   O7        1.0  0.24000  0.31900  0.92000  1.0000
  O   O8        1.0  0.60100  0.68100  0.92000  1.0000
  Pr  Pr1       1.0  0.00000  0.00000  0.00000  1.0000
  Pr  Pr2       1.0  0.75000  0.50000  0.25000  1.0000
  V   V1        1.0  0.50000  1.00000  0.50000  1.0000
  V   V2        1.0  0.25000  0.50000  0.75000  1.0000
