data_image0
_chemical_formula_structural       Ce2Nb2O8
_chemical_formula_sum              "Ce2 Nb2 O8"
_cell_length_a       5.19317
_cell_length_b       5.55485
_cell_length_c       6.79245
_cell_angle_alpha    112.262
_cell_angle_beta     110.495
_cell_angle_gamma    94.51

_space_group_name_H-M_alt    "P 1"
_space_group_IT_number       1

loop_
  _space_group_symop_operation_xyz
  'x, y, z'

loop_
  _atom_site_type_symbol
  _atom_site_label
  _atom_site_symmetry_multiplicity
  _atom_site_fract_x
  _atom_site_fract_y
  _atom_site_fract_z
  _atom_site_occupancy
  Ce  Ce1       1.0  0.12000  0.37000  0.24100  1.0000
  Ce  Ce2       1.0  0.88000  0.63000  0.75900  1.0000
  Nb  Nb1       1.0  0.64700  0.89700  0.29400  1.0000
  Nb  Nb2       1.0  0.35300  0.10300  0.70600  1.0000
  O   O1        1.0  0.30200  0.64300  0.08670  1.0000
  O   O2        1.0  0.78400  0.94400  0.08670  1.0000
  O   O3        1.0  0.51400  0.20700  0.43500  1.0000
  O   O4        1.0  0.92200  0.72800  0.43500  1.0000
  O   O5        1.0  0.07810  0.27200  0.56500  1.0000
  O   O6        1.0  0.48600  0.79300  0.56500  1.0000
  O   O7        1.0  0.21600  0.05620  0.91300  1.0000
  O   O8        1.0  0.69800  0.35700  0.91300  1.0000
