data_image0
_chemical_formula_structural       Cl8Ga4H4
_chemical_formula_sum              "Cl8 Ga4 H4"
_cell_length_a       6.22513
_cell_length_b       6.73671
_cell_length_c       9.88711
_cell_angle_alpha    91.4864
_cell_angle_beta     93.2184
_cell_angle_gamma    62.4818

_space_group_name_H-M_alt    "P 1"
_space_group_IT_number       1

loop_
  _space_group_symop_operation_xyz
  'x, y, z'

loop_
  _atom_site_type_symbol
  _atom_site_label
  _atom_site_symmetry_multiplicity
  _atom_site_fract_x
  _atom_site_fract_y
  _atom_site_fract_z
  _atom_site_occupancy
  Cl  Cl1       1.0  0.73500  0.22300  0.08140  1.0000
  Cl  Cl2       1.0  0.92600  0.63800  0.14600  1.0000
  Cl  Cl3       1.0  0.43600  0.63800  0.35400  1.0000
  Cl  Cl4       1.0  0.04230  0.22300  0.41900  1.0000
  Cl  Cl5       1.0  0.95800  0.77700  0.58100  1.0000
  Cl  Cl6       1.0  0.56400  0.36200  0.64600  1.0000
  Cl  Cl7       1.0  0.07430  0.36200  0.85400  1.0000
  Cl  Cl8       1.0  0.26500  0.77700  0.91900  1.0000
  Ga  Ga1       1.0  0.06220  0.26200  0.07800  1.0000
  Ga  Ga2       1.0  0.67500  0.26200  0.42200  1.0000
  Ga  Ga3       1.0  0.32500  0.73800  0.57800  1.0000
  Ga  Ga4       1.0  0.93800  0.73800  0.92200  1.0000
  H   H1        1.0  0.31600  0.11100  0.13900  1.0000
  H   H2        1.0  0.57300  0.11100  0.36100  1.0000
  H   H3        1.0  0.42700  0.88900  0.63900  1.0000
  H   H4        1.0  0.68400  0.88900  0.86100  1.0000
