data_image0
_chemical_formula_structural       Eu2O8V2
_chemical_formula_sum              "Eu2 O8 V2"
_cell_length_a       6.08139
_cell_length_b       6.08139
_cell_length_c       6.08139
_cell_angle_alpha    106.316
_cell_angle_beta     115.984
_cell_angle_gamma    106.316

_space_group_name_H-M_alt    "P 1"
_space_group_IT_number       1

loop_
  _space_group_symop_operation_xyz
  'x, y, z'

loop_
  _atom_site_type_symbol
  _atom_site_label
  _atom_site_symmetry_multiplicity
  _atom_site_fract_x
  _atom_site_fract_y
  _atom_site_fract_z
  _atom_site_occupancy
  Eu  Eu1       1.0  0.00000  0.00000  0.00000  1.0000
  Eu  Eu2       1.0  0.25000  0.50000  0.75000  1.0000
  O   O1        1.0  0.39900  0.31600  0.08230  1.0000
  O   O2        1.0  0.76600  0.68400  0.08230  1.0000
  O   O3        1.0  0.33200  0.81600  0.14900  1.0000
  O   O4        1.0  0.91800  0.31600  0.23400  1.0000
  O   O5        1.0  0.33200  0.18400  0.51600  1.0000
  O   O6        1.0  0.91800  0.68400  0.60100  1.0000
  O   O7        1.0  0.48400  0.81600  0.66800  1.0000
  O   O8        1.0  0.85100  0.18400  0.66800  1.0000
  V   V1        1.0  0.75000  0.50000  0.25000  1.0000
  V   V2        1.0  0.50000  0.00000  0.50000  1.0000
