data_image0
_chemical_formula_structural       Ni2O8S2
_chemical_formula_sum              "Ni2 O8 S2"
_cell_length_a       4.66235
_cell_length_b       4.66235
_cell_length_c       6.24138
_cell_angle_alpha    90
_cell_angle_beta     90
_cell_angle_gamma    112.901

_space_group_name_H-M_alt    "P 1"
_space_group_IT_number       1

loop_
  _space_group_symop_operation_xyz
  'x, y, z'

loop_
  _atom_site_type_symbol
  _atom_site_label
  _atom_site_symmetry_multiplicity
  _atom_site_fract_x
  _atom_site_fract_y
  _atom_site_fract_z
  _atom_site_occupancy
  Ni  Ni1       1.0  0.00000  0.00000  0.00000  1.0000
  Ni  Ni2       1.0  0.00000  0.00000  0.50000  1.0000
  O   O1        1.0  0.25400  0.74600  0.05250  1.0000
  O   O2        1.0  0.23400  0.29400  0.25000  1.0000
  O   O3        1.0  0.70600  0.76600  0.25000  1.0000
  O   O4        1.0  0.25400  0.74600  0.44800  1.0000
  O   O5        1.0  0.74600  0.25400  0.55200  1.0000
  O   O6        1.0  0.29400  0.23400  0.75000  1.0000
  O   O7        1.0  0.76600  0.70600  0.75000  1.0000
  O   O8        1.0  0.74600  0.25400  0.94800  1.0000
  S   S1        1.0  0.35500  0.64500  0.25000  1.0000
  S   S2        1.0  0.64500  0.35500  0.75000  1.0000
