data_image0
_chemical_formula_structural       Ag2F8Na2
_chemical_formula_sum              "Ag2 F8 Na2"
_cell_length_a       5.34495
_cell_length_b       5.34495
_cell_length_c       6.37381
_cell_angle_alpha    114.79
_cell_angle_beta     114.79
_cell_angle_gamma    90

_space_group_name_H-M_alt    "P 1"
_space_group_IT_number       1

loop_
  _space_group_symop_operation_xyz
  'x, y, z'

loop_
  _atom_site_type_symbol
  _atom_site_label
  _atom_site_symmetry_multiplicity
  _atom_site_fract_x
  _atom_site_fract_y
  _atom_site_fract_z
  _atom_site_occupancy
  Ag  Ag1       1.0  0.50000  0.00000  0.00000  1.0000
  Ag  Ag2       1.0  0.00000  0.50000  0.00000  1.0000
  F   F1        1.0  0.81800  0.94300  0.26100  1.0000
  F   F2        1.0  0.94300  0.44300  0.26100  1.0000
  F   F3        1.0  0.31800  0.81800  0.26100  1.0000
  F   F4        1.0  0.44300  0.31800  0.26100  1.0000
  F   F5        1.0  0.55700  0.68200  0.73900  1.0000
  F   F6        1.0  0.68200  0.18200  0.73900  1.0000
  F   F7        1.0  0.05670  0.55700  0.73900  1.0000
  F   F8        1.0  0.18200  0.05670  0.73900  1.0000
  Na  Na1       1.0  0.75000  0.75000  0.50000  1.0000
  Na  Na2       1.0  0.25000  0.25000  0.50000  1.0000
