data_image0
_chemical_formula_structural       Mg2O8S2
_chemical_formula_sum              "Mg2 O8 S2"
_cell_length_a       4.67078
_cell_length_b       4.67078
_cell_length_c       6.39547
_cell_angle_alpha    90
_cell_angle_beta     90
_cell_angle_gamma    112.882

_space_group_name_H-M_alt    "P 1"
_space_group_IT_number       1

loop_
  _space_group_symop_operation_xyz
  'x, y, z'

loop_
  _atom_site_type_symbol
  _atom_site_label
  _atom_site_symmetry_multiplicity
  _atom_site_fract_x
  _atom_site_fract_y
  _atom_site_fract_z
  _atom_site_occupancy
  Mg  Mg1       1.0  0.00000  0.00000  0.00000  1.0000
  Mg  Mg2       1.0  0.00000  0.00000  0.50000  1.0000
  O   O1        1.0  0.25300  0.74700  0.05880  1.0000
  O   O2        1.0  0.23200  0.29500  0.25000  1.0000
  O   O3        1.0  0.70500  0.76800  0.25000  1.0000
  O   O4        1.0  0.25300  0.74700  0.44100  1.0000
  O   O5        1.0  0.74700  0.25300  0.55900  1.0000
  O   O6        1.0  0.29500  0.23200  0.75000  1.0000
  O   O7        1.0  0.76800  0.70500  0.75000  1.0000
  O   O8        1.0  0.74700  0.25300  0.94100  1.0000
  S   S1        1.0  0.35600  0.64400  0.25000  1.0000
  S   S2        1.0  0.64400  0.35600  0.75000  1.0000
