data_image0
_chemical_formula_structural       As2O8Tb2
_chemical_formula_sum              "As2 O8 Tb2"
_cell_length_a       5.90946
_cell_length_b       5.90946
_cell_length_c       5.93321
_cell_angle_alpha    106.674
_cell_angle_beta     106.674
_cell_angle_gamma    115.078

_space_group_name_H-M_alt    "P 1"
_space_group_IT_number       1

loop_
  _space_group_symop_operation_xyz
  'x, y, z'

loop_
  _atom_site_type_symbol
  _atom_site_label
  _atom_site_symmetry_multiplicity
  _atom_site_fract_x
  _atom_site_fract_y
  _atom_site_fract_z
  _atom_site_occupancy
  As  As1       1.0  0.50000  0.50000  0.00000  1.0000
  As  As2       1.0  0.25000  0.75000  0.50000  1.0000
  O   O1        1.0  0.50700  0.32400  0.18300  1.0000
  O   O2        1.0  0.67600  0.85900  0.18300  1.0000
  O   O3        1.0  0.07380  0.39100  0.31700  1.0000
  O   O4        1.0  0.24300  0.92600  0.31700  1.0000
  O   O5        1.0  0.07430  0.75700  0.68300  1.0000
  O   O6        1.0  0.60900  0.92600  0.68300  1.0000
  O   O7        1.0  0.14100  0.32400  0.81700  1.0000
  O   O8        1.0  0.67600  0.49300  0.81700  1.0000
  Tb  Tb1       1.0  0.00000  0.00000  0.00000  1.0000
  Tb  Tb2       1.0  0.75000  0.25000  0.50000  1.0000
