data_image0
_chemical_formula_structural       Hf2Te10
_chemical_formula_sum              "Hf2 Te10"
_cell_length_a       4.0235
_cell_length_b       7.84612
_cell_length_c       13.8299
_cell_angle_alpha    90
_cell_angle_beta     90
_cell_angle_gamma    75.1434

_space_group_name_H-M_alt    "P 1"
_space_group_IT_number       1

loop_
  _space_group_symop_operation_xyz
  'x, y, z'

loop_
  _atom_site_type_symbol
  _atom_site_label
  _atom_site_symmetry_multiplicity
  _atom_site_fract_x
  _atom_site_fract_y
  _atom_site_fract_z
  _atom_site_occupancy
  Hf  Hf1       1.0  0.68500  0.62900  0.25000  1.0000
  Hf  Hf2       1.0  0.31500  0.37100  0.75000  1.0000
  Te  Te1       1.0  0.78800  0.42400  0.06630  1.0000
  Te  Te2       1.0  0.07540  0.84900  0.14900  1.0000
  Te  Te3       1.0  0.33200  0.33700  0.25000  1.0000
  Te  Te4       1.0  0.07540  0.84900  0.35100  1.0000
  Te  Te5       1.0  0.78800  0.42400  0.43400  1.0000
  Te  Te6       1.0  0.21200  0.57600  0.56600  1.0000
  Te  Te7       1.0  0.92500  0.15100  0.64900  1.0000
  Te  Te8       1.0  0.66800  0.66300  0.75000  1.0000
  Te  Te9       1.0  0.92500  0.15100  0.85100  1.0000
  Te  Te10      1.0  0.21200  0.57600  0.93400  1.0000
