data_image0
_chemical_formula_structural       Cr2Ni2O8
_chemical_formula_sum              "Cr2 Ni2 O8"
_cell_length_a       4.91172
_cell_length_b       4.91172
_cell_length_c       6.09875
_cell_angle_alpha    90
_cell_angle_beta     90
_cell_angle_gamma    112.402

_space_group_name_H-M_alt    "P 1"
_space_group_IT_number       1

loop_
  _space_group_symop_operation_xyz
  'x, y, z'

loop_
  _atom_site_type_symbol
  _atom_site_label
  _atom_site_symmetry_multiplicity
  _atom_site_fract_x
  _atom_site_fract_y
  _atom_site_fract_z
  _atom_site_occupancy
  Cr  Cr1       1.0  0.36000  0.64000  0.25000  1.0000
  Cr  Cr2       1.0  0.64000  0.36000  0.75000  1.0000
  Ni  Ni1       1.0  0.00000  0.00000  0.00000  1.0000
  Ni  Ni2       1.0  0.00000  0.00000  0.50000  1.0000
  O   O1        1.0  0.24600  0.75400  0.03150  1.0000
  O   O2        1.0  0.22300  0.26600  0.25000  1.0000
  O   O3        1.0  0.73400  0.77700  0.25000  1.0000
  O   O4        1.0  0.24600  0.75400  0.46900  1.0000
  O   O5        1.0  0.75400  0.24600  0.53100  1.0000
  O   O6        1.0  0.26600  0.22300  0.75000  1.0000
  O   O7        1.0  0.77700  0.73400  0.75000  1.0000
  O   O8        1.0  0.75400  0.24600  0.96900  1.0000
