data_image0
_chemical_formula_structural       Au2F8Rb2
_chemical_formula_sum              "Au2 F8 Rb2"
_cell_length_a       5.91701
_cell_length_b       5.91701
_cell_length_c       7.19049
_cell_angle_alpha    114.296
_cell_angle_beta     114.296
_cell_angle_gamma    90

_space_group_name_H-M_alt    "P 1"
_space_group_IT_number       1

loop_
  _space_group_symop_operation_xyz
  'x, y, z'

loop_
  _atom_site_type_symbol
  _atom_site_label
  _atom_site_symmetry_multiplicity
  _atom_site_fract_x
  _atom_site_fract_y
  _atom_site_fract_z
  _atom_site_occupancy
  Au  Au1       1.0  0.50000  1.00000  0.00000  1.0000
  Au  Au2       1.0  1.00000  0.50000  0.00000  1.0000
  F   F1        1.0  0.78400  0.94900  0.23300  1.0000
  F   F2        1.0  0.94900  0.44900  0.23300  1.0000
  F   F3        1.0  0.28400  0.78400  0.23300  1.0000
  F   F4        1.0  0.44900  0.28400  0.23300  1.0000
  F   F5        1.0  0.55100  0.71600  0.76700  1.0000
  F   F6        1.0  0.71600  0.21600  0.76700  1.0000
  F   F7        1.0  0.05130  0.55100  0.76700  1.0000
  F   F8        1.0  0.21600  0.05130  0.76700  1.0000
  Rb  Rb1       1.0  0.75000  0.75000  0.50000  1.0000
  Rb  Rb2       1.0  0.25000  0.25000  0.50000  1.0000
