data_image0
_chemical_formula_structural       Nd2O8V2
_chemical_formula_sum              "Nd2 O8 V2"
_cell_length_a       6.09744
_cell_length_b       6.09744
_cell_length_c       6.09744
_cell_angle_alpha    106.185
_cell_angle_beta     116.265
_cell_angle_gamma    106.185

_space_group_name_H-M_alt    "P 1"
_space_group_IT_number       1

loop_
  _space_group_symop_operation_xyz
  'x, y, z'

loop_
  _atom_site_type_symbol
  _atom_site_label
  _atom_site_symmetry_multiplicity
  _atom_site_fract_x
  _atom_site_fract_y
  _atom_site_fract_z
  _atom_site_occupancy
  Nd  Nd1       1.0  0.00000  0.00000  0.00000  1.0000
  Nd  Nd2       1.0  0.25000  0.50000  0.75000  1.0000
  O   O1        1.0  0.39700  0.31800  0.07860  1.0000
  O   O2        1.0  0.76000  0.68200  0.07860  1.0000
  O   O3        1.0  0.32900  0.81800  0.14700  1.0000
  O   O4        1.0  0.92100  0.31800  0.24000  1.0000
  O   O5        1.0  0.32900  0.18200  0.51000  1.0000
  O   O6        1.0  0.92100  0.68200  0.60300  1.0000
  O   O7        1.0  0.85300  0.18200  0.67100  1.0000
  O   O8        1.0  0.49000  0.81800  0.67100  1.0000
  V   V1        1.0  0.75000  0.50000  0.25000  1.0000
  V   V2        1.0  0.50000  0.00000  0.50000  1.0000
