data_image0
_chemical_formula_structural       Ga2Nb2O8
_chemical_formula_sum              "Ga2 Nb2 O8"
_cell_length_a       3.80602
_cell_length_b       6.56929
_cell_length_c       6.64422
_cell_angle_alpha    107.207
_cell_angle_beta     90
_cell_angle_gamma    106.839

_space_group_name_H-M_alt    "P 1"
_space_group_IT_number       1

loop_
  _space_group_symop_operation_xyz
  'x, y, z'

loop_
  _atom_site_type_symbol
  _atom_site_label
  _atom_site_symmetry_multiplicity
  _atom_site_fract_x
  _atom_site_fract_y
  _atom_site_fract_z
  _atom_site_occupancy
  Ga  Ga1       1.0  0.80100  0.60500  0.18300  1.0000
  Ga  Ga2       1.0  0.19600  0.39500  0.81700  1.0000
  Nb  Nb1       1.0  0.10000  0.20600  0.23300  1.0000
  Nb  Nb2       1.0  0.89400  0.79400  0.76700  1.0000
  O   O1        1.0  0.94200  0.89000  0.13400  1.0000
  O   O2        1.0  0.25900  0.51900  0.14700  1.0000
  O   O3        1.0  0.63700  0.27700  0.20100  1.0000
  O   O4        1.0  0.86200  0.72600  0.48100  1.0000
  O   O5        1.0  0.13600  0.27400  0.51900  1.0000
  O   O6        1.0  0.36000  0.72300  0.79900  1.0000
  O   O7        1.0  0.73900  0.48100  0.85300  1.0000
  O   O8        1.0  0.05200  0.11000  0.86600  1.0000
