data_image0
_chemical_formula_structural       Ce4O16V4
_chemical_formula_sum              "Ce4 O16 V4"
_cell_length_a       6.82486
_cell_length_b       7.07217
_cell_length_c       6.59378
_cell_angle_alpha    90.0001
_cell_angle_beta     103.493
_cell_angle_gamma    90

_space_group_name_H-M_alt    "P 1"
_space_group_IT_number       1

loop_
  _space_group_symop_operation_xyz
  'x, y, z'

loop_
  _atom_site_type_symbol
  _atom_site_label
  _atom_site_symmetry_multiplicity
  _atom_site_fract_x
  _atom_site_fract_y
  _atom_site_fract_z
  _atom_site_occupancy
  Ce  Ce1       1.0  0.22700  0.16400  0.38200  1.0000
  Ce  Ce2       1.0  0.27300  0.66400  0.11800  1.0000
  Ce  Ce3       1.0  0.77300  0.83600  0.61800  1.0000
  Ce  Ce4       1.0  0.72700  0.33600  0.88200  1.0000
  O   O1        1.0  0.00605  0.11300  0.67600  1.0000
  O   O2        1.0  0.49400  0.61300  0.82400  1.0000
  O   O3        1.0  0.99400  0.88700  0.32400  1.0000
  O   O4        1.0  0.50600  0.38700  0.17600  1.0000
  O   O5        1.0  0.38100  0.24200  0.74600  1.0000
  O   O6        1.0  0.11900  0.74200  0.75400  1.0000
  O   O7        1.0  0.61900  0.75800  0.25400  1.0000
  O   O8        1.0  0.88100  0.25800  0.24600  1.0000
  O   O9        1.0  0.11600  0.35200  0.00548  1.0000
  O   O10       1.0  0.38400  0.85200  0.49500  1.0000
  O   O11       1.0  0.88400  0.64800  0.99500  1.0000
  O   O12       1.0  0.61600  0.14800  0.50500  1.0000
  O   O13       1.0  0.28600  0.00449  0.07150  1.0000
  O   O14       1.0  0.21400  0.50400  0.42900  1.0000
  O   O15       1.0  0.71400  0.99600  0.92900  1.0000
  O   O16       1.0  0.78600  0.49600  0.57100  1.0000
  V   V1        1.0  0.20600  0.17200  0.87700  1.0000
  V   V2        1.0  0.29400  0.67200  0.62300  1.0000
  V   V3        1.0  0.79400  0.82800  0.12300  1.0000
  V   V4        1.0  0.70600  0.32800  0.37700  1.0000
