data_image0
_chemical_formula_structural       Cl8Pb4
_chemical_formula_sum              "Cl8 Pb4"
_cell_length_a       7.70204
_cell_length_b       9.20045
_cell_length_c       4.56679
_cell_angle_alpha    90
_cell_angle_beta     90
_cell_angle_gamma    90

_space_group_name_H-M_alt    "P 1"
_space_group_IT_number       1

loop_
  _space_group_symop_operation_xyz
  'x, y, z'

loop_
  _atom_site_type_symbol
  _atom_site_label
  _atom_site_symmetry_multiplicity
  _atom_site_fract_x
  _atom_site_fract_y
  _atom_site_fract_z
  _atom_site_occupancy
  Cl  Cl1       1.0  0.85800  0.07770  0.25000  1.0000
  Cl  Cl2       1.0  0.35800  0.42200  0.25000  1.0000
  Cl  Cl3       1.0  0.98400  0.65800  0.25000  1.0000
  Cl  Cl4       1.0  0.48400  0.84200  0.25000  1.0000
  Cl  Cl5       1.0  0.51600  0.15800  0.75000  1.0000
  Cl  Cl6       1.0  0.01570  0.34200  0.75000  1.0000
  Cl  Cl7       1.0  0.64200  0.57800  0.75000  1.0000
  Cl  Cl8       1.0  0.14200  0.92200  0.75000  1.0000
  Pb  Pb1       1.0  0.26500  0.09170  0.25000  1.0000
  Pb  Pb2       1.0  0.76500  0.40800  0.25000  1.0000
  Pb  Pb3       1.0  0.23500  0.59200  0.75000  1.0000
  Pb  Pb4       1.0  0.73500  0.90800  0.75000  1.0000
