data_image0
_chemical_formula_structural       Ag2Na6O4
_chemical_formula_sum              "Ag2 Na6 O4"
_cell_length_a       5.45502
_cell_length_b       5.8836
_cell_length_c       6.76405
_cell_angle_alpha    115.78
_cell_angle_beta     113.781
_cell_angle_gamma    90

_space_group_name_H-M_alt    "P 1"
_space_group_IT_number       1

loop_
  _space_group_symop_operation_xyz
  'x, y, z'

loop_
  _atom_site_type_symbol
  _atom_site_label
  _atom_site_symmetry_multiplicity
  _atom_site_fract_x
  _atom_site_fract_y
  _atom_site_fract_z
  _atom_site_occupancy
  Ag  Ag1       1.0  0.00000  0.00000  0.00000  1.0000
  Ag  Ag2       1.0  0.00000  0.50000  0.00000  1.0000
  Na  Na1       1.0  0.50000  0.25000  0.00000  1.0000
  Na  Na2       1.0  0.50000  0.75000  0.00000  1.0000
  Na  Na3       1.0  0.24000  0.49000  0.48000  1.0000
  Na  Na4       1.0  0.24000  0.99000  0.48000  1.0000
  Na  Na5       1.0  0.76000  0.01010  0.52000  1.0000
  Na  Na6       1.0  0.76000  0.51000  0.52000  1.0000
  O   O1        1.0  0.86200  0.13700  0.27300  1.0000
  O   O2        1.0  0.41200  0.63700  0.27300  1.0000
  O   O3        1.0  0.58800  0.36300  0.72700  1.0000
  O   O4        1.0  0.13800  0.86300  0.72700  1.0000
