data_image0
_chemical_formula_structural       Er2O8P2
_chemical_formula_sum              "Er2 O8 P2"
_cell_length_a       5.67767
_cell_length_b       5.67767
_cell_length_c       5.67767
_cell_angle_alpha    106.08
_cell_angle_beta     116.49
_cell_angle_gamma    106.08

_space_group_name_H-M_alt    "P 1"
_space_group_IT_number       1

loop_
  _space_group_symop_operation_xyz
  'x, y, z'

loop_
  _atom_site_type_symbol
  _atom_site_label
  _atom_site_symmetry_multiplicity
  _atom_site_fract_x
  _atom_site_fract_y
  _atom_site_fract_z
  _atom_site_occupancy
  Er  Er1       1.0  0.00000  0.00000  0.00000  1.0000
  Er  Er2       1.0  0.25000  0.50000  0.75000  1.0000
  O   O1        1.0  0.41100  0.32300  0.08790  1.0000
  O   O2        1.0  0.76500  0.67700  0.08790  1.0000
  O   O3        1.0  0.33800  0.82300  0.16100  1.0000
  O   O4        1.0  0.91200  0.32300  0.23500  1.0000
  O   O5        1.0  0.33800  0.17700  0.51500  1.0000
  O   O6        1.0  0.91200  0.67700  0.58900  1.0000
  O   O7        1.0  0.83900  0.17700  0.66200  1.0000
  O   O8        1.0  0.48500  0.82300  0.66200  1.0000
  P   P1        1.0  0.75000  0.50000  0.25000  1.0000
  P   P2        1.0  0.50000  0.00000  0.50000  1.0000
