data_image0
_chemical_formula_structural       H4O6V2
_chemical_formula_sum              "H4 O6 V2"
_cell_length_a       3.79219
_cell_length_b       5.61786
_cell_length_c       5.58237
_cell_angle_alpha    100.919
_cell_angle_beta     109.856
_cell_angle_gamma    109.725

_space_group_name_H-M_alt    "P 1"
_space_group_IT_number       1

loop_
  _space_group_symop_operation_xyz
  'x, y, z'

loop_
  _atom_site_type_symbol
  _atom_site_label
  _atom_site_symmetry_multiplicity
  _atom_site_fract_x
  _atom_site_fract_y
  _atom_site_fract_z
  _atom_site_occupancy
  H   H1        1.0  0.69100  0.76000  0.22000  1.0000
  H   H2        1.0  0.21000  0.74000  0.28000  1.0000
  H   H3        1.0  0.79000  0.26000  0.72000  1.0000
  H   H4        1.0  0.30900  0.24000  0.78000  1.0000
  O   O1        1.0  0.49800  0.85000  0.15500  1.0000
  O   O2        1.0  0.26100  0.25000  0.25000  1.0000
  O   O3        1.0  0.99300  0.65000  0.34500  1.0000
  O   O4        1.0  0.00659  0.35000  0.65500  1.0000
  O   O5        1.0  0.73900  0.75000  0.75000  1.0000
  O   O6        1.0  0.50200  0.15000  0.84500  1.0000
  V   V1        1.0  0.81600  0.25000  0.25000  1.0000
  V   V2        1.0  0.18400  0.75000  0.75000  1.0000
