data_image0
_chemical_formula_structural       O8P2Sc2
_chemical_formula_sum              "O8 P2 Sc2"
_cell_length_a       5.47305
_cell_length_b       5.47305
_cell_length_c       5.47305
_cell_angle_alpha    106.294
_cell_angle_beta     116.031
_cell_angle_gamma    106.294

_space_group_name_H-M_alt    "P 1"
_space_group_IT_number       1

loop_
  _space_group_symop_operation_xyz
  'x, y, z'

loop_
  _atom_site_type_symbol
  _atom_site_label
  _atom_site_symmetry_multiplicity
  _atom_site_fract_x
  _atom_site_fract_y
  _atom_site_fract_z
  _atom_site_occupancy
  O   O1        1.0  0.39900  0.31900  0.08070  1.0000
  O   O2        1.0  0.76200  0.68100  0.08070  1.0000
  O   O3        1.0  0.33100  0.81900  0.14900  1.0000
  O   O4        1.0  0.91900  0.31900  0.23800  1.0000
  O   O5        1.0  0.33100  0.18100  0.51200  1.0000
  O   O6        1.0  0.91900  0.68100  0.60100  1.0000
  O   O7        1.0  0.48800  0.81900  0.66900  1.0000
  O   O8        1.0  0.85100  0.18100  0.66900  1.0000
  P   P1        1.0  0.75000  0.50000  0.25000  1.0000
  P   P2        1.0  0.50000  0.00000  0.50000  1.0000
  Sc  Sc1       1.0  0.00000  0.00000  0.00000  1.0000
  Sc  Sc2       1.0  0.25000  0.50000  0.75000  1.0000
