data_image0
_chemical_formula_structural       Ho2Nb2O8
_chemical_formula_sum              "Ho2 Nb2 O8"
_cell_length_a       5.08426
_cell_length_b       5.27332
_cell_length_c       6.49888
_cell_angle_alpha    112.064
_cell_angle_beta     111.099
_cell_angle_gamma    94.4087

_space_group_name_H-M_alt    "P 1"
_space_group_IT_number       1

loop_
  _space_group_symop_operation_xyz
  'x, y, z'

loop_
  _atom_site_type_symbol
  _atom_site_label
  _atom_site_symmetry_multiplicity
  _atom_site_fract_x
  _atom_site_fract_y
  _atom_site_fract_z
  _atom_site_occupancy
  Ho  Ho1       1.0  0.62100  0.37100  0.24200  1.0000
  Ho  Ho2       1.0  0.37900  0.62900  0.75800  1.0000
  Nb  Nb1       1.0  0.14300  0.89300  0.28600  1.0000
  Nb  Nb2       1.0  0.85700  0.10700  0.71400  1.0000
  O   O1        1.0  0.28800  0.94900  0.07440  1.0000
  O   O2        1.0  0.78600  0.62500  0.07440  1.0000
  O   O3        1.0  0.00709  0.21800  0.43800  1.0000
  O   O4        1.0  0.43100  0.72000  0.43800  1.0000
  O   O5        1.0  0.56900  0.28000  0.56200  1.0000
  O   O6        1.0  0.99300  0.78200  0.56200  1.0000
  O   O7        1.0  0.21400  0.37500  0.92600  1.0000
  O   O8        1.0  0.71200  0.05110  0.92600  1.0000
