data_image0
_chemical_formula_structural       Ge2O8U2
_chemical_formula_sum              "Ge2 O8 U2"
_cell_length_a       5.11198
_cell_length_b       5.11198
_cell_length_c       6.67019
_cell_angle_alpha    112.532
_cell_angle_beta     112.532
_cell_angle_gamma    90

_space_group_name_H-M_alt    "P 1"
_space_group_IT_number       1

loop_
  _space_group_symop_operation_xyz
  'x, y, z'

loop_
  _atom_site_type_symbol
  _atom_site_label
  _atom_site_symmetry_multiplicity
  _atom_site_fract_x
  _atom_site_fract_y
  _atom_site_fract_z
  _atom_site_occupancy
  Ge  Ge1       1.0  0.00000  0.00000  0.00000  1.0000
  Ge  Ge2       1.0  0.25000  0.75000  0.50000  1.0000
  O   O1        1.0  0.33700  0.23500  0.16200  1.0000
  O   O2        1.0  0.82500  0.92600  0.16200  1.0000
  O   O3        1.0  0.91300  0.51500  0.33800  1.0000
  O   O4        1.0  0.42500  0.82400  0.33800  1.0000
  O   O5        1.0  0.17600  0.08690  0.66200  1.0000
  O   O6        1.0  0.48500  0.57500  0.66200  1.0000
  O   O7        1.0  0.76500  0.17500  0.83800  1.0000
  O   O8        1.0  0.07380  0.66300  0.83800  1.0000
  U   U1        1.0  0.50000  0.50000  0.00000  1.0000
  U   U2        1.0  0.75000  0.25000  0.50000  1.0000
