data_image0
_chemical_formula_structural       F8Sr2Zn2
_chemical_formula_sum              "F8 Sr2 Zn2"
_cell_length_a       5.38103
_cell_length_b       5.38103
_cell_length_c       6.87216
_cell_angle_alpha    113.048
_cell_angle_beta     113.048
_cell_angle_gamma    90

_space_group_name_H-M_alt    "P 1"
_space_group_IT_number       1

loop_
  _space_group_symop_operation_xyz
  'x, y, z'

loop_
  _atom_site_type_symbol
  _atom_site_label
  _atom_site_symmetry_multiplicity
  _atom_site_fract_x
  _atom_site_fract_y
  _atom_site_fract_z
  _atom_site_occupancy
  F   F1        1.0  0.34000  0.26100  0.17700  1.0000
  F   F2        1.0  0.83700  0.91600  0.17700  1.0000
  F   F3        1.0  0.91000  0.48900  0.32300  1.0000
  F   F4        1.0  0.41300  0.83400  0.32300  1.0000
  F   F5        1.0  0.16600  0.09040  0.67700  1.0000
  F   F6        1.0  0.51100  0.58700  0.67700  1.0000
  F   F7        1.0  0.73900  0.16300  0.82300  1.0000
  F   F8        1.0  0.08390  0.66000  0.82300  1.0000
  Sr  Sr1       1.0  0.50000  0.50000  0.00000  1.0000
  Sr  Sr2       1.0  0.75000  0.25000  0.50000  1.0000
  Zn  Zn1       1.0  0.00000  0.00000  0.00000  1.0000
  Zn  Zn2       1.0  0.25000  0.75000  0.50000  1.0000
