data_image0
_chemical_formula_structural       Cl4Cu4H4O4
_chemical_formula_sum              "Cl4 Cu4 H4 O4"
_cell_length_a       5.55967
_cell_length_b       6.64973
_cell_length_c       6.05328
_cell_angle_alpha    90
_cell_angle_beta     116.601
_cell_angle_gamma    90

_space_group_name_H-M_alt    "P 1"
_space_group_IT_number       1

loop_
  _space_group_symop_operation_xyz
  'x, y, z'

loop_
  _atom_site_type_symbol
  _atom_site_label
  _atom_site_symmetry_multiplicity
  _atom_site_fract_x
  _atom_site_fract_y
  _atom_site_fract_z
  _atom_site_occupancy
  Cl  Cl1       1.0  0.68200  0.59100  0.31600  1.0000
  Cl  Cl2       1.0  0.18200  0.90900  0.31600  1.0000
  Cl  Cl3       1.0  0.81800  0.09080  0.68400  1.0000
  Cl  Cl4       1.0  0.31800  0.40900  0.68400  1.0000
  Cu  Cu1       1.0  0.25100  0.61900  0.02060  1.0000
  Cu  Cu2       1.0  0.75100  0.88100  0.02060  1.0000
  Cu  Cu3       1.0  0.74900  0.38100  0.97900  1.0000
  Cu  Cu4       1.0  0.24900  0.11900  0.97900  1.0000
  H   H1        1.0  0.74500  0.14800  0.30700  1.0000
  H   H2        1.0  0.24500  0.35200  0.30700  1.0000
  H   H3        1.0  0.25500  0.85200  0.69300  1.0000
  H   H4        1.0  0.75500  0.64800  0.69300  1.0000
  O   O1        1.0  0.65700  0.14100  0.12300  1.0000
  O   O2        1.0  0.15700  0.35900  0.12300  1.0000
  O   O3        1.0  0.84300  0.64100  0.87700  1.0000
  O   O4        1.0  0.34300  0.85900  0.87700  1.0000
