data_image0
_chemical_formula_structural       H8I8
_chemical_formula_sum              "H8 I8"
_cell_length_a       8.2028
_cell_length_b       8.2028
_cell_length_c       8.97052
_cell_angle_alpha    116.959
_cell_angle_beta     117.097
_cell_angle_gamma    90.3487

_space_group_name_H-M_alt    "P 1"
_space_group_IT_number       1

loop_
  _space_group_symop_operation_xyz
  'x, y, z'

loop_
  _atom_site_type_symbol
  _atom_site_label
  _atom_site_symmetry_multiplicity
  _atom_site_fract_x
  _atom_site_fract_y
  _atom_site_fract_z
  _atom_site_occupancy
  H   H1        1.0  0.24000  0.44400  0.99900  1.0000
  H   H2        1.0  0.76000  0.55600  0.00100  1.0000
  H   H3        1.0  0.56400  0.24900  0.01670  1.0000
  H   H4        1.0  0.73200  0.54700  0.48300  1.0000
  H   H5        1.0  0.05490  0.75900  0.49900  1.0000
  H   H6        1.0  0.94500  0.24100  0.50100  1.0000
  H   H7        1.0  0.26800  0.45300  0.51700  1.0000
  H   H8        1.0  0.43600  0.75100  0.98300  1.0000
  I   I1        1.0  0.24300  0.24200  0.00326  1.0000
  I   I2        1.0  0.76800  0.25100  0.01700  1.0000
  I   I3        1.0  0.73400  0.75100  0.48300  1.0000
  I   I4        1.0  0.73900  0.23900  0.49700  1.0000
  I   I5        1.0  0.26100  0.76100  0.50300  1.0000
  I   I6        1.0  0.26600  0.24900  0.51700  1.0000
  I   I7        1.0  0.23200  0.74900  0.98300  1.0000
  I   I8        1.0  0.75700  0.75800  0.99700  1.0000
