data_image0
_chemical_formula_structural       Cl2H4Nd2O4
_chemical_formula_sum              "Cl2 H4 Nd2 O4"
_cell_length_a       6.17774
_cell_length_b       3.86251
_cell_length_c       6.77831
_cell_angle_alpha    90
_cell_angle_beta     112.662
_cell_angle_gamma    90

_space_group_name_H-M_alt    "P 1"
_space_group_IT_number       1

loop_
  _space_group_symop_operation_xyz
  'x, y, z'

loop_
  _atom_site_type_symbol
  _atom_site_label
  _atom_site_symmetry_multiplicity
  _atom_site_fract_x
  _atom_site_fract_y
  _atom_site_fract_z
  _atom_site_occupancy
  Cl  Cl1       1.0  0.24500  0.75000  0.44800  1.0000
  Cl  Cl2       1.0  0.75500  0.25000  0.55200  1.0000
  H   H1        1.0  0.88000  0.25000  0.22200  1.0000
  H   H2        1.0  0.70200  0.75000  0.30800  1.0000
  H   H3        1.0  0.29800  0.25000  0.69200  1.0000
  H   H4        1.0  0.12000  0.75000  0.77800  1.0000
  Nd  Nd1       1.0  0.31100  0.25000  0.13600  1.0000
  Nd  Nd2       1.0  0.68900  0.75000  0.86400  1.0000
  O   O1        1.0  0.89900  0.25000  0.08490  1.0000
  O   O2        1.0  0.57400  0.75000  0.16700  1.0000
  O   O3        1.0  0.42600  0.25000  0.83300  1.0000
  O   O4        1.0  0.10100  0.75000  0.91500  1.0000
