data_image0
_chemical_formula_structural       Er2O8Ta2
_chemical_formula_sum              "Er2 O8 Ta2"
_cell_length_a       5.22997
_cell_length_b       5.41071
_cell_length_c       5.04301
_cell_angle_alpha    90
_cell_angle_beta     87.0045
_cell_angle_gamma    90

_space_group_name_H-M_alt    "P 1"
_space_group_IT_number       1

loop_
  _space_group_symop_operation_xyz
  'x, y, z'

loop_
  _atom_site_type_symbol
  _atom_site_label
  _atom_site_symmetry_multiplicity
  _atom_site_fract_x
  _atom_site_fract_y
  _atom_site_fract_z
  _atom_site_occupancy
  Er  Er1       1.0  0.75000  0.23600  0.50000  1.0000
  Er  Er2       1.0  0.25000  0.76400  0.50000  1.0000
  O   O1        1.0  0.48700  0.44300  0.23700  1.0000
  O   O2        1.0  0.98700  0.55700  0.23700  1.0000
  O   O3        1.0  0.58800  0.92400  0.24800  1.0000
  O   O4        1.0  0.08810  0.07570  0.24800  1.0000
  O   O5        1.0  0.91200  0.92400  0.75200  1.0000
  O   O6        1.0  0.41200  0.07570  0.75200  1.0000
  O   O7        1.0  0.51300  0.55700  0.76300  1.0000
  O   O8        1.0  0.01270  0.44300  0.76300  1.0000
  Ta  Ta1       1.0  0.75000  0.70800  0.00000  1.0000
  Ta  Ta2       1.0  0.25000  0.29200  0.00000  1.0000
