data_image0
_chemical_formula_structural       Gd2O8Ta2
_chemical_formula_sum              "Gd2 O8 Ta2"
_cell_length_a       5.30198
_cell_length_b       5.48421
_cell_length_c       5.1055
_cell_angle_alpha    90
_cell_angle_beta     86.8338
_cell_angle_gamma    90

_space_group_name_H-M_alt    "P 1"
_space_group_IT_number       1

loop_
  _space_group_symop_operation_xyz
  'x, y, z'

loop_
  _atom_site_type_symbol
  _atom_site_label
  _atom_site_symmetry_multiplicity
  _atom_site_fract_x
  _atom_site_fract_y
  _atom_site_fract_z
  _atom_site_occupancy
  Gd  Gd1       1.0  0.75000  0.23700  0.50000  1.0000
  Gd  Gd2       1.0  0.25000  0.76300  0.50000  1.0000
  O   O1        1.0  0.48500  0.44400  0.23500  1.0000
  O   O2        1.0  0.98500  0.55600  0.23500  1.0000
  O   O3        1.0  0.59400  0.92100  0.24400  1.0000
  O   O4        1.0  0.09360  0.07940  0.24400  1.0000
  O   O5        1.0  0.40600  0.07940  0.75600  1.0000
  O   O6        1.0  0.90600  0.92100  0.75600  1.0000
  O   O7        1.0  0.51500  0.55600  0.76500  1.0000
  O   O8        1.0  0.01520  0.44400  0.76500  1.0000
  Ta  Ta1       1.0  0.75000  0.70400  0.00000  1.0000
  Ta  Ta2       1.0  0.25000  0.29600  0.00000  1.0000
