data_image0
_chemical_formula_structural       Lu2O8Ta2
_chemical_formula_sum              "Lu2 O8 Ta2"
_cell_length_a       5.17075
_cell_length_b       5.37873
_cell_length_c       5.01033
_cell_angle_alpha    90
_cell_angle_beta     87.0953
_cell_angle_gamma    90

_space_group_name_H-M_alt    "P 1"
_space_group_IT_number       1

loop_
  _space_group_symop_operation_xyz
  'x, y, z'

loop_
  _atom_site_type_symbol
  _atom_site_label
  _atom_site_symmetry_multiplicity
  _atom_site_fract_x
  _atom_site_fract_y
  _atom_site_fract_z
  _atom_site_occupancy
  Lu  Lu1       1.0  0.75000  0.23300  0.50000  1.0000
  Lu  Lu2       1.0  0.25000  0.76700  0.50000  1.0000
  O   O1        1.0  0.49500  0.43900  0.23800  1.0000
  O   O2        1.0  0.99500  0.56100  0.23800  1.0000
  O   O3        1.0  0.58400  0.92400  0.25200  1.0000
  O   O4        1.0  0.08440  0.07580  0.25200  1.0000
  O   O5        1.0  0.91600  0.92400  0.74800  1.0000
  O   O6        1.0  0.41600  0.07580  0.74800  1.0000
  O   O7        1.0  0.50500  0.56100  0.76200  1.0000
  O   O8        1.0  0.00510  0.43900  0.76200  1.0000
  Ta  Ta1       1.0  0.75000  0.70900  0.00000  1.0000
  Ta  Ta2       1.0  0.25000  0.29100  0.00000  1.0000
