data_image0
_chemical_formula_structural       Au2Dy
_chemical_formula_sum              "Au2 Dy1"
_cell_length_a       3.71007
_cell_length_b       3.71007
_cell_length_c       5.21955
_cell_angle_alpha    110.818
_cell_angle_beta     110.818
_cell_angle_gamma    90

_space_group_name_H-M_alt    "P 1"
_space_group_IT_number       1

loop_
  _space_group_symop_operation_xyz
  'x, y, z'

loop_
  _atom_site_type_symbol
  _atom_site_label
  _atom_site_symmetry_multiplicity
  _atom_site_fract_x
  _atom_site_fract_y
  _atom_site_fract_z
  _atom_site_occupancy
  Au  Au1       1.0  0.66500  0.66500  0.33000  1.0000
  Au  Au2       1.0  0.33500  0.33500  0.67000  1.0000
  Dy  Dy1       1.0  0.00000  0.00000  0.00000  1.0000
