data_image0
_chemical_formula_structural       FeKO8S2
_chemical_formula_sum              "Fe1 K1 O8 S2"
_cell_length_a       4.78353
_cell_length_b       4.78353
_cell_length_c       7.71285
_cell_angle_alpha    94.2149
_cell_angle_beta     94.2149
_cell_angle_gamma    65.1824

_space_group_name_H-M_alt    "P 1"
_space_group_IT_number       1

loop_
  _space_group_symop_operation_xyz
  'x, y, z'

loop_
  _atom_site_type_symbol
  _atom_site_label
  _atom_site_symmetry_multiplicity
  _atom_site_fract_x
  _atom_site_fract_y
  _atom_site_fract_z
  _atom_site_occupancy
  Fe  Fe1       1.0  0.00000  0.00000  0.00000  1.0000
  K   K1        1.0  0.00000  0.00000  0.50000  1.0000
  O   O1        1.0  0.24100  0.24100  0.05940  1.0000
  O   O2        1.0  0.71400  0.24400  0.18800  1.0000
  O   O3        1.0  0.24400  0.71400  0.18800  1.0000
  O   O4        1.0  0.31000  0.31000  0.37800  1.0000
  O   O5        1.0  0.69000  0.69000  0.62200  1.0000
  O   O6        1.0  0.75600  0.28600  0.81200  1.0000
  O   O7        1.0  0.28600  0.75600  0.81200  1.0000
  O   O8        1.0  0.75900  0.75900  0.94100  1.0000
  S   S1        1.0  0.37200  0.37200  0.20700  1.0000
  S   S2        1.0  0.62800  0.62800  0.79300  1.0000
