data_image0
_chemical_formula_structural       Fe2Si7U3
_chemical_formula_sum              "Fe2 Si7 U3"
_cell_length_a       3.98071
_cell_length_b       4.00935
_cell_length_c       12.2965
_cell_angle_alpha    90
_cell_angle_beta     80.6849
_cell_angle_gamma    90

_space_group_name_H-M_alt    "P 1"
_space_group_IT_number       1

loop_
  _space_group_symop_operation_xyz
  'x, y, z'

loop_
  _atom_site_type_symbol
  _atom_site_label
  _atom_site_symmetry_multiplicity
  _atom_site_fract_x
  _atom_site_fract_y
  _atom_site_fract_z
  _atom_site_occupancy
  Fe  Fe1       1.0  0.87200  0.50000  0.25700  1.0000
  Fe  Fe2       1.0  0.12800  0.50000  0.74300  1.0000
  Si  Si1       1.0  0.50000  0.00000  0.00000  1.0000
  Si  Si2       1.0  0.41400  0.50000  0.17200  1.0000
  Si  Si3       1.0  0.91300  0.00000  0.17400  1.0000
  Si  Si4       1.0  0.77800  0.50000  0.44400  1.0000
  Si  Si5       1.0  0.22200  0.50000  0.55600  1.0000
  Si  Si6       1.0  0.08680  0.00000  0.82600  1.0000
  Si  Si7       1.0  0.58600  0.50000  0.82800  1.0000
  U   U1        1.0  0.00000  0.50000  0.00000  1.0000
  U   U2        1.0  0.31600  0.00000  0.36900  1.0000
  U   U3        1.0  0.68400  0.00000  0.63100  1.0000
