data_image0
_chemical_formula_structural       Br4Cl4Pb4
_chemical_formula_sum              "Br4 Cl4 Pb4"
_cell_length_a       7.85334
_cell_length_b       9.3527
_cell_length_c       4.61919
_cell_angle_alpha    90
_cell_angle_beta     90
_cell_angle_gamma    90

_space_group_name_H-M_alt    "P 1"
_space_group_IT_number       1

loop_
  _space_group_symop_operation_xyz
  'x, y, z'

loop_
  _atom_site_type_symbol
  _atom_site_label
  _atom_site_symmetry_multiplicity
  _atom_site_fract_x
  _atom_site_fract_y
  _atom_site_fract_z
  _atom_site_occupancy
  Br  Br1       1.0  0.97300  0.66600  0.25000  1.0000
  Br  Br2       1.0  0.47300  0.83400  0.25000  1.0000
  Br  Br3       1.0  0.52700  0.16600  0.75000  1.0000
  Br  Br4       1.0  0.02650  0.33400  0.75000  1.0000
  Cl  Cl1       1.0  0.85800  0.06830  0.25000  1.0000
  Cl  Cl2       1.0  0.35800  0.43200  0.25000  1.0000
  Cl  Cl3       1.0  0.64200  0.56800  0.75000  1.0000
  Cl  Cl4       1.0  0.14200  0.93200  0.75000  1.0000
  Pb  Pb1       1.0  0.24800  0.10200  0.25000  1.0000
  Pb  Pb2       1.0  0.74800  0.39800  0.25000  1.0000
  Pb  Pb3       1.0  0.25200  0.60200  0.75000  1.0000
  Pb  Pb4       1.0  0.75200  0.89800  0.75000  1.0000
