data_image0
_chemical_formula_structural       Gd2Nb2O8
_chemical_formula_sum              "Gd2 Nb2 O8"
_cell_length_a       5.10822
_cell_length_b       5.35303
_cell_length_c       6.57005
_cell_angle_alpha    112.064
_cell_angle_beta     110.823
_cell_angle_gamma    94.6842

_space_group_name_H-M_alt    "P 1"
_space_group_IT_number       1

loop_
  _space_group_symop_operation_xyz
  'x, y, z'

loop_
  _atom_site_type_symbol
  _atom_site_label
  _atom_site_symmetry_multiplicity
  _atom_site_fract_x
  _atom_site_fract_y
  _atom_site_fract_z
  _atom_site_occupancy
  Gd  Gd1       1.0  0.62100  0.37100  0.24200  1.0000
  Gd  Gd2       1.0  0.37900  0.62900  0.75800  1.0000
  Nb  Nb1       1.0  0.14500  0.89500  0.28900  1.0000
  Nb  Nb2       1.0  0.85500  0.10500  0.71100  1.0000
  O   O1        1.0  0.79000  0.63100  0.07820  1.0000
  O   O2        1.0  0.28800  0.94700  0.07820  1.0000
  O   O3        1.0  0.00929  0.21600  0.43600  1.0000
  O   O4        1.0  0.42700  0.72100  0.43600  1.0000
  O   O5        1.0  0.57300  0.27900  0.56400  1.0000
  O   O6        1.0  0.99100  0.78400  0.56400  1.0000
  O   O7        1.0  0.71200  0.05320  0.92200  1.0000
  O   O8        1.0  0.21000  0.36900  0.92200  1.0000
