data_image0
_chemical_formula_structural       F6Hg3S2Si
_chemical_formula_sum              "F6 Hg3 S2 Si1"
_cell_length_a       7.14422
_cell_length_b       7.1442
_cell_length_c       4.47639
_cell_angle_alpha    90
_cell_angle_beta     90.0005
_cell_angle_gamma    120

_space_group_name_H-M_alt    "P 1"
_space_group_IT_number       1

loop_
  _space_group_symop_operation_xyz
  'x, y, z'

loop_
  _atom_site_type_symbol
  _atom_site_label
  _atom_site_symmetry_multiplicity
  _atom_site_fract_x
  _atom_site_fract_y
  _atom_site_fract_z
  _atom_site_occupancy
  F   F1        1.0  0.77500  0.88800  0.28200  1.0000
  F   F2        1.0  0.11200  0.22500  0.28200  1.0000
  F   F3        1.0  0.11200  0.88800  0.28200  1.0000
  F   F4        1.0  0.88800  0.11200  0.71800  1.0000
  F   F5        1.0  0.88800  0.77500  0.71800  1.0000
  F   F6        1.0  0.22500  0.11200  0.71800  1.0000
  Hg  Hg1       1.0  0.00000  0.50000  0.00000  1.0000
  Hg  Hg2       1.0  0.50000  1.00000  0.00000  1.0000
  Hg  Hg3       1.0  0.50000  0.50000  0.00000  1.0000
  S   S1        1.0  0.33300  0.66700  0.26000  1.0000
  S   S2        1.0  0.66700  0.33300  0.74000  1.0000
  Si  Si1       1.0  0.00000  1.00000  0.50000  1.0000
