data_image0
_chemical_formula_structural       Hf4O4S4
_chemical_formula_sum              "Hf4 O4 S4"
_cell_length_a       5.66822
_cell_length_b       5.66822
_cell_length_c       5.66822
_cell_angle_alpha    90
_cell_angle_beta     90
_cell_angle_gamma    90

_space_group_name_H-M_alt    "P 1"
_space_group_IT_number       1

loop_
  _space_group_symop_operation_xyz
  'x, y, z'

loop_
  _atom_site_type_symbol
  _atom_site_label
  _atom_site_symmetry_multiplicity
  _atom_site_fract_x
  _atom_site_fract_y
  _atom_site_fract_z
  _atom_site_occupancy
  Hf  Hf1       1.0  0.68100  0.81900  0.18100  1.0000
  Hf  Hf2       1.0  0.31900  0.31900  0.31900  1.0000
  Hf  Hf3       1.0  0.81900  0.18100  0.68100  1.0000
  Hf  Hf4       1.0  0.18100  0.68100  0.81900  1.0000
  O   O1        1.0  0.40400  0.59600  0.09570  1.0000
  O   O2        1.0  0.59600  0.09570  0.40400  1.0000
  O   O3        1.0  0.09570  0.40400  0.59600  1.0000
  O   O4        1.0  0.90400  0.90400  0.90400  1.0000
  S   S1        1.0  0.91800  0.41800  0.08230  1.0000
  S   S2        1.0  0.08230  0.91800  0.41800  1.0000
  S   S3        1.0  0.58200  0.58200  0.58200  1.0000
  S   S4        1.0  0.41800  0.08230  0.91800  1.0000
