data_image0
_chemical_formula_structural       Cr2O8Tb2
_chemical_formula_sum              "Cr2 O8 Tb2"
_cell_length_a       5.9431
_cell_length_b       5.9431
_cell_length_c       5.9431
_cell_angle_alpha    106.093
_cell_angle_beta     116.461
_cell_angle_gamma    106.093

_space_group_name_H-M_alt    "P 1"
_space_group_IT_number       1

loop_
  _space_group_symop_operation_xyz
  'x, y, z'

loop_
  _atom_site_type_symbol
  _atom_site_label
  _atom_site_symmetry_multiplicity
  _atom_site_fract_x
  _atom_site_fract_y
  _atom_site_fract_z
  _atom_site_occupancy
  Cr  Cr1       1.0  0.50000  0.00000  0.50000  1.0000
  Cr  Cr2       1.0  0.25000  0.50000  0.75000  1.0000
  O   O1        1.0  0.14100  0.81500  0.32600  1.0000
  O   O2        1.0  0.51100  0.18500  0.32600  1.0000
  O   O3        1.0  0.07600  0.31500  0.39100  1.0000
  O   O4        1.0  0.67400  0.81500  0.48900  1.0000
  O   O5        1.0  0.07600  0.68500  0.76100  1.0000
  O   O6        1.0  0.67400  0.18500  0.85900  1.0000
  O   O7        1.0  0.23900  0.31500  0.92400  1.0000
  O   O8        1.0  0.60900  0.68500  0.92400  1.0000
  Tb  Tb1       1.0  0.00000  0.00000  0.00000  1.0000
  Tb  Tb2       1.0  0.75000  0.50000  0.25000  1.0000
