data_image0
_chemical_formula_structural       As2O8Sb2
_chemical_formula_sum              "As2 O8 Sb2"
_cell_length_a       4.69977
_cell_length_b       6.98728
_cell_length_c       5.26682
_cell_angle_alpha    90
_cell_angle_beta     94.0947
_cell_angle_gamma    90

_space_group_name_H-M_alt    "P 1"
_space_group_IT_number       1

loop_
  _space_group_symop_operation_xyz
  'x, y, z'

loop_
  _atom_site_type_symbol
  _atom_site_label
  _atom_site_symmetry_multiplicity
  _atom_site_fract_x
  _atom_site_fract_y
  _atom_site_fract_z
  _atom_site_occupancy
  As  As1       1.0  0.70800  0.25000  0.11100  1.0000
  As  As2       1.0  0.29200  0.75000  0.88900  1.0000
  O   O1        1.0  0.34100  0.25000  0.04610  1.0000
  O   O2        1.0  0.19600  0.75000  0.20100  1.0000
  O   O3        1.0  0.81500  0.06060  0.29700  1.0000
  O   O4        1.0  0.81500  0.43900  0.29700  1.0000
  O   O5        1.0  0.18500  0.56100  0.70300  1.0000
  O   O6        1.0  0.18500  0.93900  0.70300  1.0000
  O   O7        1.0  0.80400  0.25000  0.79900  1.0000
  O   O8        1.0  0.65900  0.75000  0.95400  1.0000
  Sb  Sb1       1.0  0.80100  0.75000  0.33900  1.0000
  Sb  Sb2       1.0  0.19900  0.25000  0.66100  1.0000
