data_image0
_chemical_formula_structural       Fe2O8S2
_chemical_formula_sum              "Fe2 O8 S2"
_cell_length_a       4.76556
_cell_length_b       4.76556
_cell_length_c       6.51371
_cell_angle_alpha    90
_cell_angle_beta     90
_cell_angle_gamma    113.186

_space_group_name_H-M_alt    "P 1"
_space_group_IT_number       1

loop_
  _space_group_symop_operation_xyz
  'x, y, z'

loop_
  _atom_site_type_symbol
  _atom_site_label
  _atom_site_symmetry_multiplicity
  _atom_site_fract_x
  _atom_site_fract_y
  _atom_site_fract_z
  _atom_site_occupancy
  Fe  Fe1       1.0  0.00000  0.00000  0.00000  1.0000
  Fe  Fe2       1.0  0.00000  0.00000  0.50000  1.0000
  O   O1        1.0  0.25100  0.74900  0.06080  1.0000
  O   O2        1.0  0.22700  0.30600  0.25000  1.0000
  O   O3        1.0  0.69400  0.77300  0.25000  1.0000
  O   O4        1.0  0.25100  0.74900  0.43900  1.0000
  O   O5        1.0  0.74900  0.25100  0.56100  1.0000
  O   O6        1.0  0.30600  0.22700  0.75000  1.0000
  O   O7        1.0  0.77300  0.69400  0.75000  1.0000
  O   O8        1.0  0.74900  0.25100  0.93900  1.0000
  S   S1        1.0  0.35100  0.64900  0.25000  1.0000
  S   S2        1.0  0.64900  0.35100  0.75000  1.0000
