data_image0
_chemical_formula_structural       F6I2Sn4
_chemical_formula_sum              "F6 I2 Sn4"
_cell_length_a       4.25255
_cell_length_b       6.92412
_cell_length_c       8.9183
_cell_angle_alpha    90
_cell_angle_beta     90
_cell_angle_gamma    72.1165

_space_group_name_H-M_alt    "P 1"
_space_group_IT_number       1

loop_
  _space_group_symop_operation_xyz
  'x, y, z'

loop_
  _atom_site_type_symbol
  _atom_site_label
  _atom_site_symmetry_multiplicity
  _atom_site_fract_x
  _atom_site_fract_y
  _atom_site_fract_z
  _atom_site_occupancy
  F   F1        1.0  0.29200  0.41700  0.00000  1.0000
  F   F2        1.0  0.79000  0.41500  0.20000  1.0000
  F   F3        1.0  0.20400  0.58500  0.30000  1.0000
  F   F4        1.0  0.70800  0.58300  0.50000  1.0000
  F   F5        1.0  0.21000  0.58500  0.70000  1.0000
  F   F6        1.0  0.79600  0.41500  0.80000  1.0000
  I   I1        1.0  0.02180  0.95600  0.00000  1.0000
  I   I2        1.0  0.97800  0.04360  0.50000  1.0000
  Sn  Sn1       1.0  0.36100  0.26500  0.21400  1.0000
  Sn  Sn2       1.0  0.62600  0.73500  0.28600  1.0000
  Sn  Sn3       1.0  0.63900  0.73500  0.71400  1.0000
  Sn  Sn4       1.0  0.37400  0.26500  0.78600  1.0000
