data_image0
_chemical_formula_structural       F8Fe2K2
_chemical_formula_sum              "F8 Fe2 K2"
_cell_length_a       3.89411
_cell_length_b       6.18744
_cell_length_c       7.56597
_cell_angle_alpha    90
_cell_angle_beta     90
_cell_angle_gamma    71.6586

_space_group_name_H-M_alt    "P 1"
_space_group_IT_number       1

loop_
  _space_group_symop_operation_xyz
  'x, y, z'

loop_
  _atom_site_type_symbol
  _atom_site_label
  _atom_site_symmetry_multiplicity
  _atom_site_fract_x
  _atom_site_fract_y
  _atom_site_fract_z
  _atom_site_occupancy
  F   F1        1.0  0.50000  0.00000  0.00000  1.0000
  F   F2        1.0  0.15700  0.68600  0.05450  1.0000
  F   F3        1.0  0.95500  0.08990  0.25000  1.0000
  F   F4        1.0  0.15700  0.68600  0.44600  1.0000
  F   F5        1.0  0.50000  0.00000  0.50000  1.0000
  F   F6        1.0  0.84300  0.31400  0.55400  1.0000
  F   F7        1.0  0.04500  0.91000  0.75000  1.0000
  F   F8        1.0  0.84300  0.31400  0.94600  1.0000
  Fe  Fe1       1.0  0.00000  0.00000  0.00000  1.0000
  Fe  Fe2       1.0  0.00000  0.00000  0.50000  1.0000
  K   K1        1.0  0.72900  0.54300  0.25000  1.0000
  K   K2        1.0  0.27100  0.45700  0.75000  1.0000
