data_image0
_chemical_formula_structural       Ca2F8Zn2
_chemical_formula_sum              "Ca2 F8 Zn2"
_cell_length_a       5.18569
_cell_length_b       5.18569
_cell_length_c       6.50448
_cell_angle_alpha    113.492
_cell_angle_beta     113.492
_cell_angle_gamma    90

_space_group_name_H-M_alt    "P 1"
_space_group_IT_number       1

loop_
  _space_group_symop_operation_xyz
  'x, y, z'

loop_
  _atom_site_type_symbol
  _atom_site_label
  _atom_site_symmetry_multiplicity
  _atom_site_fract_x
  _atom_site_fract_y
  _atom_site_fract_z
  _atom_site_occupancy
  Ca  Ca1       1.0  0.50000  0.50000  0.00000  1.0000
  Ca  Ca2       1.0  0.75000  0.25000  0.50000  1.0000
  F   F1        1.0  0.35000  0.28200  0.18600  1.0000
  F   F2        1.0  0.83600  0.90400  0.18600  1.0000
  F   F3        1.0  0.41400  0.84600  0.31400  1.0000
  F   F4        1.0  0.90000  0.46800  0.31400  1.0000
  F   F5        1.0  0.15400  0.10000  0.68600  1.0000
  F   F6        1.0  0.53200  0.58600  0.68600  1.0000
  F   F7        1.0  0.09560  0.65000  0.81400  1.0000
  F   F8        1.0  0.71800  0.16400  0.81400  1.0000
  Zn  Zn1       1.0  0.00000  0.00000  0.00000  1.0000
  Zn  Zn2       1.0  0.25000  0.75000  0.50000  1.0000
