data_image0
_chemical_formula_structural       Fe4S4Sb4
_chemical_formula_sum              "Fe4 S4 Sb4"
_cell_length_a       6.05001
_cell_length_b       5.92015
_cell_length_c       6.03104
_cell_angle_alpha    90
_cell_angle_beta     67.4603
_cell_angle_gamma    90

_space_group_name_H-M_alt    "P 1"
_space_group_IT_number       1

loop_
  _space_group_symop_operation_xyz
  'x, y, z'

loop_
  _atom_site_type_symbol
  _atom_site_label
  _atom_site_symmetry_multiplicity
  _atom_site_fract_x
  _atom_site_fract_y
  _atom_site_fract_z
  _atom_site_occupancy
  Fe  Fe1       1.0  0.30200  0.51800  0.19700  1.0000
  Fe  Fe2       1.0  0.69800  0.01760  0.30300  1.0000
  Fe  Fe3       1.0  0.30200  0.98200  0.69700  1.0000
  Fe  Fe4       1.0  0.69800  0.48200  0.80300  1.0000
  S   S1        1.0  0.64200  0.36000  0.17000  1.0000
  S   S2        1.0  0.35800  0.86000  0.33000  1.0000
  S   S3        1.0  0.64200  0.14000  0.67000  1.0000
  S   S4        1.0  0.35800  0.64000  0.83000  1.0000
  Sb  Sb1       1.0  0.14700  0.13300  0.13200  1.0000
  Sb  Sb2       1.0  0.85300  0.63300  0.36800  1.0000
  Sb  Sb3       1.0  0.14700  0.36700  0.63200  1.0000
  Sb  Sb4       1.0  0.85300  0.86700  0.86800  1.0000
