data_image0
_chemical_formula_structural       Al2Nb2O8
_chemical_formula_sum              "Al2 Nb2 O8"
_cell_length_a       3.76345
_cell_length_b       6.37515
_cell_length_c       6.49615
_cell_angle_alpha    106.891
_cell_angle_beta     90
_cell_angle_gamma    107.167

_space_group_name_H-M_alt    "P 1"
_space_group_IT_number       1

loop_
  _space_group_symop_operation_xyz
  'x, y, z'

loop_
  _atom_site_type_symbol
  _atom_site_label
  _atom_site_symmetry_multiplicity
  _atom_site_fract_x
  _atom_site_fract_y
  _atom_site_fract_z
  _atom_site_occupancy
  Al  Al1       1.0  0.79700  0.59500  0.17500  1.0000
  Al  Al2       1.0  0.20300  0.40500  0.82500  1.0000
  Nb  Nb1       1.0  0.10400  0.20800  0.23700  1.0000
  Nb  Nb2       1.0  0.89600  0.79200  0.76300  1.0000
  O   O1        1.0  0.94200  0.88300  0.13700  1.0000
  O   O2        1.0  0.26500  0.53000  0.14300  1.0000
  O   O3        1.0  0.64300  0.28600  0.20100  1.0000
  O   O4        1.0  0.85900  0.71900  0.47100  1.0000
  O   O5        1.0  0.14100  0.28100  0.52900  1.0000
  O   O6        1.0  0.35700  0.71400  0.79900  1.0000
  O   O7        1.0  0.73500  0.47000  0.85700  1.0000
  O   O8        1.0  0.05840  0.11700  0.86300  1.0000
