data_image0
_chemical_formula_structural       As8Pd4
_chemical_formula_sum              "As8 Pd4"
_cell_length_a       6.05594
_cell_length_b       6.05594
_cell_length_c       6.05594
_cell_angle_alpha    90
_cell_angle_beta     90
_cell_angle_gamma    90

_space_group_name_H-M_alt    "P 1"
_space_group_IT_number       1

loop_
  _space_group_symop_operation_xyz
  'x, y, z'

loop_
  _atom_site_type_symbol
  _atom_site_label
  _atom_site_symmetry_multiplicity
  _atom_site_fract_x
  _atom_site_fract_y
  _atom_site_fract_z
  _atom_site_occupancy
  As  As1       1.0  0.88300  0.38300  0.11700  1.0000
  As  As2       1.0  0.61700  0.88300  0.11700  1.0000
  As  As3       1.0  0.38300  0.38300  0.38300  1.0000
  As  As4       1.0  0.11700  0.88300  0.38300  1.0000
  As  As5       1.0  0.88300  0.11700  0.61700  1.0000
  As  As6       1.0  0.61700  0.61700  0.61700  1.0000
  As  As7       1.0  0.38300  0.11700  0.88300  1.0000
  As  As8       1.0  0.11700  0.61700  0.88300  1.0000
  Pd  Pd1       1.0  0.00000  0.00000  0.00000  1.0000
  Pd  Pd2       1.0  0.50000  0.50000  0.00000  1.0000
  Pd  Pd3       1.0  0.50000  0.00000  0.50000  1.0000
  Pd  Pd4       1.0  0.00000  0.50000  0.50000  1.0000
