data_image0
_chemical_formula_structural       CsHMnO10P3
_chemical_formula_sum              "Cs1 H1 Mn1 O10 P3"
_cell_length_a       6.21447
_cell_length_b       6.21447
_cell_length_c       6.4757
_cell_angle_alpha    106.994
_cell_angle_beta     73.0058
_cell_angle_gamma    92.5416

_space_group_name_H-M_alt    "P 1"
_space_group_IT_number       1

loop_
  _space_group_symop_operation_xyz
  'x, y, z'

loop_
  _atom_site_type_symbol
  _atom_site_label
  _atom_site_symmetry_multiplicity
  _atom_site_fract_x
  _atom_site_fract_y
  _atom_site_fract_z
  _atom_site_occupancy
  Cs  Cs1       1.0  0.00198  0.00198  0.50000  1.0000
  H   H1        1.0  0.75700  0.75700  0.00000  1.0000
  Mn  Mn1       1.0  0.33600  0.33600  0.00000  1.0000
  O   O1        1.0  0.02320  0.31500  0.01220  1.0000
  O   O2        1.0  0.32600  0.65600  0.05130  1.0000
  O   O3        1.0  0.80500  0.69800  0.14300  1.0000
  O   O4        1.0  0.69100  0.40500  0.34900  1.0000
  O   O5        1.0  0.27300  0.40900  0.35900  1.0000
  O   O6        1.0  0.40900  0.27300  0.64100  1.0000
  O   O7        1.0  0.40500  0.69100  0.65100  1.0000
  O   O8        1.0  0.69800  0.80500  0.85700  1.0000
  O   O9        1.0  0.65600  0.32600  0.94900  1.0000
  O   O10       1.0  0.31500  0.02320  0.98800  1.0000
  P   P1        1.0  0.79900  0.44300  0.10300  1.0000
  P   P2        1.0  0.43100  0.43100  0.50000  1.0000
  P   P3        1.0  0.44300  0.79900  0.89700  1.0000
