data_image0
_chemical_formula_structural       Au2F8Na2
_chemical_formula_sum              "Au2 F8 Na2"
_cell_length_a       5.44736
_cell_length_b       5.44736
_cell_length_c       6.41015
_cell_angle_alpha    115.144
_cell_angle_beta     115.144
_cell_angle_gamma    90

_space_group_name_H-M_alt    "P 1"
_space_group_IT_number       1

loop_
  _space_group_symop_operation_xyz
  'x, y, z'

loop_
  _atom_site_type_symbol
  _atom_site_label
  _atom_site_symmetry_multiplicity
  _atom_site_fract_x
  _atom_site_fract_y
  _atom_site_fract_z
  _atom_site_occupancy
  Au  Au1       1.0  0.50000  0.00000  0.00000  1.0000
  Au  Au2       1.0  0.00000  0.50000  0.00000  1.0000
  F   F1        1.0  0.81500  0.31500  0.26900  1.0000
  F   F2        1.0  0.31500  0.45400  0.26900  1.0000
  F   F3        1.0  0.95400  0.81500  0.26900  1.0000
  F   F4        1.0  0.45400  0.95400  0.26900  1.0000
  F   F5        1.0  0.54600  0.04640  0.73100  1.0000
  F   F6        1.0  0.04640  0.18500  0.73100  1.0000
  F   F7        1.0  0.68500  0.54600  0.73100  1.0000
  F   F8        1.0  0.18500  0.68500  0.73100  1.0000
  Na  Na1       1.0  0.25000  0.25000  0.50000  1.0000
  Na  Na2       1.0  0.75000  0.75000  0.50000  1.0000
