data_image0
_chemical_formula_structural       H4Mn2O10P2
_chemical_formula_sum              "H4 Mn2 O10 P2"
_cell_length_a       5.07401
_cell_length_b       5.07401
_cell_length_c       7.31098
_cell_angle_alpha    105.334
_cell_angle_beta     105.334
_cell_angle_gamma    95.0313

_space_group_name_H-M_alt    "P 1"
_space_group_IT_number       1

loop_
  _space_group_symop_operation_xyz
  'x, y, z'

loop_
  _atom_site_type_symbol
  _atom_site_label
  _atom_site_symmetry_multiplicity
  _atom_site_fract_x
  _atom_site_fract_y
  _atom_site_fract_z
  _atom_site_occupancy
  H   H1        1.0  0.11100  0.06770  0.20100  1.0000
  H   H2        1.0  0.93200  0.88900  0.29900  1.0000
  H   H3        1.0  0.06770  0.11100  0.70100  1.0000
  H   H4        1.0  0.88900  0.93200  0.79900  1.0000
  Mn  Mn1       1.0  0.00000  0.50000  0.00000  1.0000
  Mn  Mn2       1.0  0.50000  0.00000  0.50000  1.0000
  O   O1        1.0  0.72900  0.32600  0.08950  1.0000
  O   O2        1.0  0.26500  0.33300  0.15700  1.0000
  O   O3        1.0  0.09890  0.90100  0.25000  1.0000
  O   O4        1.0  0.66700  0.73500  0.34300  1.0000
  O   O5        1.0  0.67400  0.27100  0.41100  1.0000
  O   O6        1.0  0.32600  0.72900  0.58900  1.0000
  O   O7        1.0  0.33300  0.26500  0.65700  1.0000
  O   O8        1.0  0.90100  0.09890  0.75000  1.0000
  O   O9        1.0  0.73500  0.66700  0.84300  1.0000
  O   O10       1.0  0.27100  0.67400  0.91100  1.0000
  P   P1        1.0  0.58400  0.41600  0.25000  1.0000
  P   P2        1.0  0.41600  0.58400  0.75000  1.0000
