data_image0
_chemical_formula_structural       Cu4F4H4O4
_chemical_formula_sum              "Cu4 F4 H4 O4"
_cell_length_a       5.23953
_cell_length_b       6.24229
_cell_length_c       4.92852
_cell_angle_alpha    90
_cell_angle_beta     113.621
_cell_angle_gamma    90

_space_group_name_H-M_alt    "P 1"
_space_group_IT_number       1

loop_
  _space_group_symop_operation_xyz
  'x, y, z'

loop_
  _atom_site_type_symbol
  _atom_site_label
  _atom_site_symmetry_multiplicity
  _atom_site_fract_x
  _atom_site_fract_y
  _atom_site_fract_z
  _atom_site_occupancy
  Cu  Cu1       1.0  0.74800  0.88100  0.00854  1.0000
  Cu  Cu2       1.0  0.24800  0.61900  0.00854  1.0000
  Cu  Cu3       1.0  0.25200  0.11900  0.99100  1.0000
  Cu  Cu4       1.0  0.75200  0.38100  0.99100  1.0000
  F   F1        1.0  0.64100  0.60900  0.28900  1.0000
  F   F2        1.0  0.14100  0.89100  0.28900  1.0000
  F   F3        1.0  0.35900  0.39100  0.71100  1.0000
  F   F4        1.0  0.85900  0.10900  0.71100  1.0000
  H   H1        1.0  0.74500  0.13600  0.39700  1.0000
  H   H2        1.0  0.24500  0.36400  0.39700  1.0000
  H   H3        1.0  0.75500  0.63600  0.60300  1.0000
  H   H4        1.0  0.25500  0.86400  0.60300  1.0000
  O   O1        1.0  0.65600  0.14000  0.16900  1.0000
  O   O2        1.0  0.15600  0.36000  0.16900  1.0000
  O   O3        1.0  0.84400  0.64000  0.83100  1.0000
  O   O4        1.0  0.34400  0.86000  0.83100  1.0000
