data_image0
_chemical_formula_structural       P8Ti4
_chemical_formula_sum              "P8 Ti4"
_cell_length_a       6.15509
_cell_length_b       3.34297
_cell_length_c       8.25612
_cell_angle_alpha    90
_cell_angle_beta     90
_cell_angle_gamma    90

_space_group_name_H-M_alt    "P 1"
_space_group_IT_number       1

loop_
  _space_group_symop_operation_xyz
  'x, y, z'

loop_
  _atom_site_type_symbol
  _atom_site_label
  _atom_site_symmetry_multiplicity
  _atom_site_fract_x
  _atom_site_fract_y
  _atom_site_fract_z
  _atom_site_occupancy
  P   P1        1.0  0.87700  0.25000  0.03990  1.0000
  P   P2        1.0  0.58400  0.75000  0.13500  1.0000
  P   P3        1.0  0.08440  0.75000  0.36500  1.0000
  P   P4        1.0  0.37700  0.25000  0.46000  1.0000
  P   P5        1.0  0.62300  0.75000  0.54000  1.0000
  P   P6        1.0  0.91600  0.25000  0.63500  1.0000
  P   P7        1.0  0.41600  0.25000  0.86500  1.0000
  P   P8        1.0  0.12300  0.75000  0.96000  1.0000
  Ti  Ti1       1.0  0.26400  0.25000  0.16700  1.0000
  Ti  Ti2       1.0  0.76400  0.25000  0.33300  1.0000
  Ti  Ti3       1.0  0.23600  0.75000  0.66700  1.0000
  Ti  Ti4       1.0  0.73600  0.75000  0.83300  1.0000
