data_image0
_chemical_formula_structural       P8Si4
_chemical_formula_sum              "P8 Si4"
_cell_length_a       5.73077
_cell_length_b       5.73077
_cell_length_c       5.73077
_cell_angle_alpha    90
_cell_angle_beta     90
_cell_angle_gamma    90

_space_group_name_H-M_alt    "P 1"
_space_group_IT_number       1

loop_
  _space_group_symop_operation_xyz
  'x, y, z'

loop_
  _atom_site_type_symbol
  _atom_site_label
  _atom_site_symmetry_multiplicity
  _atom_site_fract_x
  _atom_site_fract_y
  _atom_site_fract_z
  _atom_site_occupancy
  P   P1        1.0  0.89100  0.39100  0.10900  1.0000
  P   P2        1.0  0.60900  0.89100  0.10900  1.0000
  P   P3        1.0  0.39100  0.39100  0.39100  1.0000
  P   P4        1.0  0.10900  0.89100  0.39100  1.0000
  P   P5        1.0  0.89100  0.10900  0.60900  1.0000
  P   P6        1.0  0.60900  0.60900  0.60900  1.0000
  P   P7        1.0  0.39100  0.10900  0.89100  1.0000
  P   P8        1.0  0.10900  0.60900  0.89100  1.0000
  Si  Si1       1.0  0.00000  0.00000  0.00000  1.0000
  Si  Si2       1.0  0.50000  0.50000  0.00000  1.0000
  Si  Si3       1.0  0.50000  0.00000  0.50000  1.0000
  Si  Si4       1.0  0.00000  0.50000  0.50000  1.0000
