data_image0
_chemical_formula_structural       Cl2H8N2O4
_chemical_formula_sum              "Cl2 H8 N2 O4"
_cell_length_a       6.28251
_cell_length_b       6.28251
_cell_length_c       3.67274
_cell_angle_alpha    90
_cell_angle_beta     90
_cell_angle_gamma    90

_space_group_name_H-M_alt    "P 1"
_space_group_IT_number       1

loop_
  _space_group_symop_operation_xyz
  'x, y, z'

loop_
  _atom_site_type_symbol
  _atom_site_label
  _atom_site_symmetry_multiplicity
  _atom_site_fract_x
  _atom_site_fract_y
  _atom_site_fract_z
  _atom_site_occupancy
  Cl  Cl1       1.0  0.50000  0.00000  0.11800  1.0000
  Cl  Cl2       1.0  0.00000  0.50000  0.88200  1.0000
  H   H1        1.0  0.04280  0.13100  0.33700  1.0000
  H   H2        1.0  0.36900  0.45700  0.33700  1.0000
  H   H3        1.0  0.63100  0.54300  0.33700  1.0000
  H   H4        1.0  0.95700  0.86900  0.33700  1.0000
  H   H5        1.0  0.86900  0.04280  0.66300  1.0000
  H   H6        1.0  0.54300  0.36900  0.66300  1.0000
  H   H7        1.0  0.45700  0.63100  0.66300  1.0000
  H   H8        1.0  0.13100  0.95700  0.66300  1.0000
  N   N1        1.0  0.00000  0.00000  0.50000  1.0000
  N   N2        1.0  0.50000  0.50000  0.50000  1.0000
  O   O1        1.0  0.14800  0.35200  0.12200  1.0000
  O   O2        1.0  0.85200  0.64800  0.12200  1.0000
  O   O3        1.0  0.64800  0.14800  0.87800  1.0000
  O   O4        1.0  0.35200  0.85200  0.87800  1.0000
