data_image0
_chemical_formula_structural       H8I2Na2O4
_chemical_formula_sum              "H8 I2 Na2 O4"
_cell_length_a       7.01717
_cell_length_b       5.83792
_cell_length_c       7.0367
_cell_angle_alpha    80.7745
_cell_angle_beta     117.622
_cell_angle_gamma    115.238

_space_group_name_H-M_alt    "P 1"
_space_group_IT_number       1

loop_
  _space_group_symop_operation_xyz
  'x, y, z'

loop_
  _atom_site_type_symbol
  _atom_site_label
  _atom_site_symmetry_multiplicity
  _atom_site_fract_x
  _atom_site_fract_y
  _atom_site_fract_z
  _atom_site_occupancy
  H   H1        1.0  0.87900  0.60100  0.13800  1.0000
  H   H2        1.0  0.73400  0.94300  0.13900  1.0000
  H   H3        1.0  0.64800  0.04340  0.26400  1.0000
  H   H4        1.0  0.12900  0.79700  0.27500  1.0000
  H   H5        1.0  0.87100  0.20300  0.72500  1.0000
  H   H6        1.0  0.35200  0.95700  0.73600  1.0000
  H   H7        1.0  0.26600  0.05730  0.86100  1.0000
  H   H8        1.0  0.12100  0.39900  0.86200  1.0000
  I   I1        1.0  0.37500  0.23500  0.21800  1.0000
  I   I2        1.0  0.62500  0.76500  0.78200  1.0000
  Na  Na1       1.0  0.14400  0.32500  0.48100  1.0000
  Na  Na2       1.0  0.85600  0.67500  0.51900  1.0000
  O   O1        1.0  0.00958  0.63100  0.28400  1.0000
  O   O2        1.0  0.77500  0.99600  0.28400  1.0000
  O   O3        1.0  0.22500  0.00420  0.71600  1.0000
  O   O4        1.0  0.99000  0.36900  0.71600  1.0000
