data_image0
_chemical_formula_structural       La2O8Ta2
_chemical_formula_sum              "La2 O8 Ta2"
_cell_length_a       3.95426
_cell_length_b       5.62657
_cell_length_c       7.56241
_cell_angle_alpha    90
_cell_angle_beta     74.8443
_cell_angle_gamma    90

_space_group_name_H-M_alt    "P 1"
_space_group_IT_number       1

loop_
  _space_group_symop_operation_xyz
  'x, y, z'

loop_
  _atom_site_type_symbol
  _atom_site_label
  _atom_site_symmetry_multiplicity
  _atom_site_fract_x
  _atom_site_fract_y
  _atom_site_fract_z
  _atom_site_occupancy
  La  La1       1.0  0.83000  0.82900  0.34100  1.0000
  La  La2       1.0  0.17000  0.32900  0.65900  1.0000
  O   O1        1.0  0.46700  0.93300  0.06560  1.0000
  O   O2        1.0  0.91400  0.24900  0.17200  1.0000
  O   O3        1.0  0.33600  0.55100  0.32800  1.0000
  O   O4        1.0  0.29900  0.07420  0.40200  1.0000
  O   O5        1.0  0.70100  0.57400  0.59800  1.0000
  O   O6        1.0  0.66400  0.05140  0.67200  1.0000
  O   O7        1.0  0.08620  0.74900  0.82800  1.0000
  O   O8        1.0  0.53300  0.43300  0.93400  1.0000
  Ta  Ta1       1.0  0.41400  0.28100  0.17200  1.0000
  Ta  Ta2       1.0  0.58600  0.78100  0.82800  1.0000
