data_image0
_chemical_formula_structural       O8P2Y2
_chemical_formula_sum              "O8 P2 Y2"
_cell_length_a       5.72576
_cell_length_b       5.72576
_cell_length_c       5.72576
_cell_angle_alpha    106.227
_cell_angle_beta     116.174
_cell_angle_gamma    106.227

_space_group_name_H-M_alt    "P 1"
_space_group_IT_number       1

loop_
  _space_group_symop_operation_xyz
  'x, y, z'

loop_
  _atom_site_type_symbol
  _atom_site_label
  _atom_site_symmetry_multiplicity
  _atom_site_fract_x
  _atom_site_fract_y
  _atom_site_fract_z
  _atom_site_occupancy
  O   O1        1.0  0.51700  0.17600  0.34100  1.0000
  O   O2        1.0  0.16500  0.82400  0.34100  1.0000
  O   O3        1.0  0.09060  0.32400  0.41500  1.0000
  O   O4        1.0  0.65900  0.82400  0.48300  1.0000
  O   O5        1.0  0.09060  0.67600  0.76700  1.0000
  O   O6        1.0  0.65900  0.17600  0.83500  1.0000
  O   O7        1.0  0.23300  0.32400  0.90900  1.0000
  O   O8        1.0  0.58500  0.67600  0.90900  1.0000
  P   P1        1.0  0.50000  0.00000  0.50000  1.0000
  P   P2        1.0  0.25000  0.50000  0.75000  1.0000
  Y   Y1        1.0  0.00000  0.00000  0.00000  1.0000
  Y   Y2        1.0  0.75000  0.50000  0.25000  1.0000
