data_image0
_chemical_formula_structural       Ag2Au2Te8
_chemical_formula_sum              "Ag2 Au2 Te8"
_cell_length_a       9.1052
_cell_length_b       4.53235
_cell_length_c       14.9285
_cell_angle_alpha    90
_cell_angle_beta     145.721
_cell_angle_gamma    90

_space_group_name_H-M_alt    "P 1"
_space_group_IT_number       1

loop_
  _space_group_symop_operation_xyz
  'x, y, z'

loop_
  _atom_site_type_symbol
  _atom_site_label
  _atom_site_symmetry_multiplicity
  _atom_site_fract_x
  _atom_site_fract_y
  _atom_site_fract_z
  _atom_site_occupancy
  Ag  Ag1       1.0  0.00000  0.51200  0.25000  1.0000
  Ag  Ag2       1.0  0.00000  0.48800  0.75000  1.0000
  Au  Au1       1.0  0.00000  0.00000  0.00000  1.0000
  Au  Au2       1.0  0.00000  0.00000  0.50000  1.0000
  Te  Te1       1.0  0.70700  0.96800  0.00270  1.0000
  Te  Te2       1.0  0.28500  0.40800  0.23800  1.0000
  Te  Te3       1.0  0.71500  0.40800  0.26200  1.0000
  Te  Te4       1.0  0.29300  0.96800  0.49700  1.0000
  Te  Te5       1.0  0.70700  0.03210  0.50300  1.0000
  Te  Te6       1.0  0.28500  0.59200  0.73800  1.0000
  Te  Te7       1.0  0.71500  0.59200  0.76200  1.0000
  Te  Te8       1.0  0.29300  0.03210  0.99700  1.0000
