data_image0
_chemical_formula_structural       Cd2O8S2
_chemical_formula_sum              "Cd2 O8 S2"
_cell_length_a       4.68388
_cell_length_b       4.7083
_cell_length_c       6.55782
_cell_angle_alpha    90
_cell_angle_beta     90
_cell_angle_gamma    90

_space_group_name_H-M_alt    "P 1"
_space_group_IT_number       1

loop_
  _space_group_symop_operation_xyz
  'x, y, z'

loop_
  _atom_site_type_symbol
  _atom_site_label
  _atom_site_symmetry_multiplicity
  _atom_site_fract_x
  _atom_site_fract_y
  _atom_site_fract_z
  _atom_site_occupancy
  Cd  Cd1       1.0  0.14400  0.24900  0.00000  1.0000
  Cd  Cd2       1.0  0.85600  0.74900  0.50000  1.0000
  O   O1        1.0  0.69900  0.04360  0.00000  1.0000
  O   O2        1.0  0.35300  0.67600  0.00000  1.0000
  O   O3        1.0  0.80400  0.59600  0.18000  1.0000
  O   O4        1.0  0.19600  0.09550  0.32000  1.0000
  O   O5        1.0  0.64700  0.17600  0.50000  1.0000
  O   O6        1.0  0.30100  0.54400  0.50000  1.0000
  O   O7        1.0  0.19600  0.09550  0.68000  1.0000
  O   O8        1.0  0.80400  0.59600  0.82000  1.0000
  S   S1        1.0  0.66300  0.73100  0.00000  1.0000
  S   S2        1.0  0.33700  0.23100  0.50000  1.0000
