data_image0
_chemical_formula_structural       Cr2Eu2O8
_chemical_formula_sum              "Cr2 Eu2 O8"
_cell_length_a       6.03269
_cell_length_b       6.03269
_cell_length_c       6.03269
_cell_angle_alpha    105.875
_cell_angle_beta     116.93
_cell_angle_gamma    105.875

_space_group_name_H-M_alt    "P 1"
_space_group_IT_number       1

loop_
  _space_group_symop_operation_xyz
  'x, y, z'

loop_
  _atom_site_type_symbol
  _atom_site_label
  _atom_site_symmetry_multiplicity
  _atom_site_fract_x
  _atom_site_fract_y
  _atom_site_fract_z
  _atom_site_occupancy
  Cr  Cr1       1.0  0.50000  0.00000  0.50000  1.0000
  Cr  Cr2       1.0  0.25000  0.50000  0.75000  1.0000
  Eu  Eu1       1.0  0.00000  0.00000  0.00000  1.0000
  Eu  Eu2       1.0  0.75000  0.50000  0.25000  1.0000
  O   O1        1.0  0.51900  0.18000  0.33900  1.0000
  O   O2        1.0  0.15900  0.82000  0.33900  1.0000
  O   O3        1.0  0.08900  0.32000  0.40900  1.0000
  O   O4        1.0  0.66100  0.82000  0.48100  1.0000
  O   O5        1.0  0.08900  0.68000  0.76900  1.0000
  O   O6        1.0  0.66100  0.18000  0.84100  1.0000
  O   O7        1.0  0.23100  0.32000  0.91100  1.0000
  O   O8        1.0  0.59100  0.68000  0.91100  1.0000
