data_image0
_chemical_formula_structural       Cl4Cu2H8O4
_chemical_formula_sum              "Cl4 Cu2 H8 O4"
_cell_length_a       8.00535
_cell_length_b       3.70993
_cell_length_c       7.30215
_cell_angle_alpha    90
_cell_angle_beta     90
_cell_angle_gamma    90

_space_group_name_H-M_alt    "P 1"
_space_group_IT_number       1

loop_
  _space_group_symop_operation_xyz
  'x, y, z'

loop_
  _atom_site_type_symbol
  _atom_site_label
  _atom_site_symmetry_multiplicity
  _atom_site_fract_x
  _atom_site_fract_y
  _atom_site_fract_z
  _atom_site_occupancy
  Cl  Cl1       1.0  0.50000  0.37100  0.24900  1.0000
  Cl  Cl2       1.0  0.00000  0.37100  0.25100  1.0000
  Cl  Cl3       1.0  0.00000  0.62900  0.74900  1.0000
  Cl  Cl4       1.0  0.50000  0.62900  0.75100  1.0000
  Cu  Cu1       1.0  0.00000  0.00000  0.00000  1.0000
  Cu  Cu2       1.0  0.50000  0.00000  0.50000  1.0000
  H   H1        1.0  0.31200  0.13600  0.08680  1.0000
  H   H2        1.0  0.68800  0.13600  0.08680  1.0000
  H   H3        1.0  0.18800  0.13600  0.41300  1.0000
  H   H4        1.0  0.81200  0.13600  0.41300  1.0000
  H   H5        1.0  0.18800  0.86400  0.58700  1.0000
  H   H6        1.0  0.81200  0.86400  0.58700  1.0000
  H   H7        1.0  0.31200  0.86400  0.91300  1.0000
  H   H8        1.0  0.68800  0.86400  0.91300  1.0000
  O   O1        1.0  0.24000  0.00000  0.00000  1.0000
  O   O2        1.0  0.76000  0.00000  0.00000  1.0000
  O   O3        1.0  0.26000  0.00000  0.50000  1.0000
  O   O4        1.0  0.74000  0.00000  0.50000  1.0000
