data_image0
_chemical_formula_structural       Mn2O8U2
_chemical_formula_sum              "Mn2 O8 U2"
_cell_length_a       5.88678
_cell_length_b       5.88678
_cell_length_c       5.88678
_cell_angle_alpha    111.594
_cell_angle_beta     110.308
_cell_angle_gamma    106.553

_space_group_name_H-M_alt    "P 1"
_space_group_IT_number       1

loop_
  _space_group_symop_operation_xyz
  'x, y, z'

loop_
  _atom_site_type_symbol
  _atom_site_label
  _atom_site_symmetry_multiplicity
  _atom_site_fract_x
  _atom_site_fract_y
  _atom_site_fract_z
  _atom_site_occupancy
  Mn  Mn1       1.0  0.00000  0.50000  0.50000  1.0000
  Mn  Mn2       1.0  0.50000  0.00000  0.50000  1.0000
  O   O1        1.0  0.20800  0.01540  0.19300  1.0000
  O   O2        1.0  0.67700  0.48500  0.19300  1.0000
  O   O3        1.0  0.22900  0.54600  0.27500  1.0000
  O   O4        1.0  0.77100  0.04580  0.31700  1.0000
  O   O5        1.0  0.22900  0.95400  0.68300  1.0000
  O   O6        1.0  0.77100  0.45400  0.72500  1.0000
  O   O7        1.0  0.32300  0.51500  0.80700  1.0000
  O   O8        1.0  0.79200  0.98500  0.80700  1.0000
  U   U1        1.0  0.77000  0.75000  0.02010  1.0000
  U   U2        1.0  0.23000  0.25000  0.98000  1.0000
