data_image0
_chemical_formula_structural       Cr2Gd2O8
_chemical_formula_sum              "Cr2 Gd2 O8"
_cell_length_a       5.96959
_cell_length_b       5.96959
_cell_length_c       5.96959
_cell_angle_alpha    106.099
_cell_angle_beta     116.448
_cell_angle_gamma    106.099

_space_group_name_H-M_alt    "P 1"
_space_group_IT_number       1

loop_
  _space_group_symop_operation_xyz
  'x, y, z'

loop_
  _atom_site_type_symbol
  _atom_site_label
  _atom_site_symmetry_multiplicity
  _atom_site_fract_x
  _atom_site_fract_y
  _atom_site_fract_z
  _atom_site_occupancy
  Cr  Cr1       1.0  0.50000  0.00000  0.50000  1.0000
  Cr  Cr2       1.0  0.25000  0.50000  0.75000  1.0000
  Gd  Gd1       1.0  0.00000  0.00000  0.00000  1.0000
  Gd  Gd2       1.0  0.75000  0.50000  0.25000  1.0000
  O   O1        1.0  0.14200  0.81500  0.32800  1.0000
  O   O2        1.0  0.51300  0.18500  0.32800  1.0000
  O   O3        1.0  0.07780  0.31500  0.39200  1.0000
  O   O4        1.0  0.67200  0.81500  0.48700  1.0000
  O   O5        1.0  0.07780  0.68500  0.76300  1.0000
  O   O6        1.0  0.67200  0.18500  0.85800  1.0000
  O   O7        1.0  0.23700  0.31500  0.92200  1.0000
  O   O8        1.0  0.60800  0.68500  0.92200  1.0000
