data_image0
_chemical_formula_structural       H8N4Na4
_chemical_formula_sum              "H8 N4 Na4"
_cell_length_a       5.91175
_cell_length_b       5.91175
_cell_length_c       6.3803
_cell_angle_alpha    113.939
_cell_angle_beta     113.939
_cell_angle_gamma    97.1325

_space_group_name_H-M_alt    "P 1"
_space_group_IT_number       1

loop_
  _space_group_symop_operation_xyz
  'x, y, z'

loop_
  _atom_site_type_symbol
  _atom_site_label
  _atom_site_symmetry_multiplicity
  _atom_site_fract_x
  _atom_site_fract_y
  _atom_site_fract_z
  _atom_site_occupancy
  H   H1        1.0  0.43500  0.36000  0.14400  1.0000
  H   H2        1.0  0.70900  0.78500  0.14400  1.0000
  H   H3        1.0  0.81500  0.39000  0.35600  1.0000
  H   H4        1.0  0.54100  0.96500  0.35600  1.0000
  H   H5        1.0  0.61000  0.18500  0.64400  1.0000
  H   H6        1.0  0.03460  0.45900  0.64400  1.0000
  H   H7        1.0  0.21500  0.29100  0.85600  1.0000
  H   H8        1.0  0.64000  0.56500  0.85600  1.0000
  N   N1        1.0  0.24200  0.24200  0.00000  1.0000
  N   N2        1.0  0.75800  0.75800  0.00000  1.0000
  N   N3        1.0  0.00797  0.50800  0.50000  1.0000
  N   N4        1.0  0.49200  0.99200  0.50000  1.0000
  Na  Na1       1.0  0.10300  0.60300  0.20700  1.0000
  Na  Na2       1.0  0.14700  0.14700  0.29300  1.0000
  Na  Na3       1.0  0.85300  0.85300  0.70700  1.0000
  Na  Na4       1.0  0.39700  0.89700  0.79300  1.0000
