data_image0
_chemical_formula_structural       Au2Cl8Rb2
_chemical_formula_sum              "Au2 Cl8 Rb2"
_cell_length_a       5.95894
_cell_length_b       6.98998
_cell_length_c       9.851
_cell_angle_alpha    101.181
_cell_angle_beta     90
_cell_angle_gamma    115.23

_space_group_name_H-M_alt    "P 1"
_space_group_IT_number       1

loop_
  _space_group_symop_operation_xyz
  'x, y, z'

loop_
  _atom_site_type_symbol
  _atom_site_label
  _atom_site_symmetry_multiplicity
  _atom_site_fract_x
  _atom_site_fract_y
  _atom_site_fract_z
  _atom_site_occupancy
  Au  Au1       1.0  0.00000  0.00000  0.00000  1.0000
  Au  Au2       1.0  0.50000  0.00000  0.50000  1.0000
  Cl  Cl1       1.0  0.20800  0.37300  0.06990  1.0000
  Cl  Cl2       1.0  0.27800  0.96200  0.14600  1.0000
  Cl  Cl3       1.0  0.81600  0.03760  0.35400  1.0000
  Cl  Cl4       1.0  0.33400  0.62700  0.43000  1.0000
  Cl  Cl5       1.0  0.66600  0.37300  0.57000  1.0000
  Cl  Cl6       1.0  0.18400  0.96200  0.64600  1.0000
  Cl  Cl7       1.0  0.72200  0.03760  0.85400  1.0000
  Cl  Cl8       1.0  0.79200  0.62700  0.93000  1.0000
  Rb  Rb1       1.0  0.77400  0.50000  0.25000  1.0000
  Rb  Rb2       1.0  0.22600  0.50000  0.75000  1.0000
