data_image0
_chemical_formula_structural       Ba2F8Mn2
_chemical_formula_sum              "Ba2 F8 Mn2"
_cell_length_a       4.20382
_cell_length_b       5.86766
_cell_length_c       7.6621
_cell_angle_alpha    90
_cell_angle_beta     74.0782
_cell_angle_gamma    90

_space_group_name_H-M_alt    "P 1"
_space_group_IT_number       1

loop_
  _space_group_symop_operation_xyz
  'x, y, z'

loop_
  _atom_site_type_symbol
  _atom_site_label
  _atom_site_symmetry_multiplicity
  _atom_site_fract_x
  _atom_site_fract_y
  _atom_site_fract_z
  _atom_site_occupancy
  Ba  Ba1       1.0  0.84900  0.45500  0.30100  1.0000
  Ba  Ba2       1.0  0.15100  0.95500  0.69900  1.0000
  F   F1        1.0  0.46300  0.34300  0.07420  1.0000
  F   F2        1.0  0.92500  0.01050  0.15100  1.0000
  F   F3        1.0  0.32700  0.72200  0.34600  1.0000
  F   F4        1.0  0.29700  0.20200  0.40700  1.0000
  F   F5        1.0  0.70300  0.70200  0.59300  1.0000
  F   F6        1.0  0.67300  0.22200  0.65400  1.0000
  F   F7        1.0  0.07540  0.51000  0.84900  1.0000
  F   F8        1.0  0.53700  0.84300  0.92600  1.0000
  Mn  Mn1       1.0  0.41200  0.99600  0.17500  1.0000
  Mn  Mn2       1.0  0.58800  0.49600  0.82500  1.0000
