data_image0
_chemical_formula_structural       Nb8Se4
_chemical_formula_sum              "Nb8 Se4"
_cell_length_a       3.44204
_cell_length_b       7.25974
_cell_length_c       9.3749
_cell_angle_alpha    92.3346
_cell_angle_beta     90
_cell_angle_gamma    103.713

_space_group_name_H-M_alt    "P 1"
_space_group_IT_number       1

loop_
  _space_group_symop_operation_xyz
  'x, y, z'

loop_
  _atom_site_type_symbol
  _atom_site_label
  _atom_site_symmetry_multiplicity
  _atom_site_fract_x
  _atom_site_fract_y
  _atom_site_fract_z
  _atom_site_occupancy
  Nb  Nb1       1.0  0.21600  0.43300  0.12500  1.0000
  Nb  Nb2       1.0  0.41300  0.82700  0.35400  1.0000
  Nb  Nb3       1.0  0.74300  0.48700  0.37700  1.0000
  Nb  Nb4       1.0  0.08410  0.16800  0.39900  1.0000
  Nb  Nb5       1.0  0.91600  0.83200  0.60100  1.0000
  Nb  Nb6       1.0  0.25700  0.51300  0.62300  1.0000
  Nb  Nb7       1.0  0.58700  0.17300  0.64600  1.0000
  Nb  Nb8       1.0  0.78400  0.56700  0.87500  1.0000
  Se  Se1       1.0  0.86000  0.72000  0.13800  1.0000
  Se  Se2       1.0  0.57500  0.14900  0.18500  1.0000
  Se  Se3       1.0  0.42500  0.85100  0.81500  1.0000
  Se  Se4       1.0  0.14000  0.28000  0.86200  1.0000
