data_image0
_chemical_formula_structural       K2O8Ru2
_chemical_formula_sum              "K2 O8 Ru2"
_cell_length_a       5.53417
_cell_length_b       5.53417
_cell_length_c       7.49581
_cell_angle_alpha    111.663
_cell_angle_beta     111.663
_cell_angle_gamma    90

_space_group_name_H-M_alt    "P 1"
_space_group_IT_number       1

loop_
  _space_group_symop_operation_xyz
  'x, y, z'

loop_
  _atom_site_type_symbol
  _atom_site_label
  _atom_site_symmetry_multiplicity
  _atom_site_fract_x
  _atom_site_fract_y
  _atom_site_fract_z
  _atom_site_occupancy
  K   K1        1.0  0.50000  0.50000  0.00000  1.0000
  K   K2        1.0  0.75000  0.25000  0.50000  1.0000
  O   O1        1.0  0.31300  0.19200  0.15500  1.0000
  O   O2        1.0  0.84200  0.96300  0.15500  1.0000
  O   O3        1.0  0.93700  0.55800  0.34500  1.0000
  O   O4        1.0  0.40800  0.78700  0.34500  1.0000
  O   O5        1.0  0.21300  0.06290  0.65500  1.0000
  O   O6        1.0  0.44200  0.59200  0.65500  1.0000
  O   O7        1.0  0.80800  0.15800  0.84500  1.0000
  O   O8        1.0  0.03680  0.68700  0.84500  1.0000
  Ru  Ru1       1.0  0.00000  0.00000  0.00000  1.0000
  Ru  Ru2       1.0  0.25000  0.75000  0.50000  1.0000
