data_image0
_chemical_formula_structural       Dy2O8P2
_chemical_formula_sum              "Dy2 O8 P2"
_cell_length_a       5.71879
_cell_length_b       5.71879
_cell_length_c       5.71879
_cell_angle_alpha    106.074
_cell_angle_beta     116.503
_cell_angle_gamma    106.074

_space_group_name_H-M_alt    "P 1"
_space_group_IT_number       1

loop_
  _space_group_symop_operation_xyz
  'x, y, z'

loop_
  _atom_site_type_symbol
  _atom_site_label
  _atom_site_symmetry_multiplicity
  _atom_site_fract_x
  _atom_site_fract_y
  _atom_site_fract_z
  _atom_site_occupancy
  Dy  Dy1       1.0  0.00000  0.00000  0.00000  1.0000
  Dy  Dy2       1.0  0.75000  0.50000  0.25000  1.0000
  O   O1        1.0  0.51500  0.17600  0.34000  1.0000
  O   O2        1.0  0.16400  0.82400  0.34000  1.0000
  O   O3        1.0  0.08950  0.32400  0.41400  1.0000
  O   O4        1.0  0.66000  0.82400  0.48500  1.0000
  O   O5        1.0  0.08950  0.67600  0.76500  1.0000
  O   O6        1.0  0.66000  0.17600  0.83600  1.0000
  O   O7        1.0  0.23500  0.32400  0.91000  1.0000
  O   O8        1.0  0.58600  0.67600  0.91000  1.0000
  P   P1        1.0  0.50000  1.00000  0.50000  1.0000
  P   P2        1.0  0.25000  0.50000  0.75000  1.0000
