data_image0
_chemical_formula_structural       Cl8Hg4
_chemical_formula_sum              "Cl8 Hg4"
_cell_length_a       5.99165
_cell_length_b       12.9626
_cell_length_c       4.48452
_cell_angle_alpha    90
_cell_angle_beta     90
_cell_angle_gamma    90

_space_group_name_H-M_alt    "P 1"
_space_group_IT_number       1

loop_
  _space_group_symop_operation_xyz
  'x, y, z'

loop_
  _atom_site_type_symbol
  _atom_site_label
  _atom_site_symmetry_multiplicity
  _atom_site_fract_x
  _atom_site_fract_y
  _atom_site_fract_z
  _atom_site_occupancy
  Cl  Cl1       1.0  0.25000  0.26700  0.12400  1.0000
  Cl  Cl2       1.0  0.75000  0.00947  0.21900  1.0000
  Cl  Cl3       1.0  0.75000  0.50900  0.28100  1.0000
  Cl  Cl4       1.0  0.25000  0.76700  0.37600  1.0000
  Cl  Cl5       1.0  0.75000  0.23300  0.62400  1.0000
  Cl  Cl6       1.0  0.25000  0.49100  0.71900  1.0000
  Cl  Cl7       1.0  0.25000  0.99100  0.78100  1.0000
  Cl  Cl8       1.0  0.75000  0.73300  0.87600  1.0000
  Hg  Hg1       1.0  0.25000  0.62700  0.05510  1.0000
  Hg  Hg2       1.0  0.25000  0.12700  0.44500  1.0000
  Hg  Hg3       1.0  0.75000  0.87300  0.55500  1.0000
  Hg  Hg4       1.0  0.75000  0.37300  0.94500  1.0000
