data_image0
_chemical_formula_structural       Cl8Eu4
_chemical_formula_sum              "Cl8 Eu4"
_cell_length_a       8.75515
_cell_length_b       7.36323
_cell_length_c       4.4059
_cell_angle_alpha    90
_cell_angle_beta     90
_cell_angle_gamma    90

_space_group_name_H-M_alt    "P 1"
_space_group_IT_number       1

loop_
  _space_group_symop_operation_xyz
  'x, y, z'

loop_
  _atom_site_type_symbol
  _atom_site_label
  _atom_site_symmetry_multiplicity
  _atom_site_fract_x
  _atom_site_fract_y
  _atom_site_fract_z
  _atom_site_occupancy
  Cl  Cl1       1.0  0.83400  0.02330  0.25000  1.0000
  Cl  Cl2       1.0  0.42800  0.14300  0.25000  1.0000
  Cl  Cl3       1.0  0.66600  0.52300  0.25000  1.0000
  Cl  Cl4       1.0  0.07210  0.64300  0.25000  1.0000
  Cl  Cl5       1.0  0.92800  0.35700  0.75000  1.0000
  Cl  Cl6       1.0  0.33400  0.47700  0.75000  1.0000
  Cl  Cl7       1.0  0.57200  0.85700  0.75000  1.0000
  Cl  Cl8       1.0  0.16600  0.97700  0.75000  1.0000
  Eu  Eu1       1.0  0.11400  0.24900  0.25000  1.0000
  Eu  Eu2       1.0  0.38600  0.74900  0.25000  1.0000
  Eu  Eu3       1.0  0.61400  0.25100  0.75000  1.0000
  Eu  Eu4       1.0  0.88600  0.75100  0.75000  1.0000
