data_image0
_chemical_formula_structural       Cd2Mo2O8
_chemical_formula_sum              "Cd2 Mo2 O8"
_cell_length_a       5.16339
_cell_length_b       5.16339
_cell_length_c       6.6799
_cell_angle_alpha    112.736
_cell_angle_beta     112.736
_cell_angle_gamma    90

_space_group_name_H-M_alt    "P 1"
_space_group_IT_number       1

loop_
  _space_group_symop_operation_xyz
  'x, y, z'

loop_
  _atom_site_type_symbol
  _atom_site_label
  _atom_site_symmetry_multiplicity
  _atom_site_fract_x
  _atom_site_fract_y
  _atom_site_fract_z
  _atom_site_occupancy
  Cd  Cd1       1.0  0.50000  0.50000  0.00000  1.0000
  Cd  Cd2       1.0  0.75000  0.25000  0.50000  1.0000
  Mo  Mo1       1.0  0.00000  0.00000  0.00000  1.0000
  Mo  Mo2       1.0  0.25000  0.75000  0.50000  1.0000
  O   O1        1.0  0.33300  0.24800  0.17500  1.0000
  O   O2        1.0  0.84200  0.92700  0.17500  1.0000
  O   O3        1.0  0.91700  0.50200  0.32500  1.0000
  O   O4        1.0  0.40800  0.82300  0.32500  1.0000
  O   O5        1.0  0.17700  0.08250  0.67500  1.0000
  O   O6        1.0  0.49800  0.59200  0.67500  1.0000
  O   O7        1.0  0.75200  0.15800  0.82500  1.0000
  O   O8        1.0  0.07280  0.66700  0.82500  1.0000
