data_image0
_chemical_formula_structural       Bi4I4S4
_chemical_formula_sum              "Bi4 I4 S4"
_cell_length_a       8.81824
_cell_length_b       10.7882
_cell_length_c       4.20052
_cell_angle_alpha    90
_cell_angle_beta     90
_cell_angle_gamma    90

_space_group_name_H-M_alt    "P 1"
_space_group_IT_number       1

loop_
  _space_group_symop_operation_xyz
  'x, y, z'

loop_
  _atom_site_type_symbol
  _atom_site_label
  _atom_site_symmetry_multiplicity
  _atom_site_fract_x
  _atom_site_fract_y
  _atom_site_fract_z
  _atom_site_occupancy
  Bi  Bi1       1.0  0.11800  0.12400  0.25000  1.0000
  Bi  Bi2       1.0  0.61800  0.37600  0.25000  1.0000
  Bi  Bi3       1.0  0.38200  0.62400  0.75000  1.0000
  Bi  Bi4       1.0  0.88200  0.87600  0.75000  1.0000
  I   I1        1.0  0.02040  0.67800  0.25000  1.0000
  I   I2        1.0  0.52000  0.82200  0.25000  1.0000
  I   I3        1.0  0.48000  0.17800  0.75000  1.0000
  I   I4        1.0  0.98000  0.32200  0.75000  1.0000
  S   S1        1.0  0.84000  0.04040  0.25000  1.0000
  S   S2        1.0  0.34000  0.46000  0.25000  1.0000
  S   S3        1.0  0.66000  0.54000  0.75000  1.0000
  S   S4        1.0  0.16000  0.96000  0.75000  1.0000
