data_image0
_chemical_formula_structural       O8Sc2V2
_chemical_formula_sum              "O8 Sc2 V2"
_cell_length_a       5.68571
_cell_length_b       5.68571
_cell_length_c       5.68571
_cell_angle_alpha    106.91
_cell_angle_beta     114.725
_cell_angle_gamma    106.91

_space_group_name_H-M_alt    "P 1"
_space_group_IT_number       1

loop_
  _space_group_symop_operation_xyz
  'x, y, z'

loop_
  _atom_site_type_symbol
  _atom_site_label
  _atom_site_symmetry_multiplicity
  _atom_site_fract_x
  _atom_site_fract_y
  _atom_site_fract_z
  _atom_site_occupancy
  O   O1        1.0  0.12500  0.80600  0.31900  1.0000
  O   O2        1.0  0.51400  0.19400  0.31900  1.0000
  O   O3        1.0  0.06920  0.30600  0.37500  1.0000
  O   O4        1.0  0.68100  0.80600  0.48600  1.0000
  O   O5        1.0  0.06920  0.69400  0.76400  1.0000
  O   O6        1.0  0.68100  0.19400  0.87500  1.0000
  O   O7        1.0  0.23600  0.30600  0.93100  1.0000
  O   O8        1.0  0.62500  0.69400  0.93100  1.0000
  Sc  Sc1       1.0  0.00000  0.00000  0.00000  1.0000
  Sc  Sc2       1.0  0.75000  0.50000  0.25000  1.0000
  V   V1        1.0  0.50000  0.00000  0.50000  1.0000
  V   V2        1.0  0.25000  0.50000  0.75000  1.0000
