data_image0
_chemical_formula_structural       Ba2Fe4S6
_chemical_formula_sum              "Ba2 Fe4 S6"
_cell_length_a       5.16331
_cell_length_b       6.87103
_cell_length_c       6.87103
_cell_angle_alpha    78.7175
_cell_angle_beta     90
_cell_angle_gamma    90

_space_group_name_H-M_alt    "P 1"
_space_group_IT_number       1

loop_
  _space_group_symop_operation_xyz
  'x, y, z'

loop_
  _atom_site_type_symbol
  _atom_site_label
  _atom_site_symmetry_multiplicity
  _atom_site_fract_x
  _atom_site_fract_y
  _atom_site_fract_z
  _atom_site_occupancy
  Ba  Ba1       1.0  0.75000  0.31900  0.31900  1.0000
  Ba  Ba2       1.0  0.25000  0.68100  0.68100  1.0000
  Fe  Fe1       1.0  0.00000  0.85400  0.14600  1.0000
  Fe  Fe2       1.0  0.50000  0.85400  0.14600  1.0000
  Fe  Fe3       1.0  0.00000  0.14600  0.85400  1.0000
  Fe  Fe4       1.0  0.50000  0.14600  0.85400  1.0000
  S   S1        1.0  0.25000  0.11200  0.11200  1.0000
  S   S2        1.0  0.25000  0.59800  0.18100  1.0000
  S   S3        1.0  0.75000  0.81900  0.40200  1.0000
  S   S4        1.0  0.25000  0.18100  0.59800  1.0000
  S   S5        1.0  0.75000  0.40200  0.81900  1.0000
  S   S6        1.0  0.75000  0.88800  0.88800  1.0000
