data_image0
_chemical_formula_structural       B4Rh8
_chemical_formula_sum              "B4 Rh8"
_cell_length_a       5.35962
_cell_length_b       3.8363
_cell_length_c       6.81309
_cell_angle_alpha    90
_cell_angle_beta     90
_cell_angle_gamma    90

_space_group_name_H-M_alt    "P 1"
_space_group_IT_number       1

loop_
  _space_group_symop_operation_xyz
  'x, y, z'

loop_
  _atom_site_type_symbol
  _atom_site_label
  _atom_site_symmetry_multiplicity
  _atom_site_fract_x
  _atom_site_fract_y
  _atom_site_fract_z
  _atom_site_occupancy
  B   B1        1.0  0.76900  0.75000  0.10100  1.0000
  B   B2        1.0  0.26900  0.75000  0.39900  1.0000
  B   B3        1.0  0.73100  0.25000  0.60100  1.0000
  B   B4        1.0  0.23100  0.25000  0.89900  1.0000
  Rh  Rh1       1.0  0.37600  0.75000  0.09630  1.0000
  Rh  Rh2       1.0  0.00548  0.25000  0.15100  1.0000
  Rh  Rh3       1.0  0.50500  0.25000  0.34900  1.0000
  Rh  Rh4       1.0  0.87600  0.75000  0.40400  1.0000
  Rh  Rh5       1.0  0.12400  0.25000  0.59600  1.0000
  Rh  Rh6       1.0  0.49500  0.75000  0.65100  1.0000
  Rh  Rh7       1.0  0.99500  0.75000  0.84900  1.0000
  Rh  Rh8       1.0  0.62400  0.25000  0.90400  1.0000
