data_image0
_chemical_formula_structural       I2K2O8
_chemical_formula_sum              "I2 K2 O8"
_cell_length_a       5.68329
_cell_length_b       5.68329
_cell_length_c       7.41828
_cell_angle_alpha    112.523
_cell_angle_beta     112.523
_cell_angle_gamma    90

_space_group_name_H-M_alt    "P 1"
_space_group_IT_number       1

loop_
  _space_group_symop_operation_xyz
  'x, y, z'

loop_
  _atom_site_type_symbol
  _atom_site_label
  _atom_site_symmetry_multiplicity
  _atom_site_fract_x
  _atom_site_fract_y
  _atom_site_fract_z
  _atom_site_occupancy
  I   I1        1.0  0.50000  0.50000  0.00000  1.0000
  I   I2        1.0  0.75000  0.25000  0.50000  1.0000
  K   K1        1.0  0.00000  0.00000  0.00000  1.0000
  K   K2        1.0  0.25000  0.75000  0.50000  1.0000
  O   O1        1.0  0.80500  0.44500  0.16100  1.0000
  O   O2        1.0  0.35600  0.71600  0.16100  1.0000
  O   O3        1.0  0.89400  0.03420  0.33900  1.0000
  O   O4        1.0  0.44500  0.30500  0.33900  1.0000
  O   O5        1.0  0.69500  0.10600  0.66100  1.0000
  O   O6        1.0  0.96600  0.55500  0.66100  1.0000
  O   O7        1.0  0.28400  0.19500  0.83900  1.0000
  O   O8        1.0  0.55500  0.64400  0.83900  1.0000
