data_image0
_chemical_formula_structural       Cr2O8Pr2
_chemical_formula_sum              "Cr2 O8 Pr2"
_cell_length_a       6.11698
_cell_length_b       6.11698
_cell_length_c       6.11698
_cell_angle_alpha    106.046
_cell_angle_beta     116.562
_cell_angle_gamma    106.046

_space_group_name_H-M_alt    "P 1"
_space_group_IT_number       1

loop_
  _space_group_symop_operation_xyz
  'x, y, z'

loop_
  _atom_site_type_symbol
  _atom_site_label
  _atom_site_symmetry_multiplicity
  _atom_site_fract_x
  _atom_site_fract_y
  _atom_site_fract_z
  _atom_site_occupancy
  Cr  Cr1       1.0  0.50000  0.00000  0.50000  1.0000
  Cr  Cr2       1.0  0.25000  0.50000  0.75000  1.0000
  O   O1        1.0  0.15100  0.81900  0.33300  1.0000
  O   O2        1.0  0.51400  0.18100  0.33300  1.0000
  O   O3        1.0  0.08250  0.31900  0.40100  1.0000
  O   O4        1.0  0.66700  0.81900  0.48600  1.0000
  O   O5        1.0  0.08250  0.68100  0.76400  1.0000
  O   O6        1.0  0.66700  0.18100  0.84900  1.0000
  O   O7        1.0  0.23600  0.31900  0.91700  1.0000
  O   O8        1.0  0.59900  0.68100  0.91700  1.0000
  Pr  Pr1       1.0  0.00000  0.00000  0.00000  1.0000
  Pr  Pr2       1.0  0.75000  0.50000  0.25000  1.0000
