data_image0
_chemical_formula_structural       Cl4H8O4Sr2
_chemical_formula_sum              "Cl4 H8 O4 Sr2"
_cell_length_a       6.40504
_cell_length_b       6.65786
_cell_length_c       6.6074
_cell_angle_alpha    104.103
_cell_angle_beta     90
_cell_angle_gamma    118.752

_space_group_name_H-M_alt    "P 1"
_space_group_IT_number       1

loop_
  _space_group_symop_operation_xyz
  'x, y, z'

loop_
  _atom_site_type_symbol
  _atom_site_label
  _atom_site_symmetry_multiplicity
  _atom_site_fract_x
  _atom_site_fract_y
  _atom_site_fract_z
  _atom_site_occupancy
  Cl  Cl1       1.0  0.05450  0.29300  0.16200  1.0000
  Cl  Cl2       1.0  0.76100  0.70700  0.33800  1.0000
  Cl  Cl3       1.0  0.23900  0.29300  0.66200  1.0000
  Cl  Cl4       1.0  0.94500  0.70700  0.83800  1.0000
  H   H1        1.0  0.64500  0.38500  0.05830  1.0000
  H   H2        1.0  0.57200  0.75200  0.12500  1.0000
  H   H3        1.0  0.82000  0.24800  0.37500  1.0000
  H   H4        1.0  0.26000  0.61500  0.44200  1.0000
  H   H5        1.0  0.74000  0.38500  0.55800  1.0000
  H   H6        1.0  0.18000  0.75200  0.62500  1.0000
  H   H7        1.0  0.42800  0.24800  0.87500  1.0000
  H   H8        1.0  0.35500  0.61500  0.94200  1.0000
  O   O1        1.0  0.47200  0.77800  0.02850  1.0000
  O   O2        1.0  0.69400  0.22200  0.47100  1.0000
  O   O3        1.0  0.30600  0.77800  0.52900  1.0000
  O   O4        1.0  0.52800  0.22200  0.97100  1.0000
  Sr  Sr1       1.0  0.26100  0.00000  0.25000  1.0000
  Sr  Sr2       1.0  0.73900  0.00000  0.75000  1.0000
