data_image0
_chemical_formula_structural       Hg2O8S2
_chemical_formula_sum              "Hg2 O8 S2"
_cell_length_a       6.61984
_cell_length_b       4.76452
_cell_length_c       4.80668
_cell_angle_alpha    90
_cell_angle_beta     89.8766
_cell_angle_gamma    90

_space_group_name_H-M_alt    "P 1"
_space_group_IT_number       1

loop_
  _space_group_symop_operation_xyz
  'x, y, z'

loop_
  _atom_site_type_symbol
  _atom_site_label
  _atom_site_symmetry_multiplicity
  _atom_site_fract_x
  _atom_site_fract_y
  _atom_site_fract_z
  _atom_site_occupancy
  Hg  Hg1       1.0  0.00012  0.18100  0.27600  1.0000
  Hg  Hg2       1.0  0.50000  0.81900  0.77600  1.0000
  O   O1        1.0  0.00329  0.71700  0.07030  1.0000
  O   O2        1.0  0.67900  0.18700  0.12500  1.0000
  O   O3        1.0  0.32400  0.19300  0.12700  1.0000
  O   O4        1.0  0.50500  0.63400  0.21800  1.0000
  O   O5        1.0  0.50300  0.28300  0.57000  1.0000
  O   O6        1.0  0.17900  0.81300  0.62500  1.0000
  O   O7        1.0  0.82400  0.80700  0.62700  1.0000
  O   O8        1.0  0.00547  0.36600  0.71800  1.0000
  S   S1        1.0  0.50300  0.32500  0.26500  1.0000
  S   S2        1.0  0.00258  0.67500  0.76500  1.0000
