data_image0
_chemical_formula_structural       Cl4I4Sn4
_chemical_formula_sum              "Cl4 I4 Sn4"
_cell_length_a       8.77933
_cell_length_b       4.39874
_cell_length_c       10.4619
_cell_angle_alpha    90
_cell_angle_beta     90
_cell_angle_gamma    90

_space_group_name_H-M_alt    "P 1"
_space_group_IT_number       1

loop_
  _space_group_symop_operation_xyz
  'x, y, z'

loop_
  _atom_site_type_symbol
  _atom_site_label
  _atom_site_symmetry_multiplicity
  _atom_site_fract_x
  _atom_site_fract_y
  _atom_site_fract_z
  _atom_site_occupancy
  Cl  Cl1       1.0  0.64300  0.25000  0.05150  1.0000
  Cl  Cl2       1.0  0.14300  0.25000  0.44800  1.0000
  Cl  Cl3       1.0  0.85700  0.75000  0.55200  1.0000
  Cl  Cl4       1.0  0.35700  0.75000  0.94800  1.0000
  I   I1        1.0  0.99200  0.75000  0.17300  1.0000
  I   I2        1.0  0.49200  0.75000  0.32700  1.0000
  I   I3        1.0  0.50800  0.25000  0.67300  1.0000
  I   I4        1.0  0.00778  0.25000  0.82700  1.0000
  Sn  Sn1       1.0  0.36400  0.25000  0.14800  1.0000
  Sn  Sn2       1.0  0.86400  0.25000  0.35200  1.0000
  Sn  Sn3       1.0  0.13600  0.75000  0.64800  1.0000
  Sn  Sn4       1.0  0.63600  0.75000  0.85200  1.0000
