data_image0
_chemical_formula_structural       F7K3Ni2
_chemical_formula_sum              "F7 K3 Ni2"
_cell_length_a       3.97084
_cell_length_b       3.97084
_cell_length_c       10.7535
_cell_angle_alpha    100.64
_cell_angle_beta     100.64
_cell_angle_gamma    90

_space_group_name_H-M_alt    "P 1"
_space_group_IT_number       1

loop_
  _space_group_symop_operation_xyz
  'x, y, z'

loop_
  _atom_site_type_symbol
  _atom_site_label
  _atom_site_symmetry_multiplicity
  _atom_site_fract_x
  _atom_site_fract_y
  _atom_site_fract_z
  _atom_site_occupancy
  F   F1        1.0  0.00000  0.00000  0.00000  1.0000
  F   F2        1.0  0.59500  0.09520  0.19000  1.0000
  F   F3        1.0  0.09520  0.59500  0.19000  1.0000
  F   F4        1.0  0.19300  0.19300  0.38700  1.0000
  F   F5        1.0  0.80700  0.80700  0.61300  1.0000
  F   F6        1.0  0.90500  0.40500  0.81000  1.0000
  F   F7        1.0  0.40500  0.90500  0.81000  1.0000
  K   K1        1.0  0.50000  0.50000  0.00000  1.0000
  K   K2        1.0  0.68500  0.68500  0.37000  1.0000
  K   K3        1.0  0.31500  0.31500  0.63000  1.0000
  Ni  Ni1       1.0  0.09740  0.09740  0.19500  1.0000
  Ni  Ni2       1.0  0.90300  0.90300  0.80500  1.0000
