data_image0
_chemical_formula_structural       Br4S4Sb4
_chemical_formula_sum              "Br4 S4 Sb4"
_cell_length_a       8.55726
_cell_length_b       10.2141
_cell_length_c       3.988
_cell_angle_alpha    90
_cell_angle_beta     90
_cell_angle_gamma    90

_space_group_name_H-M_alt    "P 1"
_space_group_IT_number       1

loop_
  _space_group_symop_operation_xyz
  'x, y, z'

loop_
  _atom_site_type_symbol
  _atom_site_label
  _atom_site_symmetry_multiplicity
  _atom_site_fract_x
  _atom_site_fract_y
  _atom_site_fract_z
  _atom_site_occupancy
  Br  Br1       1.0  0.02420  0.68700  0.25000  1.0000
  Br  Br2       1.0  0.52400  0.81300  0.25000  1.0000
  Br  Br3       1.0  0.47600  0.18700  0.75000  1.0000
  Br  Br4       1.0  0.97600  0.31300  0.75000  1.0000
  S   S1        1.0  0.83800  0.03960  0.25000  1.0000
  S   S2        1.0  0.33800  0.46000  0.25000  1.0000
  S   S3        1.0  0.66200  0.54000  0.75000  1.0000
  S   S4        1.0  0.16200  0.96000  0.75000  1.0000
  Sb  Sb1       1.0  0.10900  0.13200  0.25000  1.0000
  Sb  Sb2       1.0  0.60900  0.36800  0.25000  1.0000
  Sb  Sb3       1.0  0.39100  0.63200  0.75000  1.0000
  Sb  Sb4       1.0  0.89100  0.86800  0.75000  1.0000
