data_image0
_chemical_formula_structural       Mg4N6P2
_chemical_formula_sum              "Mg4 N6 P2"
_cell_length_a       4.70702
_cell_length_b       5.61766
_cell_length_c       5.61766
_cell_angle_alpha    60.3806
_cell_angle_beta     90
_cell_angle_gamma    90

_space_group_name_H-M_alt    "P 1"
_space_group_IT_number       1

loop_
  _space_group_symop_operation_xyz
  'x, y, z'

loop_
  _atom_site_type_symbol
  _atom_site_label
  _atom_site_symmetry_multiplicity
  _atom_site_fract_x
  _atom_site_fract_y
  _atom_site_fract_z
  _atom_site_occupancy
  Mg  Mg1       1.0  0.96200  0.33000  0.99700  1.0000
  Mg  Mg2       1.0  0.46200  0.67000  0.00317  1.0000
  Mg  Mg3       1.0  0.46200  0.99700  0.33000  1.0000
  Mg  Mg4       1.0  0.96200  0.00317  0.67000  1.0000
  N   N1        1.0  0.91200  0.66300  0.05470  1.0000
  N   N2        1.0  0.91200  0.94500  0.33700  1.0000
  N   N3        1.0  0.33900  0.61100  0.38900  1.0000
  N   N4        1.0  0.83900  0.38900  0.61100  1.0000
  N   N5        1.0  0.41200  0.05470  0.66300  1.0000
  N   N6        1.0  0.41200  0.33700  0.94500  1.0000
  P   P1        1.0  0.98400  0.66200  0.33800  1.0000
  P   P2        1.0  0.48400  0.33800  0.66200  1.0000
