data_image0
_chemical_formula_structural       Al2Cl8Cu2
_chemical_formula_sum              "Al2 Cl8 Cu2"
_cell_length_a       5.42878
_cell_length_b       5.42878
_cell_length_c       10.059
_cell_angle_alpha    90
_cell_angle_beta     90
_cell_angle_gamma    90

_space_group_name_H-M_alt    "P 1"
_space_group_IT_number       1

loop_
  _space_group_symop_operation_xyz
  'x, y, z'

loop_
  _atom_site_type_symbol
  _atom_site_label
  _atom_site_symmetry_multiplicity
  _atom_site_fract_x
  _atom_site_fract_y
  _atom_site_fract_z
  _atom_site_occupancy
  Al  Al1       1.0  0.00000  0.50000  0.25000  1.0000
  Al  Al2       1.0  0.50000  0.00000  0.75000  1.0000
  Cl  Cl1       1.0  0.76500  0.27100  0.12700  1.0000
  Cl  Cl2       1.0  0.23500  0.72900  0.12700  1.0000
  Cl  Cl3       1.0  0.23500  0.27100  0.37300  1.0000
  Cl  Cl4       1.0  0.76500  0.72900  0.37300  1.0000
  Cl  Cl5       1.0  0.72900  0.23500  0.62700  1.0000
  Cl  Cl6       1.0  0.27100  0.76500  0.62700  1.0000
  Cl  Cl7       1.0  0.27100  0.23500  0.87300  1.0000
  Cl  Cl8       1.0  0.72900  0.76500  0.87300  1.0000
  Cu  Cu1       1.0  0.00000  0.00000  0.00000  1.0000
  Cu  Cu2       1.0  0.00000  0.00000  0.50000  1.0000
