data_image0
_chemical_formula_structural       Cl8I3Sb
_chemical_formula_sum              "Cl8 I3 Sb1"
_cell_length_a       7.19843
_cell_length_b       11.7132
_cell_length_c       7.26215
_cell_angle_alpha    121.64
_cell_angle_beta     98.9213
_cell_angle_gamma    116.61

_space_group_name_H-M_alt    "P 1"
_space_group_IT_number       1

loop_
  _space_group_symop_operation_xyz
  'x, y, z'

loop_
  _atom_site_type_symbol
  _atom_site_label
  _atom_site_symmetry_multiplicity
  _atom_site_fract_x
  _atom_site_fract_y
  _atom_site_fract_z
  _atom_site_occupancy
  Cl  Cl1       1.0  0.31400  0.48100  0.25500  1.0000
  Cl  Cl2       1.0  0.69200  0.79900  0.26800  1.0000
  Cl  Cl3       1.0  0.84200  0.56400  0.26900  1.0000
  Cl  Cl4       1.0  0.58000  0.08050  0.32400  1.0000
  Cl  Cl5       1.0  0.42000  0.91900  0.67600  1.0000
  Cl  Cl6       1.0  0.15800  0.43600  0.73100  1.0000
  Cl  Cl7       1.0  0.30800  0.20100  0.73200  1.0000
  Cl  Cl8       1.0  0.68600  0.51900  0.74500  1.0000
  I   I1        1.0  0.00000  0.00000  0.00000  1.0000
  I   I2        1.0  0.16600  0.83000  0.06230  1.0000
  I   I3        1.0  0.83400  0.17000  0.93800  1.0000
  Sb  Sb1       1.0  0.50000  0.50000  0.00000  1.0000
