data_image0
_chemical_formula_structural       Hg2Yb
_chemical_formula_sum              "Hg2 Yb1"
_cell_length_a       4.93527
_cell_length_b       4.93335
_cell_length_c       3.50009
_cell_angle_alpha    90
_cell_angle_beta     90.0086
_cell_angle_gamma    119.987

_space_group_name_H-M_alt    "P 1"
_space_group_IT_number       1

loop_
  _space_group_symop_operation_xyz
  'x, y, z'

loop_
  _atom_site_type_symbol
  _atom_site_label
  _atom_site_symmetry_multiplicity
  _atom_site_fract_x
  _atom_site_fract_y
  _atom_site_fract_z
  _atom_site_occupancy
  Hg  Hg1       1.0  0.66700  0.33300  0.49900  1.0000
  Hg  Hg2       1.0  0.33300  0.66700  0.50100  1.0000
  Yb  Yb1       1.0  0.00000  0.00000  0.00000  1.0000
