data_image0
_chemical_formula_structural       Cl6H8N2Pt
_chemical_formula_sum              "Cl6 H8 N2 Pt1"
_cell_length_a       6.94827
_cell_length_b       6.94827
_cell_length_c       6.94827
_cell_angle_alpha    120
_cell_angle_beta     90
_cell_angle_gamma    120

_space_group_name_H-M_alt    "P 1"
_space_group_IT_number       1

loop_
  _space_group_symop_operation_xyz
  'x, y, z'

loop_
  _atom_site_type_symbol
  _atom_site_label
  _atom_site_symmetry_multiplicity
  _atom_site_fract_x
  _atom_site_fract_y
  _atom_site_fract_z
  _atom_site_occupancy
  Cl  Cl1       1.0  0.76100  0.00000  0.23900  1.0000
  Cl  Cl2       1.0  0.23900  0.00000  0.23900  1.0000
  Cl  Cl3       1.0  0.23900  0.47800  0.23900  1.0000
  Cl  Cl4       1.0  0.76100  0.00000  0.76100  1.0000
  Cl  Cl5       1.0  0.23900  0.00000  0.76100  1.0000
  Cl  Cl6       1.0  0.76100  0.52200  0.76100  1.0000
  H   H1        1.0  0.68900  0.37800  0.06760  1.0000
  H   H2        1.0  0.68900  0.37800  0.31100  1.0000
  H   H3        1.0  0.68900  0.62200  0.31100  1.0000
  H   H4        1.0  0.93200  0.62200  0.31100  1.0000
  H   H5        1.0  0.06760  0.37800  0.68900  1.0000
  H   H6        1.0  0.31100  0.37800  0.68900  1.0000
  H   H7        1.0  0.31100  0.62200  0.68900  1.0000
  H   H8        1.0  0.31100  0.62200  0.93200  1.0000
  N   N1        1.0  0.75000  0.50000  0.25000  1.0000
  N   N2        1.0  0.25000  0.50000  0.75000  1.0000
  Pt  Pt1       1.0  0.00000  0.00000  0.00000  1.0000
