data_image0
_chemical_formula_structural       F7K3Mn2
_chemical_formula_sum              "F7 K3 Mn2"
_cell_length_a       4.13112
_cell_length_b       4.13112
_cell_length_c       10.9894
_cell_angle_alpha    100.834
_cell_angle_beta     100.834
_cell_angle_gamma    90

_space_group_name_H-M_alt    "P 1"
_space_group_IT_number       1

loop_
  _space_group_symop_operation_xyz
  'x, y, z'

loop_
  _atom_site_type_symbol
  _atom_site_label
  _atom_site_symmetry_multiplicity
  _atom_site_fract_x
  _atom_site_fract_y
  _atom_site_fract_z
  _atom_site_occupancy
  F   F1        1.0  0.00000  0.00000  0.00000  1.0000
  F   F2        1.0  0.59600  0.09600  0.19200  1.0000
  F   F3        1.0  0.09600  0.59600  0.19200  1.0000
  F   F4        1.0  0.19800  0.19800  0.39500  1.0000
  F   F5        1.0  0.80200  0.80200  0.60500  1.0000
  F   F6        1.0  0.90400  0.40400  0.80800  1.0000
  F   F7        1.0  0.40400  0.90400  0.80800  1.0000
  K   K1        1.0  0.50000  0.50000  0.00000  1.0000
  K   K2        1.0  0.68500  0.68500  0.37100  1.0000
  K   K3        1.0  0.31500  0.31500  0.62900  1.0000
  Mn  Mn1       1.0  0.09930  0.09930  0.19900  1.0000
  Mn  Mn2       1.0  0.90100  0.90100  0.80100  1.0000
