data_image0
_chemical_formula_structural       Ca2Cr2O8
_chemical_formula_sum              "Ca2 Cr2 O8"
_cell_length_a       5.96633
_cell_length_b       5.96633
_cell_length_c       5.96633
_cell_angle_alpha    105.935
_cell_angle_beta     116.801
_cell_angle_gamma    105.935

_space_group_name_H-M_alt    "P 1"
_space_group_IT_number       1

loop_
  _space_group_symop_operation_xyz
  'x, y, z'

loop_
  _atom_site_type_symbol
  _atom_site_label
  _atom_site_symmetry_multiplicity
  _atom_site_fract_x
  _atom_site_fract_y
  _atom_site_fract_z
  _atom_site_occupancy
  Ca  Ca1       1.0  0.00000  0.00000  0.00000  1.0000
  Ca  Ca2       1.0  0.75000  0.50000  0.25000  1.0000
  Cr  Cr1       1.0  0.50000  0.00000  0.50000  1.0000
  Cr  Cr2       1.0  0.25000  0.50000  0.75000  1.0000
  O   O1        1.0  0.15600  0.81700  0.33800  1.0000
  O   O2        1.0  0.52100  0.18300  0.33800  1.0000
  O   O3        1.0  0.08830  0.31700  0.40600  1.0000
  O   O4        1.0  0.66200  0.81700  0.47900  1.0000
  O   O5        1.0  0.08830  0.68300  0.77100  1.0000
  O   O6        1.0  0.66200  0.18300  0.84400  1.0000
  O   O7        1.0  0.22900  0.31700  0.91200  1.0000
  O   O8        1.0  0.59400  0.68300  0.91200  1.0000
