data_image0
_chemical_formula_structural       B2H12N2
_chemical_formula_sum              "B2 H12 N2"
_cell_length_a       4.37665
_cell_length_b       4.37665
_cell_length_c       6.00435
_cell_angle_alpha    90
_cell_angle_beta     90
_cell_angle_gamma    94.2413

_space_group_name_H-M_alt    "P 1"
_space_group_IT_number       1

loop_
  _space_group_symop_operation_xyz
  'x, y, z'

loop_
  _atom_site_type_symbol
  _atom_site_label
  _atom_site_symmetry_multiplicity
  _atom_site_fract_x
  _atom_site_fract_y
  _atom_site_fract_z
  _atom_site_occupancy
  B   B1        1.0  0.15200  0.84800  0.20800  1.0000
  B   B2        1.0  0.84800  0.15200  0.70800  1.0000
  H   H1        1.0  0.27100  0.72900  0.04940  1.0000
  H   H2        1.0  0.81700  0.18300  0.06770  1.0000
  H   H3        1.0  0.21100  0.12500  0.20900  1.0000
  H   H4        1.0  0.87400  0.78900  0.20900  1.0000
  H   H5        1.0  0.23600  0.48500  0.44900  1.0000
  H   H6        1.0  0.51500  0.76400  0.44900  1.0000
  H   H7        1.0  0.72900  0.27100  0.54900  1.0000
  H   H8        1.0  0.18300  0.81700  0.56800  1.0000
  H   H9        1.0  0.12500  0.21100  0.70900  1.0000
  H   H10       1.0  0.78900  0.87400  0.70900  1.0000
  H   H11       1.0  0.48500  0.23600  0.94900  1.0000
  H   H12       1.0  0.76400  0.51500  0.94900  1.0000
  N   N1        1.0  0.28200  0.71800  0.43200  1.0000
  N   N2        1.0  0.71800  0.28200  0.93200  1.0000
