data_image0
_chemical_formula_structural       Al2O8Ta2
_chemical_formula_sum              "Al2 O8 Ta2"
_cell_length_a       3.78018
_cell_length_b       6.35701
_cell_length_c       6.45889
_cell_angle_alpha    106.913
_cell_angle_beta     90
_cell_angle_gamma    107.297

_space_group_name_H-M_alt    "P 1"
_space_group_IT_number       1

loop_
  _space_group_symop_operation_xyz
  'x, y, z'

loop_
  _atom_site_type_symbol
  _atom_site_label
  _atom_site_symmetry_multiplicity
  _atom_site_fract_x
  _atom_site_fract_y
  _atom_site_fract_z
  _atom_site_occupancy
  Al  Al1       1.0  0.79900  0.59800  0.17900  1.0000
  Al  Al2       1.0  0.20100  0.40200  0.82100  1.0000
  O   O1        1.0  0.94200  0.88400  0.13500  1.0000
  O   O2        1.0  0.26400  0.52700  0.14400  1.0000
  O   O3        1.0  0.64100  0.28200  0.20100  1.0000
  O   O4        1.0  0.85900  0.71800  0.47300  1.0000
  O   O5        1.0  0.14100  0.28200  0.52700  1.0000
  O   O6        1.0  0.35900  0.71800  0.79900  1.0000
  O   O7        1.0  0.73600  0.47300  0.85600  1.0000
  O   O8        1.0  0.05820  0.11600  0.86500  1.0000
  Ta  Ta1       1.0  0.10600  0.21100  0.23300  1.0000
  Ta  Ta2       1.0  0.89400  0.78900  0.76700  1.0000
