data_image0
_chemical_formula_structural       Ag2F8K2
_chemical_formula_sum              "Ag2 F8 K2"
_cell_length_a       5.65117
_cell_length_b       5.65117
_cell_length_c       6.88872
_cell_angle_alpha    114.216
_cell_angle_beta     114.216
_cell_angle_gamma    90

_space_group_name_H-M_alt    "P 1"
_space_group_IT_number       1

loop_
  _space_group_symop_operation_xyz
  'x, y, z'

loop_
  _atom_site_type_symbol
  _atom_site_label
  _atom_site_symmetry_multiplicity
  _atom_site_fract_x
  _atom_site_fract_y
  _atom_site_fract_z
  _atom_site_occupancy
  Ag  Ag1       1.0  0.50000  0.00000  0.00000  1.0000
  Ag  Ag2       1.0  0.00000  0.50000  0.00000  1.0000
  F   F1        1.0  0.44100  0.29600  0.23700  1.0000
  F   F2        1.0  0.29600  0.79600  0.23700  1.0000
  F   F3        1.0  0.94100  0.44100  0.23700  1.0000
  F   F4        1.0  0.79600  0.94100  0.23700  1.0000
  F   F5        1.0  0.20400  0.05910  0.76300  1.0000
  F   F6        1.0  0.05910  0.55900  0.76300  1.0000
  F   F7        1.0  0.70400  0.20400  0.76300  1.0000
  F   F8        1.0  0.55900  0.70400  0.76300  1.0000
  K   K1        1.0  0.25000  0.25000  0.50000  1.0000
  K   K2        1.0  0.75000  0.75000  0.50000  1.0000
