data_image0
_chemical_formula_structural       Cs2Cu2F8
_chemical_formula_sum              "Cs2 Cu2 F8"
_cell_length_a       5.74545
_cell_length_b       5.74545
_cell_length_c       7.3244
_cell_angle_alpha    113.092
_cell_angle_beta     113.092
_cell_angle_gamma    90

_space_group_name_H-M_alt    "P 1"
_space_group_IT_number       1

loop_
  _space_group_symop_operation_xyz
  'x, y, z'

loop_
  _atom_site_type_symbol
  _atom_site_label
  _atom_site_symmetry_multiplicity
  _atom_site_fract_x
  _atom_site_fract_y
  _atom_site_fract_z
  _atom_site_occupancy
  Cs  Cs1       1.0  0.25000  0.25000  0.50000  1.0000
  Cs  Cs2       1.0  0.75000  0.75000  0.50000  1.0000
  Cu  Cu1       1.0  0.50000  0.00000  0.00000  1.0000
  Cu  Cu2       1.0  0.00000  0.50000  0.00000  1.0000
  F   F1        1.0  0.75700  0.25700  0.20300  1.0000
  F   F2        1.0  0.25700  0.44500  0.20300  1.0000
  F   F3        1.0  0.94500  0.75700  0.20300  1.0000
  F   F4        1.0  0.44500  0.94500  0.20300  1.0000
  F   F5        1.0  0.55500  0.05460  0.79700  1.0000
  F   F6        1.0  0.05460  0.24300  0.79700  1.0000
  F   F7        1.0  0.74300  0.55500  0.79700  1.0000
  F   F8        1.0  0.24300  0.74300  0.79700  1.0000
