data_image0
_chemical_formula_structural       Ir4La4Si4
_chemical_formula_sum              "Ir4 La4 Si4"
_cell_length_a       6.42861
_cell_length_b       6.42861
_cell_length_c       6.42861
_cell_angle_alpha    90
_cell_angle_beta     90
_cell_angle_gamma    90

_space_group_name_H-M_alt    "P 1"
_space_group_IT_number       1

loop_
  _space_group_symop_operation_xyz
  'x, y, z'

loop_
  _atom_site_type_symbol
  _atom_site_label
  _atom_site_symmetry_multiplicity
  _atom_site_fract_x
  _atom_site_fract_y
  _atom_site_fract_z
  _atom_site_occupancy
  Ir  Ir1       1.0  0.57400  0.92600  0.07360  1.0000
  Ir  Ir2       1.0  0.42600  0.42600  0.42600  1.0000
  Ir  Ir3       1.0  0.92600  0.07360  0.57400  1.0000
  Ir  Ir4       1.0  0.07360  0.57400  0.92600  1.0000
  La  La1       1.0  0.13300  0.13300  0.13300  1.0000
  La  La2       1.0  0.86700  0.63300  0.36700  1.0000
  La  La3       1.0  0.36700  0.86700  0.63300  1.0000
  La  La4       1.0  0.63300  0.36700  0.86700  1.0000
  Si  Si1       1.0  0.34000  0.66000  0.16000  1.0000
  Si  Si2       1.0  0.66000  0.16000  0.34000  1.0000
  Si  Si3       1.0  0.16000  0.34000  0.66000  1.0000
  Si  Si4       1.0  0.84000  0.84000  0.84000  1.0000
