data_image0
_chemical_formula_structural       AlKMo2O8
_chemical_formula_sum              "Al1 K1 Mo2 O8"
_cell_length_a       5.54189
_cell_length_b       5.54217
_cell_length_c       6.93542
_cell_angle_alpha    90
_cell_angle_beta     89.9985
_cell_angle_gamma    120.002

_space_group_name_H-M_alt    "P 1"
_space_group_IT_number       1

loop_
  _space_group_symop_operation_xyz
  'x, y, z'

loop_
  _atom_site_type_symbol
  _atom_site_label
  _atom_site_symmetry_multiplicity
  _atom_site_fract_x
  _atom_site_fract_y
  _atom_site_fract_z
  _atom_site_occupancy
  Al  Al1       1.0  0.00000  0.00000  0.00000  1.0000
  K   K1        1.0  1.00000  1.00000  0.50000  1.0000
  Mo  Mo1       1.0  0.33300  0.66700  0.24400  1.0000
  Mo  Mo2       1.0  0.66700  0.33300  0.75600  1.0000
  O   O1        1.0  0.15700  0.31300  0.16200  1.0000
  O   O2        1.0  0.15700  0.84300  0.16200  1.0000
  O   O3        1.0  0.68700  0.84300  0.16200  1.0000
  O   O4        1.0  0.33300  0.66700  0.49600  1.0000
  O   O5        1.0  0.66700  0.33300  0.50400  1.0000
  O   O6        1.0  0.31300  0.15700  0.83800  1.0000
  O   O7        1.0  0.84300  0.15700  0.83800  1.0000
  O   O8        1.0  0.84300  0.68700  0.83800  1.0000
