data_image0
_chemical_formula_structural       Ca2F8Pd2
_chemical_formula_sum              "Ca2 F8 Pd2"
_cell_length_a       5.44643
_cell_length_b       5.44643
_cell_length_c       6.50428
_cell_angle_alpha    114.751
_cell_angle_beta     114.751
_cell_angle_gamma    90

_space_group_name_H-M_alt    "P 1"
_space_group_IT_number       1

loop_
  _space_group_symop_operation_xyz
  'x, y, z'

loop_
  _atom_site_type_symbol
  _atom_site_label
  _atom_site_symmetry_multiplicity
  _atom_site_fract_x
  _atom_site_fract_y
  _atom_site_fract_z
  _atom_site_occupancy
  Ca  Ca1       1.0  0.25000  0.25000  0.50000  1.0000
  Ca  Ca2       1.0  0.75000  0.75000  0.50000  1.0000
  F   F1        1.0  0.81600  0.31600  0.27400  1.0000
  F   F2        1.0  0.31600  0.45800  0.27400  1.0000
  F   F3        1.0  0.95800  0.81600  0.27400  1.0000
  F   F4        1.0  0.45800  0.95800  0.27400  1.0000
  F   F5        1.0  0.54200  0.04230  0.72600  1.0000
  F   F6        1.0  0.04230  0.18400  0.72600  1.0000
  F   F7        1.0  0.68400  0.54200  0.72600  1.0000
  F   F8        1.0  0.18400  0.68400  0.72600  1.0000
  Pd  Pd1       1.0  0.50000  0.00000  0.00000  1.0000
  Pd  Pd2       1.0  0.00000  0.50000  0.00000  1.0000
