data_image0
_chemical_formula_structural       Cu2O8U2
_chemical_formula_sum              "Cu2 O8 U2"
_cell_length_a       5.44562
_cell_length_b       4.96493
_cell_length_c       6.58254
_cell_angle_alpha    90
_cell_angle_beta     118.186
_cell_angle_gamma    90

_space_group_name_H-M_alt    "P 1"
_space_group_IT_number       1

loop_
  _space_group_symop_operation_xyz
  'x, y, z'

loop_
  _atom_site_type_symbol
  _atom_site_label
  _atom_site_symmetry_multiplicity
  _atom_site_fract_x
  _atom_site_fract_y
  _atom_site_fract_z
  _atom_site_occupancy
  Cu  Cu1       1.0  0.50000  0.50000  0.00000  1.0000
  Cu  Cu2       1.0  0.00000  0.00000  0.50000  1.0000
  O   O1        1.0  0.76800  0.79500  0.08600  1.0000
  O   O2        1.0  0.32800  0.68100  0.15700  1.0000
  O   O3        1.0  0.17200  0.18100  0.34300  1.0000
  O   O4        1.0  0.73200  0.29500  0.41400  1.0000
  O   O5        1.0  0.26800  0.70500  0.58600  1.0000
  O   O6        1.0  0.82800  0.81900  0.65700  1.0000
  O   O7        1.0  0.67200  0.31900  0.84300  1.0000
  O   O8        1.0  0.23200  0.20500  0.91400  1.0000
  U   U1        1.0  0.00000  0.00000  0.00000  1.0000
  U   U2        1.0  0.50000  0.50000  0.50000  1.0000
