data_image0
_chemical_formula_structural       Ba3H12Ir2
_chemical_formula_sum              "Ba3 H12 Ir2"
_cell_length_a       5.44567
_cell_length_b       5.44566
_cell_length_c       8.74827
_cell_angle_alpha    90
_cell_angle_beta     89.9997
_cell_angle_gamma    120

_space_group_name_H-M_alt    "P 1"
_space_group_IT_number       1

loop_
  _space_group_symop_operation_xyz
  'x, y, z'

loop_
  _atom_site_type_symbol
  _atom_site_label
  _atom_site_symmetry_multiplicity
  _atom_site_fract_x
  _atom_site_fract_y
  _atom_site_fract_z
  _atom_site_occupancy
  Ba  Ba1       1.0  0.00000  0.00000  0.00000  1.0000
  Ba  Ba2       1.0  0.66700  0.33300  0.36000  1.0000
  Ba  Ba3       1.0  0.33300  0.66700  0.64000  1.0000
  H   H1        1.0  0.05230  0.52600  0.12200  1.0000
  H   H2        1.0  0.47400  0.94800  0.12200  1.0000
  H   H3        1.0  0.47400  0.52600  0.12200  1.0000
  H   H4        1.0  0.63500  0.81800  0.34600  1.0000
  H   H5        1.0  0.18200  0.81800  0.34600  1.0000
  H   H6        1.0  0.18200  0.36500  0.34600  1.0000
  H   H7        1.0  0.81800  0.18200  0.65400  1.0000
  H   H8        1.0  0.81800  0.63500  0.65400  1.0000
  H   H9        1.0  0.36500  0.18200  0.65400  1.0000
  H   H10       1.0  0.52600  0.05230  0.87800  1.0000
  H   H11       1.0  0.52600  0.47400  0.87800  1.0000
  H   H12       1.0  0.94800  0.47400  0.87800  1.0000
  Ir  Ir1       1.0  0.33300  0.66700  0.23900  1.0000
  Ir  Ir2       1.0  0.66700  0.33300  0.76100  1.0000
