data_image0
_chemical_formula_structural       O8P2Yb2
_chemical_formula_sum              "O8 P2 Yb2"
_cell_length_a       5.70609
_cell_length_b       5.70609
_cell_length_c       5.70609
_cell_angle_alpha    106.309
_cell_angle_beta     115.999
_cell_angle_gamma    106.309

_space_group_name_H-M_alt    "P 1"
_space_group_IT_number       1

loop_
  _space_group_symop_operation_xyz
  'x, y, z'

loop_
  _atom_site_type_symbol
  _atom_site_label
  _atom_site_symmetry_multiplicity
  _atom_site_fract_x
  _atom_site_fract_y
  _atom_site_fract_z
  _atom_site_occupancy
  O   O1        1.0  0.29200  0.07170  0.22000  1.0000
  O   O2        1.0  0.64900  0.42800  0.22000  1.0000
  O   O3        1.0  0.22000  0.57200  0.29200  1.0000
  O   O4        1.0  0.78000  0.07170  0.35100  1.0000
  O   O5        1.0  0.22000  0.92800  0.64900  1.0000
  O   O6        1.0  0.78000  0.42800  0.70800  1.0000
  O   O7        1.0  0.35100  0.57200  0.78000  1.0000
  O   O8        1.0  0.70800  0.92800  0.78000  1.0000
  P   P1        1.0  0.62500  0.25000  0.37500  1.0000
  P   P2        1.0  0.37500  0.75000  0.62500  1.0000
  Yb  Yb1       1.0  0.87500  0.75000  0.12500  1.0000
  Yb  Yb2       1.0  0.12500  0.25000  0.87500  1.0000
