data_image0
_chemical_formula_structural       Bi4Cl4S4
_chemical_formula_sum              "Bi4 Cl4 S4"
_cell_length_a       7.83309
_cell_length_b       10.3062
_cell_length_c       4.0174
_cell_angle_alpha    90
_cell_angle_beta     90
_cell_angle_gamma    90

_space_group_name_H-M_alt    "P 1"
_space_group_IT_number       1

loop_
  _space_group_symop_operation_xyz
  'x, y, z'

loop_
  _atom_site_type_symbol
  _atom_site_label
  _atom_site_symmetry_multiplicity
  _atom_site_fract_x
  _atom_site_fract_y
  _atom_site_fract_z
  _atom_site_occupancy
  Bi  Bi1       1.0  0.13300  0.13200  0.25000  1.0000
  Bi  Bi2       1.0  0.63300  0.36800  0.25000  1.0000
  Bi  Bi3       1.0  0.36700  0.63200  0.75000  1.0000
  Bi  Bi4       1.0  0.86700  0.86800  0.75000  1.0000
  Cl  Cl1       1.0  0.02590  0.70100  0.25000  1.0000
  Cl  Cl2       1.0  0.52600  0.79900  0.25000  1.0000
  Cl  Cl3       1.0  0.47400  0.20100  0.75000  1.0000
  Cl  Cl4       1.0  0.97400  0.29900  0.75000  1.0000
  S   S1        1.0  0.81800  0.04370  0.25000  1.0000
  S   S2        1.0  0.31800  0.45600  0.25000  1.0000
  S   S3        1.0  0.68200  0.54400  0.75000  1.0000
  S   S4        1.0  0.18200  0.95600  0.75000  1.0000
