data_image0
_chemical_formula_structural       Cl7K3Mn2
_chemical_formula_sum              "Cl7 K3 Mn2"
_cell_length_a       5.03109
_cell_length_b       5.03109
_cell_length_c       13.1965
_cell_angle_alpha    100.989
_cell_angle_beta     100.989
_cell_angle_gamma    90

_space_group_name_H-M_alt    "P 1"
_space_group_IT_number       1

loop_
  _space_group_symop_operation_xyz
  'x, y, z'

loop_
  _atom_site_type_symbol
  _atom_site_label
  _atom_site_symmetry_multiplicity
  _atom_site_fract_x
  _atom_site_fract_y
  _atom_site_fract_z
  _atom_site_occupancy
  Cl  Cl1       1.0  0.50000  0.50000  0.00000  1.0000
  Cl  Cl2       1.0  0.59700  0.09680  0.19400  1.0000
  Cl  Cl3       1.0  0.09680  0.59700  0.19400  1.0000
  Cl  Cl4       1.0  0.69800  0.69800  0.39600  1.0000
  Cl  Cl5       1.0  0.30200  0.30200  0.60400  1.0000
  Cl  Cl6       1.0  0.90300  0.40300  0.80600  1.0000
  Cl  Cl7       1.0  0.40300  0.90300  0.80600  1.0000
  K   K1        1.0  0.00000  0.00000  0.00000  1.0000
  K   K2        1.0  0.18200  0.18200  0.36300  1.0000
  K   K3        1.0  0.81800  0.81800  0.63700  1.0000
  Mn  Mn1       1.0  0.60100  0.60100  0.20300  1.0000
  Mn  Mn2       1.0  0.39900  0.39900  0.79700  1.0000
