data_image0
_chemical_formula_structural       H6Na3O7V
_chemical_formula_sum              "H6 Na3 O7 V1"
_cell_length_a       5.47096
_cell_length_b       5.47096
_cell_length_c       5.47096
_cell_angle_alpha    99.7821
_cell_angle_beta     99.7821
_cell_angle_gamma    99.7821

_space_group_name_H-M_alt    "P 1"
_space_group_IT_number       1

loop_
  _space_group_symop_operation_xyz
  'x, y, z'

loop_
  _atom_site_type_symbol
  _atom_site_label
  _atom_site_symmetry_multiplicity
  _atom_site_fract_x
  _atom_site_fract_y
  _atom_site_fract_z
  _atom_site_occupancy
  H   H1        1.0  0.39400  0.74700  0.07520  1.0000
  H   H2        1.0  0.24700  0.48800  0.11700  1.0000
  H   H3        1.0  0.48800  0.11700  0.24700  1.0000
  H   H4        1.0  0.74700  0.07520  0.39400  1.0000
  H   H5        1.0  0.11700  0.24700  0.48800  1.0000
  H   H6        1.0  0.07520  0.39400  0.74700  1.0000
  Na  Na1       1.0  0.82000  0.56500  0.37300  1.0000
  Na  Na2       1.0  0.37300  0.82000  0.56500  1.0000
  Na  Na3       1.0  0.56500  0.37300  0.82000  1.0000
  O   O1        1.0  0.95500  0.31200  0.00294  1.0000
  O   O2        1.0  0.42000  0.60300  0.16200  1.0000
  O   O3        1.0  0.00294  0.95500  0.31200  1.0000
  O   O4        1.0  0.60300  0.16200  0.42000  1.0000
  O   O5        1.0  0.16200  0.42000  0.60300  1.0000
  O   O6        1.0  0.78000  0.78000  0.78000  1.0000
  O   O7        1.0  0.31200  0.00294  0.95500  1.0000
  V   V1        1.0  0.00319  0.00319  0.00319  1.0000
