data_image0
_chemical_formula_structural       I4S4Sb4
_chemical_formula_sum              "I4 S4 Sb4"
_cell_length_a       8.90104
_cell_length_b       10.7409
_cell_length_c       4.09955
_cell_angle_alpha    90
_cell_angle_beta     90
_cell_angle_gamma    90

_space_group_name_H-M_alt    "P 1"
_space_group_IT_number       1

loop_
  _space_group_symop_operation_xyz
  'x, y, z'

loop_
  _atom_site_type_symbol
  _atom_site_label
  _atom_site_symmetry_multiplicity
  _atom_site_fract_x
  _atom_site_fract_y
  _atom_site_fract_z
  _atom_site_occupancy
  I   I1        1.0  0.02520  0.68300  0.25000  1.0000
  I   I2        1.0  0.52500  0.81700  0.25000  1.0000
  I   I3        1.0  0.47500  0.18300  0.75000  1.0000
  I   I4        1.0  0.97500  0.31700  0.75000  1.0000
  S   S1        1.0  0.84500  0.03550  0.25000  1.0000
  S   S2        1.0  0.34500  0.46400  0.25000  1.0000
  S   S3        1.0  0.65500  0.53600  0.75000  1.0000
  S   S4        1.0  0.15500  0.96400  0.75000  1.0000
  Sb  Sb1       1.0  0.10400  0.12500  0.25000  1.0000
  Sb  Sb2       1.0  0.60400  0.37500  0.25000  1.0000
  Sb  Sb3       1.0  0.39600  0.62500  0.75000  1.0000
  Sb  Sb4       1.0  0.89600  0.87500  0.75000  1.0000
