data_image0
_chemical_formula_structural       O4Ta8
_chemical_formula_sum              "O4 Ta8"
_cell_length_a       6.47853
_cell_length_b       6.47853
_cell_length_c       6.47853
_cell_angle_alpha    109.471
_cell_angle_beta     109.471
_cell_angle_gamma    109.471

_space_group_name_H-M_alt    "P 1"
_space_group_IT_number       1

loop_
  _space_group_symop_operation_xyz
  'x, y, z'

loop_
  _atom_site_type_symbol
  _atom_site_label
  _atom_site_symmetry_multiplicity
  _atom_site_fract_x
  _atom_site_fract_y
  _atom_site_fract_z
  _atom_site_occupancy
  O   O1        1.0  0.28900  0.00000  0.00000  1.0000
  O   O2        1.0  0.00000  0.28900  0.00000  1.0000
  O   O3        1.0  0.00000  0.00000  0.28900  1.0000
  O   O4        1.0  0.71100  0.71100  0.71100  1.0000
  Ta  Ta1       1.0  0.00000  0.00000  0.00000  1.0000
  Ta  Ta2       1.0  0.57200  0.00000  0.00000  1.0000
  Ta  Ta3       1.0  0.50000  0.50000  0.00000  1.0000
  Ta  Ta4       1.0  0.00000  0.57200  0.00000  1.0000
  Ta  Ta5       1.0  0.42800  0.42800  0.42800  1.0000
  Ta  Ta6       1.0  0.50000  0.00000  0.50000  1.0000
  Ta  Ta7       1.0  0.00000  0.50000  0.50000  1.0000
  Ta  Ta8       1.0  0.00000  0.00000  0.57200  1.0000
