data_image0
_chemical_formula_structural       Ba4H12Pt2
_chemical_formula_sum              "Ba4 H12 Pt2"
_cell_length_a       5.93847
_cell_length_b       5.93734
_cell_length_c       7.79491
_cell_angle_alpha    90
_cell_angle_beta     112.391
_cell_angle_gamma    90

_space_group_name_H-M_alt    "P 1"
_space_group_IT_number       1

loop_
  _space_group_symop_operation_xyz
  'x, y, z'

loop_
  _atom_site_type_symbol
  _atom_site_label
  _atom_site_symmetry_multiplicity
  _atom_site_fract_x
  _atom_site_fract_y
  _atom_site_fract_z
  _atom_site_occupancy
  Ba  Ba1       1.0  0.64200  0.00000  0.28300  1.0000
  Ba  Ba2       1.0  0.14200  0.50000  0.28300  1.0000
  Ba  Ba3       1.0  0.35800  0.00000  0.71700  1.0000
  Ba  Ba4       1.0  0.85800  0.50000  0.71700  1.0000
  H   H1        1.0  0.20300  0.20000  0.00000  1.0000
  H   H2        1.0  0.70300  0.30000  0.00000  1.0000
  H   H3        1.0  0.29700  0.70000  0.00000  1.0000
  H   H4        1.0  0.79700  0.80000  0.00000  1.0000
  H   H5        1.0  0.11600  0.00000  0.23200  1.0000
  H   H6        1.0  0.61600  0.50000  0.23200  1.0000
  H   H7        1.0  0.49900  0.25000  0.50000  1.0000
  H   H8        1.0  0.99900  0.25000  0.50000  1.0000
  H   H9        1.0  0.00080  0.75000  0.50000  1.0000
  H   H10       1.0  0.50100  0.75000  0.50000  1.0000
  H   H11       1.0  0.88400  0.00000  0.76800  1.0000
  H   H12       1.0  0.38400  0.50000  0.76800  1.0000
  Pt  Pt1       1.0  0.00000  0.00000  0.00000  1.0000
  Pt  Pt2       1.0  0.50000  0.50000  0.00000  1.0000
