data_image0
_chemical_formula_structural       As2Bi2O8
_chemical_formula_sum              "As2 Bi2 O8"
_cell_length_a       5.10555
_cell_length_b       5.10555
_cell_length_c       6.85683
_cell_angle_alpha    111.857
_cell_angle_beta     111.857
_cell_angle_gamma    90

_space_group_name_H-M_alt    "P 1"
_space_group_IT_number       1

loop_
  _space_group_symop_operation_xyz
  'x, y, z'

loop_
  _atom_site_type_symbol
  _atom_site_label
  _atom_site_symmetry_multiplicity
  _atom_site_fract_x
  _atom_site_fract_y
  _atom_site_fract_z
  _atom_site_occupancy
  As  As1       1.0  0.00000  0.00000  0.00000  1.0000
  As  As2       1.0  0.25000  0.75000  0.50000  1.0000
  Bi  Bi1       1.0  0.50000  0.50000  0.00000  1.0000
  Bi  Bi2       1.0  0.75000  0.25000  0.50000  1.0000
  O   O1        1.0  0.32600  0.22400  0.15800  1.0000
  O   O2        1.0  0.83200  0.93400  0.15800  1.0000
  O   O3        1.0  0.92400  0.52600  0.34200  1.0000
  O   O4        1.0  0.41800  0.81600  0.34200  1.0000
  O   O5        1.0  0.18400  0.07560  0.65800  1.0000
  O   O6        1.0  0.47400  0.58200  0.65800  1.0000
  O   O7        1.0  0.77600  0.16800  0.84200  1.0000
  O   O8        1.0  0.06570  0.67400  0.84200  1.0000
