data_image0
_chemical_formula_structural       Hf2O8Si2
_chemical_formula_sum              "Hf2 O8 Si2"
_cell_length_a       5.51649
_cell_length_b       5.51649
_cell_length_c       5.51649
_cell_angle_alpha    107.011
_cell_angle_beta     114.512
_cell_angle_gamma    107.011

_space_group_name_H-M_alt    "P 1"
_space_group_IT_number       1

loop_
  _space_group_symop_operation_xyz
  'x, y, z'

loop_
  _atom_site_type_symbol
  _atom_site_label
  _atom_site_symmetry_multiplicity
  _atom_site_fract_x
  _atom_site_fract_y
  _atom_site_fract_z
  _atom_site_occupancy
  Hf  Hf1       1.0  0.87500  0.75000  0.12500  1.0000
  Hf  Hf2       1.0  0.12500  0.25000  0.87500  1.0000
  O   O1        1.0  0.25800  0.06440  0.19400  1.0000
  O   O2        1.0  0.62900  0.43600  0.19400  1.0000
  O   O3        1.0  0.19400  0.56400  0.25800  1.0000
  O   O4        1.0  0.80600  0.06440  0.37100  1.0000
  O   O5        1.0  0.19400  0.93600  0.62900  1.0000
  O   O6        1.0  0.80600  0.43600  0.74200  1.0000
  O   O7        1.0  0.37100  0.56400  0.80600  1.0000
  O   O8        1.0  0.74200  0.93600  0.80600  1.0000
  Si  Si1       1.0  0.62500  0.25000  0.37500  1.0000
  Si  Si2       1.0  0.37500  0.75000  0.62500  1.0000
