data_image0
_chemical_formula_structural       Cl8Gd2Na2
_chemical_formula_sum              "Cl8 Gd2 Na2"
_cell_length_a       7.01707
_cell_length_b       6.75227
_cell_length_c       6.65568
_cell_angle_alpha    100.963
_cell_angle_beta     91.6466
_cell_angle_gamma    89.7645

_space_group_name_H-M_alt    "P 1"
_space_group_IT_number       1

loop_
  _space_group_symop_operation_xyz
  'x, y, z'

loop_
  _atom_site_type_symbol
  _atom_site_label
  _atom_site_symmetry_multiplicity
  _atom_site_fract_x
  _atom_site_fract_y
  _atom_site_fract_z
  _atom_site_occupancy
  Cl  Cl1       1.0  0.75500  0.49600  0.04940  1.0000
  Cl  Cl2       1.0  0.79100  0.99700  0.09630  1.0000
  Cl  Cl3       1.0  0.37000  0.20800  0.39000  1.0000
  Cl  Cl4       1.0  0.11900  0.68900  0.43000  1.0000
  Cl  Cl5       1.0  0.88100  0.31100  0.57000  1.0000
  Cl  Cl6       1.0  0.63000  0.79200  0.61000  1.0000
  Cl  Cl7       1.0  0.20900  0.00271  0.90400  1.0000
  Cl  Cl8       1.0  0.24500  0.50400  0.95100  1.0000
  Gd  Gd1       1.0  0.05510  0.29900  0.21100  1.0000
  Gd  Gd2       1.0  0.94500  0.70100  0.78900  1.0000
  Na  Na1       1.0  0.46400  0.80100  0.23100  1.0000
  Na  Na2       1.0  0.53600  0.19900  0.76900  1.0000
