data_image0
_chemical_formula_structural       Al2Gd2O7Sr
_chemical_formula_sum              "Al2 Gd2 O7 Sr1"
_cell_length_a       3.69945
_cell_length_b       3.69945
_cell_length_c       10.1824
_cell_angle_alpha    100.466
_cell_angle_beta     100.466
_cell_angle_gamma    90

_space_group_name_H-M_alt    "P 1"
_space_group_IT_number       1

loop_
  _space_group_symop_operation_xyz
  'x, y, z'

loop_
  _atom_site_type_symbol
  _atom_site_label
  _atom_site_symmetry_multiplicity
  _atom_site_fract_x
  _atom_site_fract_y
  _atom_site_fract_z
  _atom_site_occupancy
  Al  Al1       1.0  0.09540  0.09540  0.19100  1.0000
  Al  Al2       1.0  0.90500  0.90500  0.80900  1.0000
  Gd  Gd1       1.0  0.68200  0.68200  0.36300  1.0000
  Gd  Gd2       1.0  0.31800  0.31800  0.63700  1.0000
  O   O1        1.0  0.00000  0.00000  0.00000  1.0000
  O   O2        1.0  0.60500  0.10500  0.20900  1.0000
  O   O3        1.0  0.10500  0.60500  0.20900  1.0000
  O   O4        1.0  0.20400  0.20400  0.40800  1.0000
  O   O5        1.0  0.79600  0.79600  0.59200  1.0000
  O   O6        1.0  0.89500  0.39500  0.79100  1.0000
  O   O7        1.0  0.39500  0.89500  0.79100  1.0000
  Sr  Sr1       1.0  0.50000  0.50000  0.00000  1.0000
