data_image0
_chemical_formula_structural       Br8Pb4
_chemical_formula_sum              "Br8 Pb4"
_cell_length_a       4.7647
_cell_length_b       8.09651
_cell_length_c       9.65864
_cell_angle_alpha    90
_cell_angle_beta     90
_cell_angle_gamma    90

_space_group_name_H-M_alt    "P 1"
_space_group_IT_number       1

loop_
  _space_group_symop_operation_xyz
  'x, y, z'

loop_
  _atom_site_type_symbol
  _atom_site_label
  _atom_site_symmetry_multiplicity
  _atom_site_fract_x
  _atom_site_fract_y
  _atom_site_fract_z
  _atom_site_occupancy
  Br  Br1       1.0  0.25000  0.85800  0.08020  1.0000
  Br  Br2       1.0  0.75000  0.51500  0.16100  1.0000
  Br  Br3       1.0  0.75000  0.01550  0.33900  1.0000
  Br  Br4       1.0  0.25000  0.35800  0.42000  1.0000
  Br  Br5       1.0  0.75000  0.64200  0.58000  1.0000
  Br  Br6       1.0  0.25000  0.98500  0.66100  1.0000
  Br  Br7       1.0  0.25000  0.48500  0.83900  1.0000
  Br  Br8       1.0  0.75000  0.14200  0.92000  1.0000
  Pb  Pb1       1.0  0.25000  0.26800  0.08760  1.0000
  Pb  Pb2       1.0  0.25000  0.76800  0.41200  1.0000
  Pb  Pb3       1.0  0.75000  0.23200  0.58800  1.0000
  Pb  Pb4       1.0  0.75000  0.73200  0.91200  1.0000
