data_image0
_chemical_formula_structural       Bi4Br4S4
_chemical_formula_sum              "Bi4 Br4 S4"
_cell_length_a       8.37858
_cell_length_b       10.2314
_cell_length_c       4.10358
_cell_angle_alpha    90
_cell_angle_beta     90
_cell_angle_gamma    90

_space_group_name_H-M_alt    "P 1"
_space_group_IT_number       1

loop_
  _space_group_symop_operation_xyz
  'x, y, z'

loop_
  _atom_site_type_symbol
  _atom_site_label
  _atom_site_symmetry_multiplicity
  _atom_site_fract_x
  _atom_site_fract_y
  _atom_site_fract_z
  _atom_site_occupancy
  Bi  Bi1       1.0  0.12800  0.13100  0.25000  1.0000
  Bi  Bi2       1.0  0.62800  0.36900  0.25000  1.0000
  Bi  Bi3       1.0  0.37200  0.63100  0.75000  1.0000
  Bi  Bi4       1.0  0.87200  0.86900  0.75000  1.0000
  Br  Br1       1.0  0.01700  0.68300  0.25000  1.0000
  Br  Br2       1.0  0.51700  0.81700  0.25000  1.0000
  Br  Br3       1.0  0.48300  0.18300  0.75000  1.0000
  Br  Br4       1.0  0.98300  0.31700  0.75000  1.0000
  S   S1        1.0  0.83200  0.04570  0.25000  1.0000
  S   S2        1.0  0.33200  0.45400  0.25000  1.0000
  S   S3        1.0  0.66800  0.54600  0.75000  1.0000
  S   S4        1.0  0.16800  0.95400  0.75000  1.0000
