data_image0
_chemical_formula_structural       Cl2Fe2O5Sr3
_chemical_formula_sum              "Cl2 Fe2 O5 Sr3"
_cell_length_a       3.96218
_cell_length_b       3.96218
_cell_length_c       12.1999
_cell_angle_alpha    99.3454
_cell_angle_beta     99.3454
_cell_angle_gamma    90

_space_group_name_H-M_alt    "P 1"
_space_group_IT_number       1

loop_
  _space_group_symop_operation_xyz
  'x, y, z'

loop_
  _atom_site_type_symbol
  _atom_site_label
  _atom_site_symmetry_multiplicity
  _atom_site_fract_x
  _atom_site_fract_y
  _atom_site_fract_z
  _atom_site_occupancy
  Cl  Cl1       1.0  0.20500  0.20500  0.41000  1.0000
  Cl  Cl2       1.0  0.79500  0.79500  0.59000  1.0000
  Fe  Fe1       1.0  0.07990  0.07990  0.16000  1.0000
  Fe  Fe2       1.0  0.92000  0.92000  0.84000  1.0000
  O   O1        1.0  0.00000  0.00000  0.00000  1.0000
  O   O2        1.0  0.59100  0.09080  0.18200  1.0000
  O   O3        1.0  0.09080  0.59100  0.18200  1.0000
  O   O4        1.0  0.90900  0.40900  0.81800  1.0000
  O   O5        1.0  0.40900  0.90900  0.81800  1.0000
  Sr  Sr1       1.0  0.50000  0.50000  0.00000  1.0000
  Sr  Sr2       1.0  0.65800  0.65800  0.31500  1.0000
  Sr  Sr3       1.0  0.34200  0.34200  0.68500  1.0000
