data_image0
_chemical_formula_structural       As4Cu4S4
_chemical_formula_sum              "As4 Cu4 S4"
_cell_length_a       11.3885
_cell_length_b       5.48234
_cell_length_c       3.79922
_cell_angle_alpha    90
_cell_angle_beta     90
_cell_angle_gamma    90

_space_group_name_H-M_alt    "P 1"
_space_group_IT_number       1

loop_
  _space_group_symop_operation_xyz
  'x, y, z'

loop_
  _atom_site_type_symbol
  _atom_site_label
  _atom_site_symmetry_multiplicity
  _atom_site_fract_x
  _atom_site_fract_y
  _atom_site_fract_z
  _atom_site_occupancy
  As  As1       1.0  0.48600  0.15100  0.21900  1.0000
  As  As2       1.0  0.98600  0.34900  0.21900  1.0000
  As  As3       1.0  0.01420  0.65100  0.71900  1.0000
  As  As4       1.0  0.51400  0.84900  0.71900  1.0000
  Cu  Cu1       1.0  0.82500  0.06170  0.22100  1.0000
  Cu  Cu2       1.0  0.32500  0.43800  0.22100  1.0000
  Cu  Cu3       1.0  0.67500  0.56200  0.72100  1.0000
  Cu  Cu4       1.0  0.17500  0.93800  0.72100  1.0000
  S   S1        1.0  0.16900  0.17400  0.22200  1.0000
  S   S2        1.0  0.66900  0.32600  0.22200  1.0000
  S   S3        1.0  0.33100  0.67400  0.72200  1.0000
  S   S4        1.0  0.83100  0.82600  0.72200  1.0000
