data_image0
_chemical_formula_structural       As3H5O10
_chemical_formula_sum              "As3 H5 O10"
_cell_length_a       7.10556
_cell_length_b       5.61363
_cell_length_c       4.64216
_cell_angle_alpha    100.792
_cell_angle_beta     97.6966
_cell_angle_gamma    100.104

_space_group_name_H-M_alt    "P 1"
_space_group_IT_number       1

loop_
  _space_group_symop_operation_xyz
  'x, y, z'

loop_
  _atom_site_type_symbol
  _atom_site_label
  _atom_site_symmetry_multiplicity
  _atom_site_fract_x
  _atom_site_fract_y
  _atom_site_fract_z
  _atom_site_occupancy
  As  As1       1.0  0.77400  0.76300  0.11000  1.0000
  As  As2       1.0  0.50000  0.50000  0.50000  1.0000
  As  As3       1.0  0.22600  0.23700  0.89000  1.0000
  H   H1        1.0  0.00000  0.50000  0.00000  1.0000
  H   H2        1.0  0.89400  0.17300  0.22900  1.0000
  H   H3        1.0  0.32500  0.80400  0.42600  1.0000
  H   H4        1.0  0.67500  0.19600  0.57400  1.0000
  H   H5        1.0  0.10600  0.82700  0.77100  1.0000
  O   O1        1.0  0.01510  0.29000  0.00341  1.0000
  O   O2        1.0  0.39700  0.22400  0.18500  1.0000
  O   O3        1.0  0.39600  0.70100  0.29800  1.0000
  O   O4        1.0  0.72800  0.55500  0.33400  1.0000
  O   O5        1.0  0.81700  0.05760  0.33700  1.0000
  O   O6        1.0  0.18300  0.94200  0.66300  1.0000
  O   O7        1.0  0.27200  0.44500  0.66600  1.0000
  O   O8        1.0  0.60400  0.29900  0.70200  1.0000
  O   O9        1.0  0.60300  0.77600  0.81500  1.0000
  O   O10       1.0  0.98500  0.71000  0.99700  1.0000
