data_image0
_chemical_formula_structural       Cu4K4O4
_chemical_formula_sum              "Cu4 K4 O4"
_cell_length_a       5.43111
_cell_length_b       7.09561
_cell_length_c       7.09561
_cell_angle_alpha    98.4222
_cell_angle_beta     67.4984
_cell_angle_gamma    112.502

_space_group_name_H-M_alt    "P 1"
_space_group_IT_number       1

loop_
  _space_group_symop_operation_xyz
  'x, y, z'

loop_
  _atom_site_type_symbol
  _atom_site_label
  _atom_site_symmetry_multiplicity
  _atom_site_fract_x
  _atom_site_fract_y
  _atom_site_fract_z
  _atom_site_occupancy
  Cu  Cu1       1.0  0.13800  0.27700  0.00000  1.0000
  Cu  Cu2       1.0  0.86200  0.72300  0.00000  1.0000
  Cu  Cu3       1.0  0.86200  0.00000  0.27700  1.0000
  Cu  Cu4       1.0  0.13800  0.00000  0.72300  1.0000
  K   K1        1.0  0.50000  0.31100  0.31100  1.0000
  K   K2        1.0  0.18900  0.68900  0.31100  1.0000
  K   K3        1.0  0.81100  0.31100  0.68900  1.0000
  K   K4        1.0  0.50000  0.68900  0.68900  1.0000
  O   O1        1.0  0.72100  0.72100  0.27900  1.0000
  O   O2        1.0  0.00000  0.27900  0.27900  1.0000
  O   O3        1.0  0.27900  0.27900  0.72100  1.0000
  O   O4        1.0  0.00000  0.72100  0.72100  1.0000
