data_image0
_chemical_formula_structural       H6Li2O4
_chemical_formula_sum              "H6 Li2 O4"
_cell_length_a       3.10496
_cell_length_b       5.43607
_cell_length_c       5.43607
_cell_angle_alpha    96.4405
_cell_angle_beta     103.269
_cell_angle_gamma    103.269

_space_group_name_H-M_alt    "P 1"
_space_group_IT_number       1

loop_
  _space_group_symop_operation_xyz
  'x, y, z'

loop_
  _atom_site_type_symbol
  _atom_site_label
  _atom_site_symmetry_multiplicity
  _atom_site_fract_x
  _atom_site_fract_y
  _atom_site_fract_z
  _atom_site_occupancy
  H   H1        1.0  0.85500  0.75300  0.01450  1.0000
  H   H2        1.0  0.14500  0.98600  0.24700  1.0000
  H   H3        1.0  0.68300  0.26400  0.26400  1.0000
  H   H4        1.0  0.31700  0.73600  0.73600  1.0000
  H   H5        1.0  0.85500  0.01450  0.75300  1.0000
  H   H6        1.0  0.14500  0.24700  0.98600  1.0000
  Li  Li1       1.0  0.50000  0.65400  0.34600  1.0000
  Li  Li2       1.0  0.50000  0.34600  0.65400  1.0000
  O   O1        1.0  0.00000  0.79200  0.20800  1.0000
  O   O2        1.0  0.38600  0.28200  0.28200  1.0000
  O   O3        1.0  0.61400  0.71800  0.71800  1.0000
  O   O4        1.0  0.00000  0.20800  0.79200  1.0000
