data_image0
_chemical_formula_structural       Ni4S4Sb4
_chemical_formula_sum              "Ni4 S4 Sb4"
_cell_length_a       5.94722
_cell_length_b       5.94722
_cell_length_c       5.94722
_cell_angle_alpha    90
_cell_angle_beta     90
_cell_angle_gamma    90

_space_group_name_H-M_alt    "P 1"
_space_group_IT_number       1

loop_
  _space_group_symop_operation_xyz
  'x, y, z'

loop_
  _atom_site_type_symbol
  _atom_site_label
  _atom_site_symmetry_multiplicity
  _atom_site_fract_x
  _atom_site_fract_y
  _atom_site_fract_z
  _atom_site_occupancy
  Ni  Ni1       1.0  0.52000  0.48000  0.98000  1.0000
  Ni  Ni2       1.0  0.01960  0.01960  0.01960  1.0000
  Ni  Ni3       1.0  0.98000  0.52000  0.48000  1.0000
  Ni  Ni4       1.0  0.48000  0.98000  0.52000  1.0000
  S   S1        1.0  0.88100  0.38100  0.11900  1.0000
  S   S2        1.0  0.11900  0.88100  0.38100  1.0000
  S   S3        1.0  0.61900  0.61900  0.61900  1.0000
  S   S4        1.0  0.38100  0.11900  0.88100  1.0000
  Sb  Sb1       1.0  0.63000  0.87000  0.13000  1.0000
  Sb  Sb2       1.0  0.37000  0.37000  0.37000  1.0000
  Sb  Sb3       1.0  0.87000  0.13000  0.63000  1.0000
  Sb  Sb4       1.0  0.13000  0.63000  0.87000  1.0000
