data_image0
_chemical_formula_structural       Cr4Si4U2
_chemical_formula_sum              "Cr4 Si4 U2"
_cell_length_a       4.91649
_cell_length_b       4.42487
_cell_length_c       10.1185
_cell_angle_alpha    88.3505
_cell_angle_beta     119.263
_cell_angle_gamma    59.2077

_space_group_name_H-M_alt    "P 1"
_space_group_IT_number       1

loop_
  _space_group_symop_operation_xyz
  'x, y, z'

loop_
  _atom_site_type_symbol
  _atom_site_label
  _atom_site_symmetry_multiplicity
  _atom_site_fract_x
  _atom_site_fract_y
  _atom_site_fract_z
  _atom_site_occupancy
  Cr  Cr1       1.0  0.61600  0.19400  0.09720  1.0000
  Cr  Cr2       1.0  0.88200  0.30700  0.40300  1.0000
  Cr  Cr3       1.0  0.11800  0.69300  0.59700  1.0000
  Cr  Cr4       1.0  0.38400  0.80600  0.90300  1.0000
  Si  Si1       1.0  0.91100  0.51900  0.19100  1.0000
  Si  Si2       1.0  0.58800  0.98100  0.30900  1.0000
  Si  Si3       1.0  0.41200  0.01900  0.69100  1.0000
  Si  Si4       1.0  0.08930  0.48100  0.80900  1.0000
  U   U1        1.0  0.00000  0.00026  0.00000  1.0000
  U   U2        1.0  0.50000  0.50000  0.50000  1.0000
