data_image0
_chemical_formula_structural       I4Sb4Se4
_chemical_formula_sum              "I4 Sb4 Se4"
_cell_length_a       8.99934
_cell_length_b       10.796
_cell_length_c       4.18493
_cell_angle_alpha    90
_cell_angle_beta     90
_cell_angle_gamma    90

_space_group_name_H-M_alt    "P 1"
_space_group_IT_number       1

loop_
  _space_group_symop_operation_xyz
  'x, y, z'

loop_
  _atom_site_type_symbol
  _atom_site_label
  _atom_site_symmetry_multiplicity
  _atom_site_fract_x
  _atom_site_fract_y
  _atom_site_fract_z
  _atom_site_occupancy
  I   I1        1.0  0.01830  0.67900  0.25000  1.0000
  I   I2        1.0  0.51800  0.82100  0.25000  1.0000
  I   I3        1.0  0.48200  0.17900  0.75000  1.0000
  I   I4        1.0  0.98200  0.32100  0.75000  1.0000
  Sb  Sb1       1.0  0.11000  0.12900  0.25000  1.0000
  Sb  Sb2       1.0  0.61000  0.37100  0.25000  1.0000
  Sb  Sb3       1.0  0.39000  0.62900  0.75000  1.0000
  Sb  Sb4       1.0  0.89000  0.87100  0.75000  1.0000
  Se  Se1       1.0  0.83400  0.04270  0.25000  1.0000
  Se  Se2       1.0  0.33400  0.45700  0.25000  1.0000
  Se  Se3       1.0  0.66600  0.54300  0.75000  1.0000
  Se  Se4       1.0  0.16600  0.95700  0.75000  1.0000
