data_image0
_chemical_formula_structural       C4Fe2H4N8
_chemical_formula_sum              "C4 Fe2 H4 N8"
_cell_length_a       6.55576
_cell_length_b       8.64977
_cell_length_c       3.2792
_cell_angle_alpha    90
_cell_angle_beta     90
_cell_angle_gamma    90

_space_group_name_H-M_alt    "P 1"
_space_group_IT_number       1

loop_
  _space_group_symop_operation_xyz
  'x, y, z'

loop_
  _atom_site_type_symbol
  _atom_site_label
  _atom_site_symmetry_multiplicity
  _atom_site_fract_x
  _atom_site_fract_y
  _atom_site_fract_z
  _atom_site_occupancy
  C   C1        1.0  0.83400  0.34700  0.00000  1.0000
  C   C2        1.0  0.16600  0.65300  0.00000  1.0000
  C   C3        1.0  0.33400  0.15300  0.50000  1.0000
  C   C4        1.0  0.66600  0.84700  0.50000  1.0000
  Fe  Fe1       1.0  0.00000  0.00000  0.00000  1.0000
  Fe  Fe2       1.0  0.50000  0.50000  0.50000  1.0000
  H   H1        1.0  0.19000  0.42800  0.00000  1.0000
  H   H2        1.0  0.81000  0.57200  0.00000  1.0000
  H   H3        1.0  0.69000  0.07210  0.50000  1.0000
  H   H4        1.0  0.31000  0.92800  0.50000  1.0000
  N   N1        1.0  0.92200  0.22700  0.00000  1.0000
  N   N2        1.0  0.72600  0.47200  0.00000  1.0000
  N   N3        1.0  0.27400  0.52800  0.00000  1.0000
  N   N4        1.0  0.07780  0.77300  0.00000  1.0000
  N   N5        1.0  0.22600  0.02790  0.50000  1.0000
  N   N6        1.0  0.42200  0.27300  0.50000  1.0000
  N   N7        1.0  0.57800  0.72700  0.50000  1.0000
  N   N8        1.0  0.77400  0.97200  0.50000  1.0000
