data_image0
_chemical_formula_structural       Cl2CsKO8
_chemical_formula_sum              "Cl2 Cs1 K1 O8"
_cell_length_a       5.61873
_cell_length_b       5.61873
_cell_length_c       7.65478
_cell_angle_alpha    90
_cell_angle_beta     111.531
_cell_angle_gamma    120

_space_group_name_H-M_alt    "P 1"
_space_group_IT_number       1

loop_
  _space_group_symop_operation_xyz
  'x, y, z'

loop_
  _atom_site_type_symbol
  _atom_site_label
  _atom_site_symmetry_multiplicity
  _atom_site_fract_x
  _atom_site_fract_y
  _atom_site_fract_z
  _atom_site_occupancy
  Cl  Cl1       1.0  0.46900  0.73500  0.20400  1.0000
  Cl  Cl2       1.0  0.53100  0.26500  0.79600  1.0000
  Cs  Cs1       1.0  0.00000  0.50000  0.50000  1.0000
  K   K1        1.0  0.00000  0.00000  0.00000  1.0000
  O   O1        1.0  0.67100  0.33500  0.00646  1.0000
  O   O2        1.0  0.37600  0.47600  0.27600  1.0000
  O   O3        1.0  0.79900  0.90000  0.27600  1.0000
  O   O4        1.0  0.37600  0.90000  0.27600  1.0000
  O   O5        1.0  0.62400  0.10000  0.72400  1.0000
  O   O6        1.0  0.20100  0.10000  0.72400  1.0000
  O   O7        1.0  0.62400  0.52400  0.72400  1.0000
  O   O8        1.0  0.32900  0.66500  0.99400  1.0000
