data_image0
_chemical_formula_structural       B2Ca3Ni7
_chemical_formula_sum              "B2 Ca3 Ni7"
_cell_length_a       5.14918
_cell_length_b       5.14918
_cell_length_c       7.72282
_cell_angle_alpha    90
_cell_angle_beta     70.5263
_cell_angle_gamma    120

_space_group_name_H-M_alt    "P 1"
_space_group_IT_number       1

loop_
  _space_group_symop_operation_xyz
  'x, y, z'

loop_
  _atom_site_type_symbol
  _atom_site_label
  _atom_site_symmetry_multiplicity
  _atom_site_fract_x
  _atom_site_fract_y
  _atom_site_fract_z
  _atom_site_occupancy
  B   B1        1.0  0.33800  0.16900  0.49300  1.0000
  B   B2        1.0  0.66200  0.83100  0.50700  1.0000
  Ca  Ca1       1.0  0.29000  0.64500  0.06540  1.0000
  Ca  Ca2       1.0  1.00000  0.50000  0.50000  1.0000
  Ca  Ca3       1.0  0.71000  0.35500  0.93500  1.0000
  Ni  Ni1       1.0  0.00000  0.00000  0.00000  1.0000
  Ni  Ni2       1.0  0.12200  0.06100  0.30600  1.0000
  Ni  Ni3       1.0  0.63300  0.06100  0.30600  1.0000
  Ni  Ni4       1.0  0.63300  0.57200  0.30600  1.0000
  Ni  Ni5       1.0  0.36700  0.42800  0.69400  1.0000
  Ni  Ni6       1.0  0.36700  0.93900  0.69400  1.0000
  Ni  Ni7       1.0  0.87800  0.93900  0.69400  1.0000
