data_image0
_chemical_formula_structural       La2Nb2O8
_chemical_formula_sum              "La2 Nb2 O8"
_cell_length_a       5.20879
_cell_length_b       5.55311
_cell_length_c       6.80987
_cell_angle_alpha    112.287
_cell_angle_beta     110.615
_cell_angle_gamma    94.2701

_space_group_name_H-M_alt    "P 1"
_space_group_IT_number       1

loop_
  _space_group_symop_operation_xyz
  'x, y, z'

loop_
  _atom_site_type_symbol
  _atom_site_label
  _atom_site_symmetry_multiplicity
  _atom_site_fract_x
  _atom_site_fract_y
  _atom_site_fract_z
  _atom_site_occupancy
  La  La1       1.0  0.88000  0.63000  0.25900  1.0000
  La  La2       1.0  0.12000  0.37000  0.74100  1.0000
  Nb  Nb1       1.0  0.35300  0.10300  0.20700  1.0000
  Nb  Nb2       1.0  0.64700  0.89700  0.79300  1.0000
  O   O1        1.0  0.07950  0.27100  0.06320  1.0000
  O   O2        1.0  0.48400  0.79200  0.06320  1.0000
  O   O3        1.0  0.21700  0.05540  0.41400  1.0000
  O   O4        1.0  0.69700  0.35800  0.41400  1.0000
  O   O5        1.0  0.30300  0.64200  0.58600  1.0000
  O   O6        1.0  0.78300  0.94500  0.58600  1.0000
  O   O7        1.0  0.51600  0.20800  0.93700  1.0000
  O   O8        1.0  0.92100  0.72900  0.93700  1.0000
