data_image0
_chemical_formula_structural       Ag2As2Hg2S6
_chemical_formula_sum              "Ag2 As2 Hg2 S6"
_cell_length_a       6.65997
_cell_length_b       6.65997
_cell_length_c       7.87219
_cell_angle_alpha    102.06
_cell_angle_beta     102.06
_cell_angle_gamma    118.739

_space_group_name_H-M_alt    "P 1"
_space_group_IT_number       1

loop_
  _space_group_symop_operation_xyz
  'x, y, z'

loop_
  _atom_site_type_symbol
  _atom_site_label
  _atom_site_symmetry_multiplicity
  _atom_site_fract_x
  _atom_site_fract_y
  _atom_site_fract_z
  _atom_site_occupancy
  Ag  Ag1       1.0  0.97500  0.01920  0.24800  1.0000
  Ag  Ag2       1.0  0.01920  0.97500  0.74800  1.0000
  As  As1       1.0  0.62000  0.33200  0.21000  1.0000
  As  As2       1.0  0.33200  0.62000  0.71000  1.0000
  Hg  Hg1       1.0  0.28300  0.65500  0.21200  1.0000
  Hg  Hg2       1.0  0.65500  0.28300  0.71200  1.0000
  S   S1        1.0  0.81800  0.24900  0.02100  1.0000
  S   S2        1.0  0.23200  0.98500  0.06090  1.0000
  S   S3        1.0  0.56500  0.58600  0.08000  1.0000
  S   S4        1.0  0.24900  0.81800  0.52100  1.0000
  S   S5        1.0  0.98500  0.23200  0.56100  1.0000
  S   S6        1.0  0.58600  0.56500  0.58000  1.0000
