data_image0
_chemical_formula_structural       Ba4Br4Cl4
_chemical_formula_sum              "Ba4 Br4 Cl4"
_cell_length_a       8.14352
_cell_length_b       5.01656
_cell_length_c       10.1571
_cell_angle_alpha    90
_cell_angle_beta     90
_cell_angle_gamma    90

_space_group_name_H-M_alt    "P 1"
_space_group_IT_number       1

loop_
  _space_group_symop_operation_xyz
  'x, y, z'

loop_
  _atom_site_type_symbol
  _atom_site_label
  _atom_site_symmetry_multiplicity
  _atom_site_fract_x
  _atom_site_fract_y
  _atom_site_fract_z
  _atom_site_occupancy
  Ba  Ba1       1.0  0.22900  0.25000  0.09710  1.0000
  Ba  Ba2       1.0  0.72900  0.25000  0.40300  1.0000
  Ba  Ba3       1.0  0.27100  0.75000  0.59700  1.0000
  Ba  Ba4       1.0  0.77100  0.75000  0.90300  1.0000
  Br  Br1       1.0  0.63800  0.25000  0.08850  1.0000
  Br  Br2       1.0  0.13800  0.25000  0.41200  1.0000
  Br  Br3       1.0  0.86200  0.75000  0.58800  1.0000
  Br  Br4       1.0  0.36200  0.75000  0.91200  1.0000
  Cl  Cl1       1.0  0.99600  0.75000  0.15200  1.0000
  Cl  Cl2       1.0  0.49600  0.75000  0.34800  1.0000
  Cl  Cl3       1.0  0.50400  0.25000  0.65200  1.0000
  Cl  Cl4       1.0  0.00428  0.25000  0.84800  1.0000
