data_image0
_chemical_formula_structural       Ag4K4O4
_chemical_formula_sum              "Ag4 K4 O4"
_cell_length_a       5.43095
_cell_length_b       7.49993
_cell_length_c       7.49993
_cell_angle_alpha    97.5327
_cell_angle_beta     68.7728
_cell_angle_gamma    111.227

_space_group_name_H-M_alt    "P 1"
_space_group_IT_number       1

loop_
  _space_group_symop_operation_xyz
  'x, y, z'

loop_
  _atom_site_type_symbol
  _atom_site_label
  _atom_site_symmetry_multiplicity
  _atom_site_fract_x
  _atom_site_fract_y
  _atom_site_fract_z
  _atom_site_occupancy
  Ag  Ag1       1.0  0.89900  0.50000  0.20200  1.0000
  Ag  Ag2       1.0  0.60100  0.20200  0.50000  1.0000
  Ag  Ag3       1.0  0.89900  0.79800  0.50000  1.0000
  Ag  Ag4       1.0  0.60100  0.50000  0.79800  1.0000
  K   K1        1.0  0.25000  0.17900  0.17900  1.0000
  K   K2        1.0  0.57100  0.82100  0.17900  1.0000
  K   K3        1.0  0.93000  0.17900  0.82100  1.0000
  K   K4        1.0  0.25000  0.82100  0.82100  1.0000
  O   O1        1.0  0.75300  0.20300  0.20300  1.0000
  O   O2        1.0  0.04390  0.79700  0.20300  1.0000
  O   O3        1.0  0.45000  0.20300  0.79700  1.0000
  O   O4        1.0  0.75300  0.79700  0.79700  1.0000
