data_image0
_chemical_formula_structural       Na2Pd6Si4
_chemical_formula_sum              "Na2 Pd6 Si4"
_cell_length_a       5.72652
_cell_length_b       6.70009
_cell_length_c       6.70009
_cell_angle_alpha    94.3033
_cell_angle_beta     115.299
_cell_angle_gamma    115.299

_space_group_name_H-M_alt    "P 1"
_space_group_IT_number       1

loop_
  _space_group_symop_operation_xyz
  'x, y, z'

loop_
  _atom_site_type_symbol
  _atom_site_label
  _atom_site_symmetry_multiplicity
  _atom_site_fract_x
  _atom_site_fract_y
  _atom_site_fract_z
  _atom_site_occupancy
  Na  Na1       1.0  0.95600  0.00000  0.00000  1.0000
  Na  Na2       1.0  0.51900  0.50000  0.50000  1.0000
  Pd  Pd1       1.0  0.54500  0.54800  0.05020  1.0000
  Pd  Pd2       1.0  0.78300  0.28200  0.28200  1.0000
  Pd  Pd3       1.0  0.94700  0.95000  0.45200  1.0000
  Pd  Pd4       1.0  0.54500  0.05020  0.54800  1.0000
  Pd  Pd5       1.0  0.21900  0.71800  0.71800  1.0000
  Pd  Pd6       1.0  0.94700  0.45200  0.95000  1.0000
  Si  Si1       1.0  0.43800  0.84400  0.15600  1.0000
  Si  Si2       1.0  0.07300  0.68900  0.31100  1.0000
  Si  Si3       1.0  0.07300  0.31100  0.68900  1.0000
  Si  Si4       1.0  0.43800  0.15600  0.84400  1.0000
