data_image0
_chemical_formula_structural       Ca8Ge4
_chemical_formula_sum              "Ca8 Ge4"
_cell_length_a       7.66945
_cell_length_b       4.84274
_cell_length_c       9.07565
_cell_angle_alpha    90
_cell_angle_beta     90
_cell_angle_gamma    90

_space_group_name_H-M_alt    "P 1"
_space_group_IT_number       1

loop_
  _space_group_symop_operation_xyz
  'x, y, z'

loop_
  _atom_site_type_symbol
  _atom_site_label
  _atom_site_symmetry_multiplicity
  _atom_site_fract_x
  _atom_site_fract_y
  _atom_site_fract_z
  _atom_site_occupancy
  Ca  Ca1       1.0  0.65400  0.25000  0.07380  1.0000
  Ca  Ca2       1.0  0.97900  0.75000  0.17700  1.0000
  Ca  Ca3       1.0  0.47900  0.75000  0.32300  1.0000
  Ca  Ca4       1.0  0.15400  0.25000  0.42600  1.0000
  Ca  Ca5       1.0  0.84600  0.75000  0.57400  1.0000
  Ca  Ca6       1.0  0.52100  0.25000  0.67700  1.0000
  Ca  Ca7       1.0  0.02130  0.25000  0.82300  1.0000
  Ca  Ca8       1.0  0.34600  0.75000  0.92600  1.0000
  Ge  Ge1       1.0  0.25400  0.25000  0.10700  1.0000
  Ge  Ge2       1.0  0.75400  0.25000  0.39300  1.0000
  Ge  Ge3       1.0  0.24600  0.75000  0.60700  1.0000
  Ge  Ge4       1.0  0.74600  0.75000  0.89300  1.0000
