data_image0
_chemical_formula_structural       Ba2Br4H8O4
_chemical_formula_sum              "Ba2 Br4 H8 O4"
_cell_length_a       6.32326
_cell_length_b       6.32326
_cell_length_c       8.3289
_cell_angle_alpha    109.184
_cell_angle_beta     70.8164
_cell_angle_gamma    111.651

_space_group_name_H-M_alt    "P 1"
_space_group_IT_number       1

loop_
  _space_group_symop_operation_xyz
  'x, y, z'

loop_
  _atom_site_type_symbol
  _atom_site_label
  _atom_site_symmetry_multiplicity
  _atom_site_fract_x
  _atom_site_fract_y
  _atom_site_fract_z
  _atom_site_occupancy
  Ba  Ba1       1.0  0.10100  0.10100  0.25000  1.0000
  Ba  Ba2       1.0  0.89900  0.89900  0.75000  1.0000
  Br  Br1       1.0  0.69400  0.26200  0.15000  1.0000
  Br  Br2       1.0  0.26200  0.69400  0.35000  1.0000
  Br  Br3       1.0  0.73800  0.30600  0.65000  1.0000
  Br  Br4       1.0  0.30600  0.73800  0.85000  1.0000
  H   H1        1.0  0.77000  0.59100  0.05030  1.0000
  H   H2        1.0  0.60800  0.75300  0.13200  1.0000
  H   H3        1.0  0.75300  0.60800  0.36800  1.0000
  H   H4        1.0  0.59100  0.77000  0.45000  1.0000
  H   H5        1.0  0.40900  0.23000  0.55000  1.0000
  H   H6        1.0  0.24700  0.39200  0.63200  1.0000
  H   H7        1.0  0.39200  0.24700  0.86800  1.0000
  H   H8        1.0  0.23000  0.40900  0.95000  1.0000
  O   O1        1.0  0.76500  0.74900  0.05800  1.0000
  O   O2        1.0  0.74900  0.76500  0.44200  1.0000
  O   O3        1.0  0.25100  0.23500  0.55800  1.0000
  O   O4        1.0  0.23500  0.25100  0.94200  1.0000
