data_image0
_chemical_formula_structural       Ir4S4Sb4
_chemical_formula_sum              "Ir4 S4 Sb4"
_cell_length_a       6.09514
_cell_length_b       6.09514
_cell_length_c       6.09514
_cell_angle_alpha    90
_cell_angle_beta     90
_cell_angle_gamma    90

_space_group_name_H-M_alt    "P 1"
_space_group_IT_number       1

loop_
  _space_group_symop_operation_xyz
  'x, y, z'

loop_
  _atom_site_type_symbol
  _atom_site_label
  _atom_site_symmetry_multiplicity
  _atom_site_fract_x
  _atom_site_fract_y
  _atom_site_fract_z
  _atom_site_occupancy
  Ir  Ir1       1.0  0.51400  0.48600  0.98600  1.0000
  Ir  Ir2       1.0  0.01410  0.01410  0.01410  1.0000
  Ir  Ir3       1.0  0.98600  0.51400  0.48600  1.0000
  Ir  Ir4       1.0  0.48600  0.98600  0.51400  1.0000
  S   S1        1.0  0.88400  0.38400  0.11600  1.0000
  S   S2        1.0  0.11600  0.88400  0.38400  1.0000
  S   S3        1.0  0.61600  0.61600  0.61600  1.0000
  S   S4        1.0  0.38400  0.11600  0.88400  1.0000
  Sb  Sb1       1.0  0.62400  0.87600  0.12400  1.0000
  Sb  Sb2       1.0  0.37600  0.37600  0.37600  1.0000
  Sb  Sb3       1.0  0.87600  0.12400  0.62400  1.0000
  Sb  Sb4       1.0  0.12400  0.62400  0.87600  1.0000
