data_image0
_chemical_formula_structural       B2F8Na2
_chemical_formula_sum              "B2 F8 Na2"
_cell_length_a       4.38528
_cell_length_b       4.38528
_cell_length_c       6.52263
_cell_angle_alpha    90
_cell_angle_beta     90
_cell_angle_gamma    84.5648

_space_group_name_H-M_alt    "P 1"
_space_group_IT_number       1

loop_
  _space_group_symop_operation_xyz
  'x, y, z'

loop_
  _atom_site_type_symbol
  _atom_site_label
  _atom_site_symmetry_multiplicity
  _atom_site_fract_x
  _atom_site_fract_y
  _atom_site_fract_z
  _atom_site_occupancy
  B   B1        1.0  0.85800  0.14200  0.25000  1.0000
  B   B2        1.0  0.14200  0.85800  0.75000  1.0000
  F   F1        1.0  0.71800  0.28200  0.07570  1.0000
  F   F2        1.0  0.17300  0.17800  0.25000  1.0000
  F   F3        1.0  0.82200  0.82700  0.25000  1.0000
  F   F4        1.0  0.71800  0.28200  0.42400  1.0000
  F   F5        1.0  0.28200  0.71800  0.57600  1.0000
  F   F6        1.0  0.17800  0.17300  0.75000  1.0000
  F   F7        1.0  0.82700  0.82200  0.75000  1.0000
  F   F8        1.0  0.28200  0.71800  0.92400  1.0000
  Na  Na1       1.0  0.35800  0.64200  0.25000  1.0000
  Na  Na2       1.0  0.64200  0.35800  0.75000  1.0000
