data_image0
_chemical_formula_structural       Re4Se8
_chemical_formula_sum              "Re4 Se8"
_cell_length_a       6.84028
_cell_length_b       6.64543
_cell_length_c       7.03462
_cell_angle_alpha    103.626
_cell_angle_beta     92.8659
_cell_angle_gamma    119.71

_space_group_name_H-M_alt    "P 1"
_space_group_IT_number       1

loop_
  _space_group_symop_operation_xyz
  'x, y, z'

loop_
  _atom_site_type_symbol
  _atom_site_label
  _atom_site_symmetry_multiplicity
  _atom_site_fract_x
  _atom_site_fract_y
  _atom_site_fract_z
  _atom_site_occupancy
  Re  Re1       1.0  0.31600  0.74700  0.49100  1.0000
  Re  Re2       1.0  0.29100  0.30300  0.49800  1.0000
  Re  Re3       1.0  0.70900  0.69700  0.50200  1.0000
  Re  Re4       1.0  0.68400  0.25300  0.50900  1.0000
  Se  Se1       1.0  0.37700  0.48200  0.21700  1.0000
  Se  Se2       1.0  0.33700  0.98700  0.24900  1.0000
  Se  Se3       1.0  0.88800  0.50300  0.28600  1.0000
  Se  Se4       1.0  0.86100  0.01960  0.31300  1.0000
  Se  Se5       1.0  0.13900  0.98000  0.68700  1.0000
  Se  Se6       1.0  0.11200  0.49700  0.71400  1.0000
  Se  Se7       1.0  0.66300  0.01280  0.75100  1.0000
  Se  Se8       1.0  0.62300  0.51800  0.78300  1.0000
