data_image0
_chemical_formula_structural       Ni2P6W4
_chemical_formula_sum              "Ni2 P6 W4"
_cell_length_a       3.24805
_cell_length_b       6.53615
_cell_length_c       8.53498
_cell_angle_alpha    104.601
_cell_angle_beta     90
_cell_angle_gamma    104.387

_space_group_name_H-M_alt    "P 1"
_space_group_IT_number       1

loop_
  _space_group_symop_operation_xyz
  'x, y, z'

loop_
  _atom_site_type_symbol
  _atom_site_label
  _atom_site_symmetry_multiplicity
  _atom_site_fract_x
  _atom_site_fract_y
  _atom_site_fract_z
  _atom_site_occupancy
  Ni  Ni1       1.0  0.50000  0.00000  0.00000  1.0000
  Ni  Ni2       1.0  0.00000  0.00000  0.50000  1.0000
  P   P1        1.0  0.68000  0.36000  0.15400  1.0000
  P   P2        1.0  0.98100  0.96200  0.19300  1.0000
  P   P3        1.0  0.37400  0.74800  0.43500  1.0000
  P   P4        1.0  0.62600  0.25200  0.56500  1.0000
  P   P5        1.0  0.01890  0.03780  0.80700  1.0000
  P   P6        1.0  0.32000  0.64000  0.84600  1.0000
  W   W1        1.0  0.32300  0.64700  0.13200  1.0000
  W   W2        1.0  0.17400  0.34900  0.37500  1.0000
  W   W3        1.0  0.82600  0.65100  0.62500  1.0000
  W   W4        1.0  0.67700  0.35300  0.86800  1.0000
