data_image0
_chemical_formula_structural       Mg4Si4Sr4
_chemical_formula_sum              "Mg4 Si4 Sr4"
_cell_length_a       7.81015
_cell_length_b       4.59019
_cell_length_c       8.49261
_cell_angle_alpha    90
_cell_angle_beta     90
_cell_angle_gamma    90

_space_group_name_H-M_alt    "P 1"
_space_group_IT_number       1

loop_
  _space_group_symop_operation_xyz
  'x, y, z'

loop_
  _atom_site_type_symbol
  _atom_site_label
  _atom_site_symmetry_multiplicity
  _atom_site_fract_x
  _atom_site_fract_y
  _atom_site_fract_z
  _atom_site_occupancy
  Mg  Mg1       1.0  0.64200  0.25000  0.06360  1.0000
  Mg  Mg2       1.0  0.14200  0.25000  0.43600  1.0000
  Mg  Mg3       1.0  0.85800  0.75000  0.56400  1.0000
  Mg  Mg4       1.0  0.35800  0.75000  0.93600  1.0000
  Si  Si1       1.0  0.28200  0.25000  0.11000  1.0000
  Si  Si2       1.0  0.78200  0.25000  0.39000  1.0000
  Si  Si3       1.0  0.21800  0.75000  0.61000  1.0000
  Si  Si4       1.0  0.71800  0.75000  0.89000  1.0000
  Sr  Sr1       1.0  0.98400  0.75000  0.18300  1.0000
  Sr  Sr2       1.0  0.48400  0.75000  0.31700  1.0000
  Sr  Sr3       1.0  0.51600  0.25000  0.68300  1.0000
  Sr  Sr4       1.0  0.01560  0.25000  0.81700  1.0000
