data_image0
_chemical_formula_structural       Bi4Pt4Te4
_chemical_formula_sum              "Bi4 Pt4 Te4"
_cell_length_a       6.75204
_cell_length_b       6.75204
_cell_length_c       6.75204
_cell_angle_alpha    90
_cell_angle_beta     90
_cell_angle_gamma    90

_space_group_name_H-M_alt    "P 1"
_space_group_IT_number       1

loop_
  _space_group_symop_operation_xyz
  'x, y, z'

loop_
  _atom_site_type_symbol
  _atom_site_label
  _atom_site_symmetry_multiplicity
  _atom_site_fract_x
  _atom_site_fract_y
  _atom_site_fract_z
  _atom_site_occupancy
  Bi  Bi1       1.0  0.63200  0.86800  0.13200  1.0000
  Bi  Bi2       1.0  0.36800  0.36800  0.36800  1.0000
  Bi  Bi3       1.0  0.86800  0.13200  0.63200  1.0000
  Bi  Bi4       1.0  0.13200  0.63200  0.86800  1.0000
  Pt  Pt1       1.0  0.00524  0.00524  0.00524  1.0000
  Pt  Pt2       1.0  0.99500  0.50500  0.49500  1.0000
  Pt  Pt3       1.0  0.49500  0.99500  0.50500  1.0000
  Pt  Pt4       1.0  0.50500  0.49500  0.99500  1.0000
  Te  Te1       1.0  0.87300  0.37300  0.12700  1.0000
  Te  Te2       1.0  0.12700  0.87300  0.37300  1.0000
  Te  Te3       1.0  0.62700  0.62700  0.62700  1.0000
  Te  Te4       1.0  0.37300  0.12700  0.87300  1.0000
