data_image0
_chemical_formula_structural       Cs8Te4
_chemical_formula_sum              "Cs8 Te4"
_cell_length_a       9.54936
_cell_length_b       5.89127
_cell_length_c       11.6228
_cell_angle_alpha    90
_cell_angle_beta     90
_cell_angle_gamma    90

_space_group_name_H-M_alt    "P 1"
_space_group_IT_number       1

loop_
  _space_group_symop_operation_xyz
  'x, y, z'

loop_
  _atom_site_type_symbol
  _atom_site_label
  _atom_site_symmetry_multiplicity
  _atom_site_fract_x
  _atom_site_fract_y
  _atom_site_fract_z
  _atom_site_occupancy
  Cs  Cs1       1.0  0.35100  0.75000  0.07350  1.0000
  Cs  Cs2       1.0  0.02520  0.25000  0.17400  1.0000
  Cs  Cs3       1.0  0.52500  0.25000  0.32600  1.0000
  Cs  Cs4       1.0  0.85100  0.75000  0.42700  1.0000
  Cs  Cs5       1.0  0.14900  0.25000  0.57300  1.0000
  Cs  Cs6       1.0  0.47500  0.75000  0.67400  1.0000
  Cs  Cs7       1.0  0.97500  0.75000  0.82600  1.0000
  Cs  Cs8       1.0  0.64900  0.25000  0.92700  1.0000
  Te  Te1       1.0  0.75300  0.75000  0.11200  1.0000
  Te  Te2       1.0  0.25300  0.75000  0.38800  1.0000
  Te  Te3       1.0  0.74700  0.25000  0.61200  1.0000
  Te  Te4       1.0  0.24700  0.25000  0.88800  1.0000
