data_image0
_chemical_formula_structural       Br2F10
_chemical_formula_sum              "Br2 F10"
_cell_length_a       4.46971
_cell_length_b       4.46971
_cell_length_c       7.24976
_cell_angle_alpha    90
_cell_angle_beta     90
_cell_angle_gamma    97.1183

_space_group_name_H-M_alt    "P 1"
_space_group_IT_number       1

loop_
  _space_group_symop_operation_xyz
  'x, y, z'

loop_
  _atom_site_type_symbol
  _atom_site_label
  _atom_site_symmetry_multiplicity
  _atom_site_fract_x
  _atom_site_fract_y
  _atom_site_fract_z
  _atom_site_occupancy
  Br  Br1       1.0  0.83200  0.16800  0.24500  1.0000
  Br  Br2       1.0  0.16800  0.83200  0.74500  1.0000
  F   F1        1.0  0.64000  0.36000  0.07680  1.0000
  F   F2        1.0  0.11300  0.49300  0.25100  1.0000
  F   F3        1.0  0.50700  0.88700  0.25100  1.0000
  F   F4        1.0  0.64300  0.35700  0.40800  1.0000
  F   F5        1.0  0.99500  0.00528  0.45800  1.0000
  F   F6        1.0  0.36000  0.64000  0.57700  1.0000
  F   F7        1.0  0.49300  0.11300  0.75100  1.0000
  F   F8        1.0  0.88700  0.50700  0.75100  1.0000
  F   F9        1.0  0.35700  0.64300  0.90800  1.0000
  F   F10       1.0  0.00528  0.99500  0.95800  1.0000
