data_image0
_chemical_formula_structural       B2Cl4H8K2Zn2
_chemical_formula_sum              "B2 Cl4 H8 K2 Zn2"
_cell_length_a       8.04632
_cell_length_b       5.91986
_cell_length_c       6.67239
_cell_angle_alpha    90
_cell_angle_beta     101.328
_cell_angle_gamma    90

_space_group_name_H-M_alt    "P 1"
_space_group_IT_number       1

loop_
  _space_group_symop_operation_xyz
  'x, y, z'

loop_
  _atom_site_type_symbol
  _atom_site_label
  _atom_site_symmetry_multiplicity
  _atom_site_fract_x
  _atom_site_fract_y
  _atom_site_fract_z
  _atom_site_occupancy
  B   B1        1.0  0.90700  0.75000  0.20200  1.0000
  B   B2        1.0  0.09270  0.25000  0.79800  1.0000
  Cl  Cl1       1.0  0.41100  0.75000  0.06010  1.0000
  Cl  Cl2       1.0  0.33600  0.25000  0.36100  1.0000
  Cl  Cl3       1.0  0.66400  0.75000  0.63900  1.0000
  Cl  Cl4       1.0  0.58900  0.25000  0.94000  1.0000
  H   H1        1.0  0.83200  0.57200  0.13400  1.0000
  H   H2        1.0  0.83200  0.92800  0.13400  1.0000
  H   H3        1.0  0.04050  0.75000  0.14400  1.0000
  H   H4        1.0  0.91000  0.75000  0.38500  1.0000
  H   H5        1.0  0.08960  0.25000  0.61500  1.0000
  H   H6        1.0  0.96000  0.25000  0.85600  1.0000
  H   H7        1.0  0.16800  0.07160  0.86600  1.0000
  H   H8        1.0  0.16800  0.42800  0.86600  1.0000
  K   K1        1.0  0.73600  0.25000  0.49100  1.0000
  K   K2        1.0  0.26400  0.75000  0.50900  1.0000
  Zn  Zn1       1.0  0.33000  0.25000  0.02490  1.0000
  Zn  Zn2       1.0  0.67000  0.75000  0.97500  1.0000
