data_image0
_chemical_formula_structural       Ca4Mg4Si4
_chemical_formula_sum              "Ca4 Mg4 Si4"
_cell_length_a       7.45565
_cell_length_b       4.43418
_cell_length_c       8.29328
_cell_angle_alpha    90
_cell_angle_beta     90
_cell_angle_gamma    90

_space_group_name_H-M_alt    "P 1"
_space_group_IT_number       1

loop_
  _space_group_symop_operation_xyz
  'x, y, z'

loop_
  _atom_site_type_symbol
  _atom_site_label
  _atom_site_symmetry_multiplicity
  _atom_site_fract_x
  _atom_site_fract_y
  _atom_site_fract_z
  _atom_site_occupancy
  Ca  Ca1       1.0  0.98100  0.75000  0.18100  1.0000
  Ca  Ca2       1.0  0.48100  0.75000  0.31900  1.0000
  Ca  Ca3       1.0  0.51900  0.25000  0.68100  1.0000
  Ca  Ca4       1.0  0.01910  0.25000  0.81900  1.0000
  Mg  Mg1       1.0  0.64500  0.25000  0.06420  1.0000
  Mg  Mg2       1.0  0.14500  0.25000  0.43600  1.0000
  Mg  Mg3       1.0  0.85500  0.75000  0.56400  1.0000
  Mg  Mg4       1.0  0.35500  0.75000  0.93600  1.0000
  Si  Si1       1.0  0.27000  0.25000  0.11500  1.0000
  Si  Si2       1.0  0.77000  0.25000  0.38500  1.0000
  Si  Si3       1.0  0.23000  0.75000  0.61500  1.0000
  Si  Si4       1.0  0.73000  0.75000  0.88500  1.0000
