data_image0
_chemical_formula_structural       Sb8Sm4
_chemical_formula_sum              "Sb8 Sm4"
_cell_length_a       4.37476
_cell_length_b       4.37476
_cell_length_c       18.1442
_cell_angle_alpha    90
_cell_angle_beta     90
_cell_angle_gamma    88.6934

_space_group_name_H-M_alt    "P 1"
_space_group_IT_number       1

loop_
  _space_group_symop_operation_xyz
  'x, y, z'

loop_
  _atom_site_type_symbol
  _atom_site_label
  _atom_site_symmetry_multiplicity
  _atom_site_fract_x
  _atom_site_fract_y
  _atom_site_fract_z
  _atom_site_occupancy
  Sb  Sb1       1.0  0.36300  0.63700  0.06410  1.0000
  Sb  Sb2       1.0  0.37600  0.12400  0.25000  1.0000
  Sb  Sb3       1.0  0.87600  0.62400  0.25000  1.0000
  Sb  Sb4       1.0  0.86300  0.13700  0.43600  1.0000
  Sb  Sb5       1.0  0.13700  0.86300  0.56400  1.0000
  Sb  Sb6       1.0  0.12400  0.37600  0.75000  1.0000
  Sb  Sb7       1.0  0.62400  0.87600  0.75000  1.0000
  Sb  Sb8       1.0  0.63700  0.36300  0.93600  1.0000
  Sm  Sm1       1.0  0.85900  0.14100  0.11000  1.0000
  Sm  Sm2       1.0  0.35900  0.64100  0.39000  1.0000
  Sm  Sm3       1.0  0.64100  0.35900  0.61000  1.0000
  Sm  Sm4       1.0  0.14100  0.85900  0.89000  1.0000
