data_image0
_chemical_formula_structural       H10K6Pt2
_chemical_formula_sum              "H10 K6 Pt2"
_cell_length_a       7.32125
_cell_length_b       7.32125
_cell_length_c       5.70817
_cell_angle_alpha    90
_cell_angle_beta     90
_cell_angle_gamma    90

_space_group_name_H-M_alt    "P 1"
_space_group_IT_number       1

loop_
  _space_group_symop_operation_xyz
  'x, y, z'

loop_
  _atom_site_type_symbol
  _atom_site_label
  _atom_site_symmetry_multiplicity
  _atom_site_fract_x
  _atom_site_fract_y
  _atom_site_fract_z
  _atom_site_occupancy
  H   H1        1.0  0.38500  0.11500  0.20300  1.0000
  H   H2        1.0  0.88500  0.38500  0.20300  1.0000
  H   H3        1.0  0.11500  0.61500  0.20300  1.0000
  H   H4        1.0  0.61500  0.88500  0.20300  1.0000
  H   H5        1.0  0.00000  0.00000  0.50000  1.0000
  H   H6        1.0  0.50000  0.50000  0.50000  1.0000
  H   H7        1.0  0.38500  0.11500  0.79700  1.0000
  H   H8        1.0  0.88500  0.38500  0.79700  1.0000
  H   H9        1.0  0.11500  0.61500  0.79700  1.0000
  H   H10       1.0  0.61500  0.88500  0.79700  1.0000
  K   K1        1.0  0.00000  0.00000  0.00000  1.0000
  K   K2        1.0  0.50000  0.50000  0.00000  1.0000
  K   K3        1.0  0.68400  0.18400  0.50000  1.0000
  K   K4        1.0  0.18400  0.31600  0.50000  1.0000
  K   K5        1.0  0.81600  0.68400  0.50000  1.0000
  K   K6        1.0  0.31600  0.81600  0.50000  1.0000
  Pt  Pt1       1.0  0.50000  0.00000  0.00000  1.0000
  Pt  Pt2       1.0  0.00000  0.50000  0.00000  1.0000
