data_image0
_chemical_formula_structural       H2Sb6Sm10
_chemical_formula_sum              "H2 Sb6 Sm10"
_cell_length_a       9.19582
_cell_length_b       9.19582
_cell_length_c       6.34006
_cell_angle_alpha    90
_cell_angle_beta     90
_cell_angle_gamma    120

_space_group_name_H-M_alt    "P 1"
_space_group_IT_number       1

loop_
  _space_group_symop_operation_xyz
  'x, y, z'

loop_
  _atom_site_type_symbol
  _atom_site_label
  _atom_site_symmetry_multiplicity
  _atom_site_fract_x
  _atom_site_fract_y
  _atom_site_fract_z
  _atom_site_occupancy
  H   H1        1.0  0.00000  0.00000  0.00000  1.0000
  H   H2        1.0  0.00000  0.00000  0.50000  1.0000
  Sb  Sb1       1.0  0.61400  0.00000  0.25000  1.0000
  Sb  Sb2       1.0  0.00000  0.61400  0.25000  1.0000
  Sb  Sb3       1.0  0.38600  0.38600  0.25000  1.0000
  Sb  Sb4       1.0  0.38600  0.00000  0.75000  1.0000
  Sb  Sb5       1.0  0.00000  0.38600  0.75000  1.0000
  Sb  Sb6       1.0  0.61400  0.61400  0.75000  1.0000
  Sm  Sm1       1.0  0.66700  0.33300  0.00000  1.0000
  Sm  Sm2       1.0  0.33300  0.66700  0.00000  1.0000
  Sm  Sm3       1.0  0.25300  0.00000  0.25000  1.0000
  Sm  Sm4       1.0  0.00000  0.25300  0.25000  1.0000
  Sm  Sm5       1.0  0.74700  0.74700  0.25000  1.0000
  Sm  Sm6       1.0  0.66700  0.33300  0.50000  1.0000
  Sm  Sm7       1.0  0.33300  0.66700  0.50000  1.0000
  Sm  Sm8       1.0  0.74700  0.00000  0.75000  1.0000
  Sm  Sm9       1.0  0.00000  0.74700  0.75000  1.0000
  Sm  Sm10      1.0  0.25300  0.25300  0.75000  1.0000
