data_image0
_chemical_formula_structural       Pd8Sn4
_chemical_formula_sum              "Pd8 Sn4"
_cell_length_a       5.71377
_cell_length_b       4.35957
_cell_length_c       8.19492
_cell_angle_alpha    90
_cell_angle_beta     90
_cell_angle_gamma    90

_space_group_name_H-M_alt    "P 1"
_space_group_IT_number       1

loop_
  _space_group_symop_operation_xyz
  'x, y, z'

loop_
  _atom_site_type_symbol
  _atom_site_label
  _atom_site_symmetry_multiplicity
  _atom_site_fract_x
  _atom_site_fract_y
  _atom_site_fract_z
  _atom_site_occupancy
  Pd  Pd1       1.0  0.32600  0.75000  0.06310  1.0000
  Pd  Pd2       1.0  0.04400  0.25000  0.21200  1.0000
  Pd  Pd3       1.0  0.54400  0.25000  0.28800  1.0000
  Pd  Pd4       1.0  0.82600  0.75000  0.43700  1.0000
  Pd  Pd5       1.0  0.17400  0.25000  0.56300  1.0000
  Pd  Pd6       1.0  0.45600  0.75000  0.71200  1.0000
  Pd  Pd7       1.0  0.95600  0.75000  0.78800  1.0000
  Pd  Pd8       1.0  0.67400  0.25000  0.93700  1.0000
  Sn  Sn1       1.0  0.79500  0.75000  0.10900  1.0000
  Sn  Sn2       1.0  0.29500  0.75000  0.39100  1.0000
  Sn  Sn3       1.0  0.70500  0.25000  0.60900  1.0000
  Sn  Sn4       1.0  0.20500  0.25000  0.89100  1.0000
