data_image0
_chemical_formula_structural       Re4S4Te4
_chemical_formula_sum              "Re4 S4 Te4"
_cell_length_a       7.17985
_cell_length_b       7.17985
_cell_length_c       7.17985
_cell_angle_alpha    120
_cell_angle_beta     90
_cell_angle_gamma    120

_space_group_name_H-M_alt    "P 1"
_space_group_IT_number       1

loop_
  _space_group_symop_operation_xyz
  'x, y, z'

loop_
  _atom_site_type_symbol
  _atom_site_label
  _atom_site_symmetry_multiplicity
  _atom_site_fract_x
  _atom_site_fract_y
  _atom_site_fract_z
  _atom_site_occupancy
  Re  Re1       1.0  0.59800  0.19500  0.40200  1.0000
  Re  Re2       1.0  0.20700  0.80500  0.40200  1.0000
  Re  Re3       1.0  0.59800  0.80500  0.40200  1.0000
  Re  Re4       1.0  0.59800  0.19500  0.79300  1.0000
  S   S1        1.0  0.37100  0.74200  0.11300  1.0000
  S   S2        1.0  0.88700  0.25800  0.62900  1.0000
  S   S3        1.0  0.37100  0.25800  0.62900  1.0000
  S   S4        1.0  0.37100  0.74200  0.62900  1.0000
  Te  Te1       1.0  0.38200  0.25500  0.12700  1.0000
  Te  Te2       1.0  0.87300  0.25500  0.12700  1.0000
  Te  Te3       1.0  0.87300  0.74500  0.12700  1.0000
  Te  Te4       1.0  0.87300  0.74500  0.61800  1.0000
