data_image0
_chemical_formula_structural       K3O8Ta
_chemical_formula_sum              "K3 O8 Ta1"
_cell_length_a       6.14276
_cell_length_b       6.14276
_cell_length_c       6.14276
_cell_angle_alpha    101.507
_cell_angle_beta     113.594
_cell_angle_gamma    113.594

_space_group_name_H-M_alt    "P 1"
_space_group_IT_number       1

loop_
  _space_group_symop_operation_xyz
  'x, y, z'

loop_
  _atom_site_type_symbol
  _atom_site_label
  _atom_site_symmetry_multiplicity
  _atom_site_fract_x
  _atom_site_fract_y
  _atom_site_fract_z
  _atom_site_occupancy
  K   K1        1.0  0.50000  0.75000  0.25000  1.0000
  K   K2        1.0  1.00000  0.50000  0.50000  1.0000
  K   K3        1.0  0.50000  0.25000  0.75000  1.0000
  O   O1        1.0  0.00000  0.33400  0.04930  1.0000
  O   O2        1.0  0.43300  0.19700  0.19700  1.0000
  O   O3        1.0  0.00000  0.80300  0.23700  1.0000
  O   O4        1.0  0.00000  0.04930  0.33400  1.0000
  O   O5        1.0  0.71500  0.66600  0.66600  1.0000
  O   O6        1.0  0.56700  0.76300  0.76300  1.0000
  O   O7        1.0  0.00000  0.23700  0.80300  1.0000
  O   O8        1.0  0.28500  0.95100  0.95100  1.0000
  Ta  Ta1       1.0  0.00000  0.00000  0.00000  1.0000
