data_image0
_chemical_formula_structural       S6Si2Tl4
_chemical_formula_sum              "S6 Si2 Tl4"
_cell_length_a       6.80194
_cell_length_b       6.8481
_cell_length_c       8.51361
_cell_angle_alpha    89.3465
_cell_angle_beta     112.294
_cell_angle_gamma    112.399

_space_group_name_H-M_alt    "P 1"
_space_group_IT_number       1

loop_
  _space_group_symop_operation_xyz
  'x, y, z'

loop_
  _atom_site_type_symbol
  _atom_site_label
  _atom_site_symmetry_multiplicity
  _atom_site_fract_x
  _atom_site_fract_y
  _atom_site_fract_z
  _atom_site_occupancy
  S   S1        1.0  0.25500  0.31200  0.10500  1.0000
  S   S2        1.0  0.50800  0.86400  0.27300  1.0000
  S   S3        1.0  0.24900  0.47400  0.49500  1.0000
  S   S4        1.0  0.75100  0.52600  0.50500  1.0000
  S   S5        1.0  0.49200  0.13600  0.72700  1.0000
  S   S6        1.0  0.74500  0.68800  0.89500  1.0000
  Si  Si1       1.0  0.43200  0.54700  0.32400  1.0000
  Si  Si2       1.0  0.56800  0.45300  0.67600  1.0000
  Tl  Tl1       1.0  0.73200  0.31400  0.10400  1.0000
  Tl  Tl2       1.0  0.12600  0.94800  0.32900  1.0000
  Tl  Tl3       1.0  0.87400  0.05220  0.67100  1.0000
  Tl  Tl4       1.0  0.26800  0.68600  0.89600  1.0000
