data_image0
_chemical_formula_structural       As4Rh4Ti4
_chemical_formula_sum              "As4 Rh4 Ti4"
_cell_length_a       6.36319
_cell_length_b       3.83664
_cell_length_c       7.43614
_cell_angle_alpha    90
_cell_angle_beta     90
_cell_angle_gamma    90

_space_group_name_H-M_alt    "P 1"
_space_group_IT_number       1

loop_
  _space_group_symop_operation_xyz
  'x, y, z'

loop_
  _atom_site_type_symbol
  _atom_site_label
  _atom_site_symmetry_multiplicity
  _atom_site_fract_x
  _atom_site_fract_y
  _atom_site_fract_z
  _atom_site_occupancy
  As  As1       1.0  0.25200  0.25000  0.12200  1.0000
  As  As2       1.0  0.75200  0.25000  0.37800  1.0000
  As  As3       1.0  0.24800  0.75000  0.62200  1.0000
  As  As4       1.0  0.74800  0.75000  0.87800  1.0000
  Rh  Rh1       1.0  0.85600  0.25000  0.06380  1.0000
  Rh  Rh2       1.0  0.35600  0.25000  0.43600  1.0000
  Rh  Rh3       1.0  0.64400  0.75000  0.56400  1.0000
  Rh  Rh4       1.0  0.14400  0.75000  0.93600  1.0000
  Ti  Ti1       1.0  0.53200  0.75000  0.18200  1.0000
  Ti  Ti2       1.0  0.03210  0.75000  0.31800  1.0000
  Ti  Ti3       1.0  0.96800  0.25000  0.68200  1.0000
  Ti  Ti4       1.0  0.46800  0.25000  0.81800  1.0000
