data_image0
_chemical_formula_structural       As2Pd10
_chemical_formula_sum              "As2 Pd10"
_cell_length_a       4.79174
_cell_length_b       4.79174
_cell_length_c       8.51689
_cell_angle_alpha    95.0927
_cell_angle_beta     95.0927
_cell_angle_gamma    108.823

_space_group_name_H-M_alt    "P 1"
_space_group_IT_number       1

loop_
  _space_group_symop_operation_xyz
  'x, y, z'

loop_
  _atom_site_type_symbol
  _atom_site_label
  _atom_site_symmetry_multiplicity
  _atom_site_fract_x
  _atom_site_fract_y
  _atom_site_fract_z
  _atom_site_occupancy
  As  As1       1.0  0.79400  0.74700  0.28800  1.0000
  As  As2       1.0  0.25300  0.20600  0.71200  1.0000
  Pd  Pd1       1.0  0.28000  0.23500  0.00785  1.0000
  Pd  Pd2       1.0  0.29700  0.77400  0.17400  1.0000
  Pd  Pd3       1.0  0.81900  0.25200  0.17400  1.0000
  Pd  Pd4       1.0  0.37400  0.32900  0.35300  1.0000
  Pd  Pd5       1.0  0.83800  0.16200  0.50000  1.0000
  Pd  Pd6       1.0  0.20800  0.79200  0.50000  1.0000
  Pd  Pd7       1.0  0.67100  0.62600  0.64700  1.0000
  Pd  Pd8       1.0  0.74800  0.18100  0.82600  1.0000
  Pd  Pd9       1.0  0.22600  0.70300  0.82600  1.0000
  Pd  Pd10      1.0  0.76500  0.72000  0.99200  1.0000
