data_image0
_chemical_formula_structural       Ba8Si4
_chemical_formula_sum              "Ba8 Si4"
_cell_length_a       8.49734
_cell_length_b       5.40096
_cell_length_c       10.1664
_cell_angle_alpha    90
_cell_angle_beta     90
_cell_angle_gamma    90

_space_group_name_H-M_alt    "P 1"
_space_group_IT_number       1

loop_
  _space_group_symop_operation_xyz
  'x, y, z'

loop_
  _atom_site_type_symbol
  _atom_site_label
  _atom_site_symmetry_multiplicity
  _atom_site_fract_x
  _atom_site_fract_y
  _atom_site_fract_z
  _atom_site_occupancy
  Ba  Ba1       1.0  0.85500  0.25000  0.08300  1.0000
  Ba  Ba2       1.0  0.52000  0.75000  0.17100  1.0000
  Ba  Ba3       1.0  0.02020  0.75000  0.32900  1.0000
  Ba  Ba4       1.0  0.35500  0.25000  0.41700  1.0000
  Ba  Ba5       1.0  0.64500  0.75000  0.58300  1.0000
  Ba  Ba6       1.0  0.98000  0.25000  0.67100  1.0000
  Ba  Ba7       1.0  0.48000  0.25000  0.82900  1.0000
  Ba  Ba8       1.0  0.14500  0.75000  0.91700  1.0000
  Si  Si1       1.0  0.25100  0.25000  0.10200  1.0000
  Si  Si2       1.0  0.75100  0.25000  0.39800  1.0000
  Si  Si3       1.0  0.24900  0.75000  0.60200  1.0000
  Si  Si4       1.0  0.74900  0.75000  0.89800  1.0000
