data_image0
_chemical_formula_structural       As8Rh4
_chemical_formula_sum              "As8 Rh4"
_cell_length_a       6.12502
_cell_length_b       6.14188
_cell_length_c       6.21911
_cell_angle_alpha    90
_cell_angle_beta     114.478
_cell_angle_gamma    90

_space_group_name_H-M_alt    "P 1"
_space_group_IT_number       1

loop_
  _space_group_symop_operation_xyz
  'x, y, z'

loop_
  _atom_site_type_symbol
  _atom_site_label
  _atom_site_symmetry_multiplicity
  _atom_site_fract_x
  _atom_site_fract_y
  _atom_site_fract_z
  _atom_site_occupancy
  As  As1       1.0  0.84300  0.12900  0.13000  1.0000
  As  As2       1.0  0.33900  0.37000  0.18300  1.0000
  As  As3       1.0  0.66100  0.87000  0.31700  1.0000
  As  As4       1.0  0.15700  0.62900  0.37000  1.0000
  As  As5       1.0  0.84300  0.37100  0.63000  1.0000
  As  As6       1.0  0.33900  0.13000  0.68300  1.0000
  As  As7       1.0  0.66100  0.63000  0.81700  1.0000
  As  As8       1.0  0.15700  0.87100  0.87000  1.0000
  Rh  Rh1       1.0  0.72800  0.50000  0.21000  1.0000
  Rh  Rh2       1.0  0.27200  0.00018  0.29000  1.0000
  Rh  Rh3       1.0  0.72800  0.00000  0.71000  1.0000
  Rh  Rh4       1.0  0.27200  0.50000  0.79000  1.0000
