data_image0
_chemical_formula_structural       B4C2U2
_chemical_formula_sum              "B4 C2 U2"
_cell_length_a       6.00852
_cell_length_b       3.50066
_cell_length_c       4.09508
_cell_angle_alpha    90
_cell_angle_beta     90
_cell_angle_gamma    90

_space_group_name_H-M_alt    "P 1"
_space_group_IT_number       1

loop_
  _space_group_symop_operation_xyz
  'x, y, z'

loop_
  _atom_site_type_symbol
  _atom_site_label
  _atom_site_symmetry_multiplicity
  _atom_site_fract_x
  _atom_site_fract_y
  _atom_site_fract_z
  _atom_site_occupancy
  B   B1        1.0  0.59900  0.50000  0.15900  1.0000
  B   B2        1.0  0.90100  0.50000  0.15900  1.0000
  B   B3        1.0  0.09870  0.50000  0.84100  1.0000
  B   B4        1.0  0.40100  0.50000  0.84100  1.0000
  C   C1        1.0  0.00000  0.50000  0.50000  1.0000
  C   C2        1.0  0.50000  0.50000  0.50000  1.0000
  U   U1        1.0  0.25000  0.00000  0.30300  1.0000
  U   U2        1.0  0.75000  0.00000  0.69700  1.0000
