data_image0
_chemical_formula_structural       Pd4Sb8
_chemical_formula_sum              "Pd4 Sb8"
_cell_length_a       6.54915
_cell_length_b       6.54915
_cell_length_c       6.54915
_cell_angle_alpha    90
_cell_angle_beta     90
_cell_angle_gamma    90

_space_group_name_H-M_alt    "P 1"
_space_group_IT_number       1

loop_
  _space_group_symop_operation_xyz
  'x, y, z'

loop_
  _atom_site_type_symbol
  _atom_site_label
  _atom_site_symmetry_multiplicity
  _atom_site_fract_x
  _atom_site_fract_y
  _atom_site_fract_z
  _atom_site_occupancy
  Pd  Pd1       1.0  0.00000  0.00000  0.00000  1.0000
  Pd  Pd2       1.0  0.50000  0.50000  0.00000  1.0000
  Pd  Pd3       1.0  0.50000  0.00000  0.50000  1.0000
  Pd  Pd4       1.0  0.00000  0.50000  0.50000  1.0000
  Sb  Sb1       1.0  0.87300  0.37300  0.12700  1.0000
  Sb  Sb2       1.0  0.62700  0.87300  0.12700  1.0000
  Sb  Sb3       1.0  0.37300  0.37300  0.37300  1.0000
  Sb  Sb4       1.0  0.12700  0.87300  0.37300  1.0000
  Sb  Sb5       1.0  0.87300  0.12700  0.62700  1.0000
  Sb  Sb6       1.0  0.62700  0.62700  0.62700  1.0000
  Sb  Sb7       1.0  0.37300  0.12700  0.87300  1.0000
  Sb  Sb8       1.0  0.12700  0.62700  0.87300  1.0000
