data_image0
_chemical_formula_structural       Na5O6Re
_chemical_formula_sum              "Na5 O6 Re1"
_cell_length_a       5.54267
_cell_length_b       5.54267
_cell_length_c       5.53511
_cell_angle_alpha    100.366
_cell_angle_beta     100.366
_cell_angle_gamma    118.859

_space_group_name_H-M_alt    "P 1"
_space_group_IT_number       1

loop_
  _space_group_symop_operation_xyz
  'x, y, z'

loop_
  _atom_site_type_symbol
  _atom_site_label
  _atom_site_symmetry_multiplicity
  _atom_site_fract_x
  _atom_site_fract_y
  _atom_site_fract_z
  _atom_site_occupancy
  Na  Na1       1.0  0.82300  0.17700  0.50000  1.0000
  Na  Na2       1.0  0.50000  0.50000  0.50000  1.0000
  Na  Na3       1.0  0.17700  0.82300  0.50000  1.0000
  Na  Na4       1.0  0.66500  0.33500  0.00000  1.0000
  Na  Na5       1.0  0.33500  0.66500  0.00000  1.0000
  O   O1        1.0  0.79600  0.79600  0.21000  1.0000
  O   O2        1.0  0.35400  0.07040  0.21700  1.0000
  O   O3        1.0  0.07040  0.35400  0.21700  1.0000
  O   O4        1.0  0.93000  0.64600  0.78300  1.0000
  O   O5        1.0  0.64600  0.93000  0.78300  1.0000
  O   O6        1.0  0.20400  0.20400  0.79000  1.0000
  Re  Re1       1.0  0.00000  0.00000  0.00000  1.0000
