data_image0
_chemical_formula_structural       As8Hf4
_chemical_formula_sum              "As8 Hf4"
_cell_length_a       6.81867
_cell_length_b       9.00663
_cell_length_c       3.70032
_cell_angle_alpha    90
_cell_angle_beta     90
_cell_angle_gamma    90

_space_group_name_H-M_alt    "P 1"
_space_group_IT_number       1

loop_
  _space_group_symop_operation_xyz
  'x, y, z'

loop_
  _atom_site_type_symbol
  _atom_site_label
  _atom_site_symmetry_multiplicity
  _atom_site_fract_x
  _atom_site_fract_y
  _atom_site_fract_z
  _atom_site_occupancy
  As  As1       1.0  0.08100  0.14700  0.25000  1.0000
  As  As2       1.0  0.58100  0.35300  0.25000  1.0000
  As  As3       1.0  0.12000  0.54300  0.25000  1.0000
  As  As4       1.0  0.62000  0.95700  0.25000  1.0000
  As  As5       1.0  0.38000  0.04290  0.75000  1.0000
  As  As6       1.0  0.88000  0.45700  0.75000  1.0000
  As  As7       1.0  0.41900  0.64700  0.75000  1.0000
  As  As8       1.0  0.91900  0.85300  0.75000  1.0000
  Hf  Hf1       1.0  0.72800  0.66200  0.25000  1.0000
  Hf  Hf2       1.0  0.22800  0.83800  0.25000  1.0000
  Hf  Hf3       1.0  0.77200  0.16200  0.75000  1.0000
  Hf  Hf4       1.0  0.27200  0.33800  0.75000  1.0000
