data_image0
_chemical_formula_structural       P8Rh4
_chemical_formula_sum              "P8 Rh4"
_cell_length_a       5.78385
_cell_length_b       5.83961
_cell_length_c       5.88581
_cell_angle_alpha    90
_cell_angle_beta     112.423
_cell_angle_gamma    90

_space_group_name_H-M_alt    "P 1"
_space_group_IT_number       1

loop_
  _space_group_symop_operation_xyz
  'x, y, z'

loop_
  _atom_site_type_symbol
  _atom_site_label
  _atom_site_symmetry_multiplicity
  _atom_site_fract_x
  _atom_site_fract_y
  _atom_site_fract_z
  _atom_site_occupancy
  P   P1        1.0  0.84000  0.12100  0.13100  1.0000
  P   P2        1.0  0.33400  0.37700  0.18900  1.0000
  P   P3        1.0  0.66600  0.87700  0.31100  1.0000
  P   P4        1.0  0.16000  0.62100  0.36900  1.0000
  P   P5        1.0  0.84000  0.37900  0.63100  1.0000
  P   P6        1.0  0.33400  0.12300  0.68900  1.0000
  P   P7        1.0  0.66600  0.62300  0.81100  1.0000
  P   P8        1.0  0.16000  0.87900  0.86900  1.0000
  Rh  Rh1       1.0  0.72800  0.50100  0.20900  1.0000
  Rh  Rh2       1.0  0.27200  0.00136  0.29100  1.0000
  Rh  Rh3       1.0  0.72800  0.99900  0.70900  1.0000
  Rh  Rh4       1.0  0.27200  0.49900  0.79100  1.0000
