data_image0
_chemical_formula_structural       Fe4P4Zr4
_chemical_formula_sum              "Fe4 P4 Zr4"
_cell_length_a       6.31919
_cell_length_b       3.75473
_cell_length_c       7.07776
_cell_angle_alpha    90
_cell_angle_beta     90
_cell_angle_gamma    90

_space_group_name_H-M_alt    "P 1"
_space_group_IT_number       1

loop_
  _space_group_symop_operation_xyz
  'x, y, z'

loop_
  _atom_site_type_symbol
  _atom_site_label
  _atom_site_symmetry_multiplicity
  _atom_site_fract_x
  _atom_site_fract_y
  _atom_site_fract_z
  _atom_site_occupancy
  Fe  Fe1       1.0  0.35400  0.75000  0.06210  1.0000
  Fe  Fe2       1.0  0.85400  0.75000  0.43800  1.0000
  Fe  Fe3       1.0  0.14600  0.25000  0.56200  1.0000
  Fe  Fe4       1.0  0.64600  0.25000  0.93800  1.0000
  P   P1        1.0  0.71700  0.75000  0.11100  1.0000
  P   P2        1.0  0.21700  0.75000  0.38900  1.0000
  P   P3        1.0  0.78300  0.25000  0.61100  1.0000
  P   P4        1.0  0.28300  0.25000  0.88900  1.0000
  Zr  Zr1       1.0  0.01460  0.25000  0.18500  1.0000
  Zr  Zr2       1.0  0.51500  0.25000  0.31500  1.0000
  Zr  Zr3       1.0  0.48500  0.75000  0.68500  1.0000
  Zr  Zr4       1.0  0.98500  0.75000  0.81500  1.0000
