data_image0
_chemical_formula_structural       Bi4PbTe7
_chemical_formula_sum              "Bi4 Pb1 Te7"
_cell_length_a       4.47219
_cell_length_b       4.47201
_cell_length_c       24.1337
_cell_angle_alpha    90
_cell_angle_beta     90.0043
_cell_angle_gamma    119.999

_space_group_name_H-M_alt    "P 1"
_space_group_IT_number       1

loop_
  _space_group_symop_operation_xyz
  'x, y, z'

loop_
  _atom_site_type_symbol
  _atom_site_label
  _atom_site_symmetry_multiplicity
  _atom_site_fract_x
  _atom_site_fract_y
  _atom_site_fract_z
  _atom_site_occupancy
  Bi  Bi1       1.0  0.66700  0.33300  0.16600  1.0000
  Bi  Bi2       1.0  0.66700  0.33300  0.41600  1.0000
  Bi  Bi3       1.0  0.33300  0.66700  0.58400  1.0000
  Bi  Bi4       1.0  0.33300  0.66700  0.83400  1.0000
  Pb  Pb1       1.0  0.00000  0.00000  0.00000  1.0000
  Te  Te1       1.0  0.33300  0.66700  0.08230  1.0000
  Te  Te2       1.0  0.00000  0.00000  0.23600  1.0000
  Te  Te3       1.0  0.33300  0.66700  0.34600  1.0000
  Te  Te4       1.0  0.00000  0.00000  0.50000  1.0000
  Te  Te5       1.0  0.66700  0.33300  0.65400  1.0000
  Te  Te6       1.0  0.00002  0.00001  0.76400  1.0000
  Te  Te7       1.0  0.66700  0.33300  0.91800  1.0000
