data_image0
_chemical_formula_structural       Cs6H10Zn2
_chemical_formula_sum              "Cs6 H10 Zn2"
_cell_length_a       8.19739
_cell_length_b       8.19739
_cell_length_c       8.39144
_cell_angle_alpha    119.238
_cell_angle_beta     119.238
_cell_angle_gamma    90

_space_group_name_H-M_alt    "P 1"
_space_group_IT_number       1

loop_
  _space_group_symop_operation_xyz
  'x, y, z'

loop_
  _atom_site_type_symbol
  _atom_site_label
  _atom_site_symmetry_multiplicity
  _atom_site_fract_x
  _atom_site_fract_y
  _atom_site_fract_z
  _atom_site_occupancy
  Cs  Cs1       1.0  0.68000  0.18000  0.00000  1.0000
  Cs  Cs2       1.0  0.18000  0.32000  0.00000  1.0000
  Cs  Cs3       1.0  0.82000  0.68000  0.00000  1.0000
  Cs  Cs4       1.0  0.32000  0.82000  0.00000  1.0000
  Cs  Cs5       1.0  0.25000  0.25000  0.50000  1.0000
  Cs  Cs6       1.0  0.75000  0.75000  0.50000  1.0000
  H   H1        1.0  0.00000  0.00000  0.00000  1.0000
  H   H2        1.0  0.50000  0.50000  0.00000  1.0000
  H   H3        1.0  0.78500  0.05140  0.33700  1.0000
  H   H4        1.0  0.55100  0.28500  0.33700  1.0000
  H   H5        1.0  0.05140  0.55100  0.33700  1.0000
  H   H6        1.0  0.28500  0.78500  0.33700  1.0000
  H   H7        1.0  0.71500  0.21500  0.66300  1.0000
  H   H8        1.0  0.94900  0.44900  0.66300  1.0000
  H   H9        1.0  0.44900  0.71500  0.66300  1.0000
  H   H10       1.0  0.21500  0.94900  0.66300  1.0000
  Zn  Zn1       1.0  0.75000  0.25000  0.50000  1.0000
  Zn  Zn2       1.0  0.25000  0.75000  0.50000  1.0000
