data_image0
_chemical_formula_structural       Ir4Sb8
_chemical_formula_sum              "Ir4 Sb8"
_cell_length_a       6.67654
_cell_length_b       6.62164
_cell_length_c       6.77927
_cell_angle_alpha    90
_cell_angle_beta     115.062
_cell_angle_gamma    90

_space_group_name_H-M_alt    "P 1"
_space_group_IT_number       1

loop_
  _space_group_symop_operation_xyz
  'x, y, z'

loop_
  _atom_site_type_symbol
  _atom_site_label
  _atom_site_symmetry_multiplicity
  _atom_site_fract_x
  _atom_site_fract_y
  _atom_site_fract_z
  _atom_site_occupancy
  Ir  Ir1       1.0  0.72800  0.49900  0.20900  1.0000
  Ir  Ir2       1.0  0.27200  0.99900  0.29100  1.0000
  Ir  Ir3       1.0  0.72800  0.00115  0.70900  1.0000
  Ir  Ir4       1.0  0.27200  0.50100  0.79100  1.0000
  Sb  Sb1       1.0  0.85100  0.13500  0.12100  1.0000
  Sb  Sb2       1.0  0.34400  0.36200  0.17900  1.0000
  Sb  Sb3       1.0  0.65600  0.86200  0.32100  1.0000
  Sb  Sb4       1.0  0.14900  0.63500  0.37900  1.0000
  Sb  Sb5       1.0  0.85100  0.36500  0.62100  1.0000
  Sb  Sb6       1.0  0.34400  0.13800  0.67900  1.0000
  Sb  Sb7       1.0  0.65600  0.63800  0.82100  1.0000
  Sb  Sb8       1.0  0.14900  0.86500  0.87900  1.0000
