data_image0
_chemical_formula_structural       P4Ru8
_chemical_formula_sum              "P4 Ru8"
_cell_length_a       5.90449
_cell_length_b       3.88208
_cell_length_c       7.0176
_cell_angle_alpha    90
_cell_angle_beta     90
_cell_angle_gamma    90

_space_group_name_H-M_alt    "P 1"
_space_group_IT_number       1

loop_
  _space_group_symop_operation_xyz
  'x, y, z'

loop_
  _atom_site_type_symbol
  _atom_site_label
  _atom_site_symmetry_multiplicity
  _atom_site_fract_x
  _atom_site_fract_y
  _atom_site_fract_z
  _atom_site_occupancy
  P   P1        1.0  0.24800  0.25000  0.11100  1.0000
  P   P2        1.0  0.74800  0.25000  0.38900  1.0000
  P   P3        1.0  0.25200  0.75000  0.61100  1.0000
  P   P4        1.0  0.75200  0.75000  0.88900  1.0000
  Ru  Ru1       1.0  0.86000  0.25000  0.07730  1.0000
  Ru  Ru2       1.0  0.51500  0.75000  0.15300  1.0000
  Ru  Ru3       1.0  0.01500  0.75000  0.34700  1.0000
  Ru  Ru4       1.0  0.36000  0.25000  0.42300  1.0000
  Ru  Ru5       1.0  0.64000  0.75000  0.57700  1.0000
  Ru  Ru6       1.0  0.98500  0.25000  0.65300  1.0000
  Ru  Ru7       1.0  0.48500  0.25000  0.84700  1.0000
  Ru  Ru8       1.0  0.14000  0.75000  0.92300  1.0000
