data_image0
_chemical_formula_structural       H8Si
_chemical_formula_sum              "H8 Si1"
_cell_length_a       4.58745
_cell_length_b       4.58745
_cell_length_c       4.58745
_cell_angle_alpha    90.4689
_cell_angle_beta     119.73
_cell_angle_gamma    119.73

_space_group_name_H-M_alt    "P 1"
_space_group_IT_number       1

loop_
  _space_group_symop_operation_xyz
  'x, y, z'

loop_
  _atom_site_type_symbol
  _atom_site_label
  _atom_site_symmetry_multiplicity
  _atom_site_fract_x
  _atom_site_fract_y
  _atom_site_fract_z
  _atom_site_occupancy
  H   H1        1.0  0.50000  0.69100  0.19100  1.0000
  H   H2        1.0  0.50000  0.80900  0.30900  1.0000
  H   H3        1.0  0.26400  0.13300  0.39800  1.0000
  H   H4        1.0  0.00000  0.44200  0.44200  1.0000
  H   H5        1.0  0.00000  0.55800  0.55800  1.0000
  H   H6        1.0  0.26400  0.13100  0.86700  1.0000
  H   H7        1.0  0.73600  0.60200  0.86700  1.0000
  H   H8        1.0  0.73600  0.13300  0.86900  1.0000
  Si  Si1       1.0  0.00000  0.00000  0.00000  1.0000
