data_image0
_chemical_formula_structural       Cu4Hf2Te6
_chemical_formula_sum              "Cu4 Hf2 Te6"
_cell_length_a       4.07029
_cell_length_b       7.28444
_cell_length_c       10.354
_cell_angle_alpha    97.655
_cell_angle_beta     101.336
_cell_angle_gamma    90

_space_group_name_H-M_alt    "P 1"
_space_group_IT_number       1

loop_
  _space_group_symop_operation_xyz
  'x, y, z'

loop_
  _atom_site_type_symbol
  _atom_site_label
  _atom_site_symmetry_multiplicity
  _atom_site_fract_x
  _atom_site_fract_y
  _atom_site_fract_z
  _atom_site_occupancy
  Cu  Cu1       1.0  0.04790  0.15100  0.09580  1.0000
  Cu  Cu2       1.0  0.71200  0.42700  0.42500  1.0000
  Cu  Cu3       1.0  0.28800  0.57300  0.57500  1.0000
  Cu  Cu4       1.0  0.95200  0.84900  0.90400  1.0000
  Hf  Hf1       1.0  0.64600  0.05610  0.29100  1.0000
  Hf  Hf2       1.0  0.35400  0.94400  0.70900  1.0000
  Te  Te1       1.0  0.58200  0.36800  0.16400  1.0000
  Te  Te2       1.0  0.08250  0.82000  0.16500  1.0000
  Te  Te3       1.0  0.24900  0.21400  0.49800  1.0000
  Te  Te4       1.0  0.75100  0.78600  0.50200  1.0000
  Te  Te5       1.0  0.91800  0.18000  0.83500  1.0000
  Te  Te6       1.0  0.41800  0.63200  0.83600  1.0000
