data_image0
_chemical_formula_structural       B2Er2Fe8
_chemical_formula_sum              "B2 Er2 Fe8"
_cell_length_a       5.03359
_cell_length_b       5.03358
_cell_length_c       7.02034
_cell_angle_alpha    90
_cell_angle_beta     90
_cell_angle_gamma    120.002

_space_group_name_H-M_alt    "P 1"
_space_group_IT_number       1

loop_
  _space_group_symop_operation_xyz
  'x, y, z'

loop_
  _atom_site_type_symbol
  _atom_site_label
  _atom_site_symmetry_multiplicity
  _atom_site_fract_x
  _atom_site_fract_y
  _atom_site_fract_z
  _atom_site_occupancy
  B   B1        1.0  0.66700  0.33300  0.50000  1.0000
  B   B2        1.0  0.33300  0.66700  0.50000  1.0000
  Er  Er1       1.0  0.00002  0.00003  0.00000  1.0000
  Er  Er2       1.0  0.00000  0.00000  0.50000  1.0000
  Fe  Fe1       1.0  0.66700  0.33300  0.00000  1.0000
  Fe  Fe2       1.0  0.33300  0.66700  0.00000  1.0000
  Fe  Fe3       1.0  0.50000  0.50000  0.28600  1.0000
  Fe  Fe4       1.0  0.50000  0.00002  0.28600  1.0000
  Fe  Fe5       1.0  0.00002  0.50000  0.28600  1.0000
  Fe  Fe6       1.0  0.50000  0.00002  0.71400  1.0000
  Fe  Fe7       1.0  0.00002  0.50000  0.71400  1.0000
  Fe  Fe8       1.0  0.50000  0.50000  0.71400  1.0000
