data_image0
_chemical_formula_structural       Ce4H6Sn4Zn4
_chemical_formula_sum              "Ce4 H6 Sn4 Zn4"
_cell_length_a       4.44982
_cell_length_b       4.44958
_cell_length_c       18.2645
_cell_angle_alpha    90
_cell_angle_beta     90
_cell_angle_gamma    120.002

_space_group_name_H-M_alt    "P 1"
_space_group_IT_number       1

loop_
  _space_group_symop_operation_xyz
  'x, y, z'

loop_
  _atom_site_type_symbol
  _atom_site_label
  _atom_site_symmetry_multiplicity
  _atom_site_fract_x
  _atom_site_fract_y
  _atom_site_fract_z
  _atom_site_occupancy
  Ce  Ce1       1.0  0.00000  0.00000  0.99900  1.0000
  Ce  Ce2       1.0  0.00000  0.00001  0.24800  1.0000
  Ce  Ce3       1.0  0.00000  0.00000  0.49900  1.0000
  Ce  Ce4       1.0  0.00000  0.00000  0.74800  1.0000
  H   H1        1.0  0.33300  0.66700  0.01440  1.0000
  H   H2        1.0  0.33300  0.66700  0.24500  1.0000
  H   H3        1.0  0.33300  0.66700  0.48400  1.0000
  H   H4        1.0  0.66700  0.33300  0.51400  1.0000
  H   H5        1.0  0.66700  0.33300  0.74500  1.0000
  H   H6        1.0  0.66700  0.33300  0.98400  1.0000
  Sn  Sn1       1.0  0.66700  0.33300  0.13400  1.0000
  Sn  Sn2       1.0  0.66700  0.33300  0.36300  1.0000
  Sn  Sn3       1.0  0.33300  0.66700  0.63400  1.0000
  Sn  Sn4       1.0  0.33300  0.66700  0.86300  1.0000
  Zn  Zn1       1.0  0.33300  0.66700  0.11400  1.0000
  Zn  Zn2       1.0  0.33300  0.66700  0.38500  1.0000
  Zn  Zn3       1.0  0.66700  0.33300  0.61400  1.0000
  Zn  Zn4       1.0  0.66700  0.33300  0.88500  1.0000
