data_image0
_chemical_formula_structural       GeSb4Te7
_chemical_formula_sum              "Ge1 Sb4 Te7"
_cell_length_a       4.32777
_cell_length_b       4.32778
_cell_length_c       24.0281
_cell_angle_alpha    90
_cell_angle_beta     89.9998
_cell_angle_gamma    120

_space_group_name_H-M_alt    "P 1"
_space_group_IT_number       1

loop_
  _space_group_symop_operation_xyz
  'x, y, z'

loop_
  _atom_site_type_symbol
  _atom_site_label
  _atom_site_symmetry_multiplicity
  _atom_site_fract_x
  _atom_site_fract_y
  _atom_site_fract_z
  _atom_site_occupancy
  Ge  Ge1       1.0  0.00000  0.00000  0.50000  1.0000
  Sb  Sb1       1.0  0.33300  0.66700  0.08260  1.0000
  Sb  Sb2       1.0  0.33300  0.66700  0.34500  1.0000
  Sb  Sb3       1.0  0.66700  0.33300  0.65500  1.0000
  Sb  Sb4       1.0  0.66700  0.33300  0.91700  1.0000
  Te  Te1       1.0  0.00000  0.00000  0.00000  1.0000
  Te  Te2       1.0  0.66700  0.33300  0.15400  1.0000
  Te  Te3       1.0  0.00001  0.00001  0.27400  1.0000
  Te  Te4       1.0  0.66700  0.33300  0.42900  1.0000
  Te  Te5       1.0  0.33300  0.66700  0.57100  1.0000
  Te  Te6       1.0  0.00000  0.00000  0.72600  1.0000
  Te  Te7       1.0  0.33300  0.66700  0.84600  1.0000
