data_image0
_chemical_formula_structural       Rh8Sb4
_chemical_formula_sum              "Rh8 Sb4"
_cell_length_a       5.77762
_cell_length_b       4.21514
_cell_length_c       8.01544
_cell_angle_alpha    90
_cell_angle_beta     90
_cell_angle_gamma    90

_space_group_name_H-M_alt    "P 1"
_space_group_IT_number       1

loop_
  _space_group_symop_operation_xyz
  'x, y, z'

loop_
  _atom_site_type_symbol
  _atom_site_label
  _atom_site_symmetry_multiplicity
  _atom_site_fract_x
  _atom_site_fract_y
  _atom_site_fract_z
  _atom_site_occupancy
  Rh  Rh1       1.0  0.83900  0.25000  0.06870  1.0000
  Rh  Rh2       1.0  0.54000  0.75000  0.20200  1.0000
  Rh  Rh3       1.0  0.03980  0.75000  0.29800  1.0000
  Rh  Rh4       1.0  0.33900  0.25000  0.43100  1.0000
  Rh  Rh5       1.0  0.66100  0.75000  0.56900  1.0000
  Rh  Rh6       1.0  0.96000  0.25000  0.70200  1.0000
  Rh  Rh7       1.0  0.46000  0.25000  0.79800  1.0000
  Rh  Rh8       1.0  0.16100  0.75000  0.93100  1.0000
  Sb  Sb1       1.0  0.28700  0.25000  0.10700  1.0000
  Sb  Sb2       1.0  0.78700  0.25000  0.39300  1.0000
  Sb  Sb3       1.0  0.21300  0.75000  0.60700  1.0000
  Sb  Sb4       1.0  0.71300  0.75000  0.89300  1.0000
