data_image0
_chemical_formula_structural       CsO8P2Ta
_chemical_formula_sum              "Cs1 O8 P2 Ta1"
_cell_length_a       5.05371
_cell_length_b       5.22998
_cell_length_c       8.5995
_cell_angle_alpha    90.0157
_cell_angle_beta     92.9562
_cell_angle_gamma    121.122

_space_group_name_H-M_alt    "P 1"
_space_group_IT_number       1

loop_
  _space_group_symop_operation_xyz
  'x, y, z'

loop_
  _atom_site_type_symbol
  _atom_site_label
  _atom_site_symmetry_multiplicity
  _atom_site_fract_x
  _atom_site_fract_y
  _atom_site_fract_z
  _atom_site_occupancy
  Cs  Cs1       1.0  0.00000  0.00000  0.50000  1.0000
  O   O1        1.0  0.43000  0.21500  0.08050  1.0000
  O   O2        1.0  0.91200  0.69300  0.15700  1.0000
  O   O3        1.0  0.91300  0.21900  0.15700  1.0000
  O   O4        1.0  0.63800  0.32000  0.36700  1.0000
  O   O5        1.0  0.36200  0.68000  0.63300  1.0000
  O   O6        1.0  0.08740  0.78100  0.84300  1.0000
  O   O7        1.0  0.08810  0.30700  0.84300  1.0000
  O   O8        1.0  0.57000  0.78500  0.92000  1.0000
  P   P1        1.0  0.71600  0.35800  0.20100  1.0000
  P   P2        1.0  0.28400  0.64200  0.79900  1.0000
  Ta  Ta1       1.0  0.00000  0.00000  0.00000  1.0000
