data_image0
_chemical_formula_structural       Ca2MoPm
_chemical_formula_sum              "Ca2 Mo1 Pm1"
_cell_length_a       5.46257
_cell_length_b       5.46257
_cell_length_c       5.46257
_cell_angle_alpha    60.1423
_cell_angle_beta     60.1423
_cell_angle_gamma    60.1423

_space_group_name_H-M_alt    "P 1"
_space_group_IT_number       1

loop_
  _space_group_symop_operation_xyz
  'x, y, z'

loop_
  _atom_site_type_symbol
  _atom_site_label
  _atom_site_symmetry_multiplicity
  _atom_site_fract_x
  _atom_site_fract_y
  _atom_site_fract_z
  _atom_site_occupancy
  Ca  Ca1       1.0  0.00150  0.00150  0.00150  1.0000
  Ca  Ca2       1.0  0.50000  0.50000  0.50000  1.0000
  Mo  Mo1       1.0  0.24700  0.24700  0.24700  1.0000
  Pm  Pm1       1.0  0.75100  0.75100  0.75100  1.0000
