data_image0
_chemical_formula_structural       As8Ir4
_chemical_formula_sum              "As8 Ir4"
_cell_length_a       6.11959
_cell_length_b       6.13553
_cell_length_c       6.23069
_cell_angle_alpha    90
_cell_angle_beta     113.158
_cell_angle_gamma    90

_space_group_name_H-M_alt    "P 1"
_space_group_IT_number       1

loop_
  _space_group_symop_operation_xyz
  'x, y, z'

loop_
  _atom_site_type_symbol
  _atom_site_label
  _atom_site_symmetry_multiplicity
  _atom_site_fract_x
  _atom_site_fract_y
  _atom_site_fract_z
  _atom_site_occupancy
  As  As1       1.0  0.84600  0.12700  0.12500  1.0000
  As  As2       1.0  0.33800  0.37000  0.18500  1.0000
  As  As3       1.0  0.66200  0.87000  0.31500  1.0000
  As  As4       1.0  0.15400  0.62700  0.37500  1.0000
  As  As5       1.0  0.84600  0.37300  0.62500  1.0000
  As  As6       1.0  0.33800  0.13000  0.68500  1.0000
  As  As7       1.0  0.66200  0.63000  0.81500  1.0000
  As  As8       1.0  0.15400  0.87300  0.87500  1.0000
  Ir  Ir1       1.0  0.72800  0.50000  0.20800  1.0000
  Ir  Ir2       1.0  0.27200  0.00000  0.29200  1.0000
  Ir  Ir3       1.0  0.72800  0.00006  0.70800  1.0000
  Ir  Ir4       1.0  0.27200  0.50000  0.79200  1.0000
