data_image0
_chemical_formula_structural       B4F8
_chemical_formula_sum              "B4 F8"
_cell_length_a       4.89083
_cell_length_b       5.90982
_cell_length_c       4.33963
_cell_angle_alpha    90
_cell_angle_beta     101.835
_cell_angle_gamma    90

_space_group_name_H-M_alt    "P 1"
_space_group_IT_number       1

loop_
  _space_group_symop_operation_xyz
  'x, y, z'

loop_
  _atom_site_type_symbol
  _atom_site_label
  _atom_site_symmetry_multiplicity
  _atom_site_fract_x
  _atom_site_fract_y
  _atom_site_fract_z
  _atom_site_occupancy
  B   B1        1.0  0.85700  0.57200  0.01690  1.0000
  B   B2        1.0  0.64300  0.07220  0.48300  1.0000
  B   B3        1.0  0.35700  0.92800  0.51700  1.0000
  B   B4        1.0  0.14300  0.42800  0.98300  1.0000
  F   F1        1.0  0.25500  0.27400  0.20000  1.0000
  F   F2        1.0  0.72100  0.53900  0.24800  1.0000
  F   F3        1.0  0.77900  0.03900  0.25200  1.0000
  F   F4        1.0  0.24500  0.77400  0.30000  1.0000
  F   F5        1.0  0.75500  0.22600  0.70000  1.0000
  F   F6        1.0  0.22100  0.96100  0.74800  1.0000
  F   F7        1.0  0.27900  0.46100  0.75200  1.0000
  F   F8        1.0  0.74500  0.72600  0.80000  1.0000
