data_image0
_chemical_formula_structural       B2Pr2Pt8
_chemical_formula_sum              "B2 Pr2 Pt8"
_cell_length_a       5.51253
_cell_length_b       5.51253
_cell_length_c       7.69691
_cell_angle_alpha    90
_cell_angle_beta     90
_cell_angle_gamma    120

_space_group_name_H-M_alt    "P 1"
_space_group_IT_number       1

loop_
  _space_group_symop_operation_xyz
  'x, y, z'

loop_
  _atom_site_type_symbol
  _atom_site_label
  _atom_site_symmetry_multiplicity
  _atom_site_fract_x
  _atom_site_fract_y
  _atom_site_fract_z
  _atom_site_occupancy
  B   B1        1.0  0.66700  0.33300  0.50000  1.0000
  B   B2        1.0  0.33300  0.66700  0.50000  1.0000
  Pr  Pr1       1.0  0.00002  0.00002  0.00000  1.0000
  Pr  Pr2       1.0  0.00001  0.00001  0.50000  1.0000
  Pt  Pt1       1.0  0.66700  0.33300  0.00000  1.0000
  Pt  Pt2       1.0  0.33300  0.66700  0.00000  1.0000
  Pt  Pt3       1.0  0.50000  0.00002  0.30100  1.0000
  Pt  Pt4       1.0  0.50000  0.50000  0.30100  1.0000
  Pt  Pt5       1.0  0.00002  0.50000  0.30100  1.0000
  Pt  Pt6       1.0  0.50000  0.00002  0.69900  1.0000
  Pt  Pt7       1.0  0.50000  0.50000  0.69900  1.0000
  Pt  Pt8       1.0  0.00002  0.50000  0.69900  1.0000
