data_image0
_chemical_formula_structural       Bi4GeTe7
_chemical_formula_sum              "Bi4 Ge1 Te7"
_cell_length_a       4.41129
_cell_length_b       4.41098
_cell_length_c       24.6031
_cell_angle_alpha    90
_cell_angle_beta     90.0082
_cell_angle_gamma    119.998

_space_group_name_H-M_alt    "P 1"
_space_group_IT_number       1

loop_
  _space_group_symop_operation_xyz
  'x, y, z'

loop_
  _atom_site_type_symbol
  _atom_site_label
  _atom_site_symmetry_multiplicity
  _atom_site_fract_x
  _atom_site_fract_y
  _atom_site_fract_z
  _atom_site_occupancy
  Bi  Bi1       1.0  0.66700  0.33300  0.15400  1.0000
  Bi  Bi2       1.0  0.66700  0.33300  0.41600  1.0000
  Bi  Bi3       1.0  0.33300  0.66700  0.58400  1.0000
  Bi  Bi4       1.0  0.33300  0.66700  0.84600  1.0000
  Ge  Ge1       1.0  0.00000  0.00000  0.00000  1.0000
  Te  Te1       1.0  0.33300  0.66700  0.06780  1.0000
  Te  Te2       1.0  0.00000  0.00000  0.22400  1.0000
  Te  Te3       1.0  0.33300  0.66700  0.34600  1.0000
  Te  Te4       1.0  0.00000  1.00000  0.50000  1.0000
  Te  Te5       1.0  0.66700  0.33300  0.65400  1.0000
  Te  Te6       1.0  0.00001  0.00000  0.77600  1.0000
  Te  Te7       1.0  0.66700  0.33300  0.93200  1.0000
