data_image0
_chemical_formula_structural       S7Y5
_chemical_formula_sum              "S7 Y5"
_cell_length_a       3.81115
_cell_length_b       6.70505
_cell_length_c       11.6103
_cell_angle_alpha    104.054
_cell_angle_beta     90
_cell_angle_gamma    106.511

_space_group_name_H-M_alt    "P 1"
_space_group_IT_number       1

loop_
  _space_group_symop_operation_xyz
  'x, y, z'

loop_
  _atom_site_type_symbol
  _atom_site_label
  _atom_site_symmetry_multiplicity
  _atom_site_fract_x
  _atom_site_fract_y
  _atom_site_fract_z
  _atom_site_occupancy
  S   S1        1.0  0.65900  0.31900  0.05140  1.0000
  S   S2        1.0  0.95900  0.91700  0.21500  1.0000
  S   S3        1.0  0.74100  0.48200  0.35200  1.0000
  S   S4        1.0  0.50000  0.00000  0.50000  1.0000
  S   S5        1.0  0.25900  0.51800  0.64800  1.0000
  S   S6        1.0  0.04130  0.08250  0.78500  1.0000
  S   S7        1.0  0.34100  0.68100  0.94900  1.0000
  Y   Y1        1.0  0.00000  0.00000  0.00000  1.0000
  Y   Y2        1.0  0.30000  0.60100  0.18800  1.0000
  Y   Y3        1.0  0.11200  0.22400  0.42100  1.0000
  Y   Y4        1.0  0.88800  0.77600  0.57900  1.0000
  Y   Y5        1.0  0.70000  0.39900  0.81200  1.0000
