data_image0
_chemical_formula_structural       Rh4Sb8
_chemical_formula_sum              "Rh4 Sb8"
_cell_length_a       6.70019
_cell_length_b       6.63822
_cell_length_c       6.77566
_cell_angle_alpha    90
_cell_angle_beta     116.642
_cell_angle_gamma    90

_space_group_name_H-M_alt    "P 1"
_space_group_IT_number       1

loop_
  _space_group_symop_operation_xyz
  'x, y, z'

loop_
  _atom_site_type_symbol
  _atom_site_label
  _atom_site_symmetry_multiplicity
  _atom_site_fract_x
  _atom_site_fract_y
  _atom_site_fract_z
  _atom_site_occupancy
  Rh  Rh1       1.0  0.72800  0.50000  0.21200  1.0000
  Rh  Rh2       1.0  0.27200  0.00000  0.28800  1.0000
  Rh  Rh3       1.0  0.72800  0.00039  0.71200  1.0000
  Rh  Rh4       1.0  0.27200  0.50000  0.78800  1.0000
  Sb  Sb1       1.0  0.85000  0.13700  0.12800  1.0000
  Sb  Sb2       1.0  0.34400  0.36200  0.17600  1.0000
  Sb  Sb3       1.0  0.65600  0.86200  0.32400  1.0000
  Sb  Sb4       1.0  0.15000  0.63700  0.37200  1.0000
  Sb  Sb5       1.0  0.85000  0.36300  0.62800  1.0000
  Sb  Sb6       1.0  0.34400  0.13800  0.67600  1.0000
  Sb  Sb7       1.0  0.65600  0.63800  0.82400  1.0000
  Sb  Sb8       1.0  0.15000  0.86300  0.87200  1.0000
