data_image0
_chemical_formula_structural       In4Ir2Nd2
_chemical_formula_sum              "In4 Ir2 Nd2"
_cell_length_a       4.42562
_cell_length_b       5.64738
_cell_length_c       8.02723
_cell_angle_alpha    90
_cell_angle_beta     90
_cell_angle_gamma    66.9343

_space_group_name_H-M_alt    "P 1"
_space_group_IT_number       1

loop_
  _space_group_symop_operation_xyz
  'x, y, z'

loop_
  _atom_site_type_symbol
  _atom_site_label
  _atom_site_symmetry_multiplicity
  _atom_site_fract_x
  _atom_site_fract_y
  _atom_site_fract_z
  _atom_site_occupancy
  In  In1       1.0  0.35500  0.28900  0.05110  1.0000
  In  In2       1.0  0.35500  0.28900  0.44900  1.0000
  In  In3       1.0  0.64500  0.71100  0.55100  1.0000
  In  In4       1.0  0.64500  0.71100  0.94900  1.0000
  Ir  Ir1       1.0  0.78300  0.43400  0.25000  1.0000
  Ir  Ir2       1.0  0.21700  0.56600  0.75000  1.0000
  Nd  Nd1       1.0  0.06950  0.86100  0.25000  1.0000
  Nd  Nd2       1.0  0.93000  0.13900  0.75000  1.0000
