data_image0
_chemical_formula_structural       Bi4Cl4Se4
_chemical_formula_sum              "Bi4 Cl4 Se4"
_cell_length_a       8.88864
_cell_length_b       9.31166
_cell_length_c       4.19174
_cell_angle_alpha    90
_cell_angle_beta     90
_cell_angle_gamma    90

_space_group_name_H-M_alt    "P 1"
_space_group_IT_number       1

loop_
  _space_group_symop_operation_xyz
  'x, y, z'

loop_
  _atom_site_type_symbol
  _atom_site_label
  _atom_site_symmetry_multiplicity
  _atom_site_fract_x
  _atom_site_fract_y
  _atom_site_fract_z
  _atom_site_occupancy
  Bi  Bi1       1.0  0.82400  0.08530  0.25000  1.0000
  Bi  Bi2       1.0  0.32400  0.41500  0.25000  1.0000
  Bi  Bi3       1.0  0.67600  0.58500  0.75000  1.0000
  Bi  Bi4       1.0  0.17600  0.91500  0.75000  1.0000
  Cl  Cl1       1.0  0.33800  0.06640  0.25000  1.0000
  Cl  Cl2       1.0  0.83800  0.43400  0.25000  1.0000
  Cl  Cl3       1.0  0.16200  0.56600  0.75000  1.0000
  Cl  Cl4       1.0  0.66200  0.93400  0.75000  1.0000
  Se  Se1       1.0  0.47500  0.67300  0.25000  1.0000
  Se  Se2       1.0  0.97500  0.82700  0.25000  1.0000
  Se  Se3       1.0  0.02500  0.17300  0.75000  1.0000
  Se  Se4       1.0  0.52500  0.32700  0.75000  1.0000
