data_image0
_chemical_formula_structural       Ni4Sc2Si6
_chemical_formula_sum              "Ni4 Sc2 Si6"
_cell_length_a       3.79485
_cell_length_b       3.79485
_cell_length_c       12.1543
_cell_angle_alpha    98.9813
_cell_angle_beta     98.9813
_cell_angle_gamma    90

_space_group_name_H-M_alt    "P 1"
_space_group_IT_number       1

loop_
  _space_group_symop_operation_xyz
  'x, y, z'

loop_
  _atom_site_type_symbol
  _atom_site_label
  _atom_site_symmetry_multiplicity
  _atom_site_fract_x
  _atom_site_fract_y
  _atom_site_fract_z
  _atom_site_occupancy
  Ni  Ni1       1.0  0.60000  0.60000  0.20000  1.0000
  Ni  Ni2       1.0  0.75000  0.25000  0.50000  1.0000
  Ni  Ni3       1.0  0.25000  0.75000  0.50000  1.0000
  Ni  Ni4       1.0  0.40000  0.40000  0.80000  1.0000
  Sc  Sc1       1.0  0.14900  0.14900  0.29900  1.0000
  Sc  Sc2       1.0  0.85100  0.85100  0.70100  1.0000
  Si  Si1       1.0  0.55000  0.04990  0.09970  1.0000
  Si  Si2       1.0  0.04990  0.55000  0.09970  1.0000
  Si  Si3       1.0  0.69400  0.69400  0.38800  1.0000
  Si  Si4       1.0  0.30600  0.30600  0.61200  1.0000
  Si  Si5       1.0  0.95000  0.45000  0.90000  1.0000
  Si  Si6       1.0  0.45000  0.95000  0.90000  1.0000
