data_image0
_chemical_formula_structural       Au4Mg8
_chemical_formula_sum              "Au4 Mg8"
_cell_length_a       6.0559
_cell_length_b       4.52049
_cell_length_c       8.36515
_cell_angle_alpha    90
_cell_angle_beta     90
_cell_angle_gamma    90

_space_group_name_H-M_alt    "P 1"
_space_group_IT_number       1

loop_
  _space_group_symop_operation_xyz
  'x, y, z'

loop_
  _atom_site_type_symbol
  _atom_site_label
  _atom_site_symmetry_multiplicity
  _atom_site_fract_x
  _atom_site_fract_y
  _atom_site_fract_z
  _atom_site_occupancy
  Au  Au1       1.0  0.27300  0.25000  0.10800  1.0000
  Au  Au2       1.0  0.77300  0.25000  0.39200  1.0000
  Au  Au3       1.0  0.22700  0.75000  0.60800  1.0000
  Au  Au4       1.0  0.72700  0.75000  0.89200  1.0000
  Mg  Mg1       1.0  0.81800  0.25000  0.06740  1.0000
  Mg  Mg2       1.0  0.53100  0.75000  0.20900  1.0000
  Mg  Mg3       1.0  0.03070  0.75000  0.29100  1.0000
  Mg  Mg4       1.0  0.31800  0.25000  0.43300  1.0000
  Mg  Mg5       1.0  0.68200  0.75000  0.56700  1.0000
  Mg  Mg6       1.0  0.96900  0.25000  0.70900  1.0000
  Mg  Mg7       1.0  0.46900  0.25000  0.79100  1.0000
  Mg  Mg8       1.0  0.18200  0.75000  0.93300  1.0000
