data_image0
_chemical_formula_structural       Al4Pd8
_chemical_formula_sum              "Al4 Pd8"
_cell_length_a       5.45124
_cell_length_b       4.09379
_cell_length_c       7.82293
_cell_angle_alpha    90
_cell_angle_beta     90
_cell_angle_gamma    90

_space_group_name_H-M_alt    "P 1"
_space_group_IT_number       1

loop_
  _space_group_symop_operation_xyz
  'x, y, z'

loop_
  _atom_site_type_symbol
  _atom_site_label
  _atom_site_symmetry_multiplicity
  _atom_site_fract_x
  _atom_site_fract_y
  _atom_site_fract_z
  _atom_site_occupancy
  Al  Al1       1.0  0.30500  0.25000  0.10400  1.0000
  Al  Al2       1.0  0.80500  0.25000  0.39600  1.0000
  Al  Al3       1.0  0.19500  0.75000  0.60400  1.0000
  Al  Al4       1.0  0.69500  0.75000  0.89600  1.0000
  Pd  Pd1       1.0  0.83300  0.25000  0.06780  1.0000
  Pd  Pd2       1.0  0.54100  0.75000  0.21300  1.0000
  Pd  Pd3       1.0  0.04150  0.75000  0.28700  1.0000
  Pd  Pd4       1.0  0.33300  0.25000  0.43200  1.0000
  Pd  Pd5       1.0  0.66700  0.75000  0.56800  1.0000
  Pd  Pd6       1.0  0.95900  0.25000  0.71300  1.0000
  Pd  Pd7       1.0  0.45900  0.25000  0.78700  1.0000
  Pd  Pd8       1.0  0.16700  0.75000  0.93200  1.0000
