data_image0
_chemical_formula_structural       F2H8K2O4
_chemical_formula_sum              "F2 H8 K2 O4"
_cell_length_a       3.95506
_cell_length_b       4.99093
_cell_length_c       8.53042
_cell_angle_alpha    90
_cell_angle_beta     90
_cell_angle_gamma    90

_space_group_name_H-M_alt    "P 1"
_space_group_IT_number       1

loop_
  _space_group_symop_operation_xyz
  'x, y, z'

loop_
  _atom_site_type_symbol
  _atom_site_label
  _atom_site_symmetry_multiplicity
  _atom_site_fract_x
  _atom_site_fract_y
  _atom_site_fract_z
  _atom_site_occupancy
  F   F1        1.0  0.00000  0.09460  0.11000  1.0000
  F   F2        1.0  0.00000  0.90500  0.61000  1.0000
  H   H1        1.0  0.30300  0.90200  0.17900  1.0000
  H   H2        1.0  0.69700  0.90200  0.17900  1.0000
  H   H3        1.0  0.00000  0.22700  0.28900  1.0000
  H   H4        1.0  0.00000  0.13700  0.46600  1.0000
  H   H5        1.0  0.30300  0.09780  0.67900  1.0000
  H   H6        1.0  0.69700  0.09780  0.67900  1.0000
  H   H7        1.0  0.00000  0.77300  0.78900  1.0000
  H   H8        1.0  0.00000  0.86300  0.96600  1.0000
  K   K1        1.0  0.50000  0.61000  0.50000  1.0000
  K   K2        1.0  0.50000  0.39000  0.00000  1.0000
  O   O1        1.0  0.50000  0.79300  0.21300  1.0000
  O   O2        1.0  0.00000  0.29600  0.39700  1.0000
  O   O3        1.0  0.50000  0.20700  0.71300  1.0000
  O   O4        1.0  0.00000  0.70400  0.89700  1.0000
