data_image0
_chemical_formula_structural       Ho4Rh4Si4
_chemical_formula_sum              "Ho4 Rh4 Si4"
_cell_length_a       6.87902
_cell_length_b       4.23973
_cell_length_c       7.38077
_cell_angle_alpha    90
_cell_angle_beta     90
_cell_angle_gamma    90

_space_group_name_H-M_alt    "P 1"
_space_group_IT_number       1

loop_
  _space_group_symop_operation_xyz
  'x, y, z'

loop_
  _atom_site_type_symbol
  _atom_site_label
  _atom_site_symmetry_multiplicity
  _atom_site_fract_x
  _atom_site_fract_y
  _atom_site_fract_z
  _atom_site_occupancy
  Ho  Ho1       1.0  0.99900  0.25000  0.19000  1.0000
  Ho  Ho2       1.0  0.49900  0.25000  0.31000  1.0000
  Ho  Ho3       1.0  0.50100  0.75000  0.69000  1.0000
  Ho  Ho4       1.0  0.00098  0.75000  0.81000  1.0000
  Rh  Rh1       1.0  0.34600  0.75000  0.06940  1.0000
  Rh  Rh2       1.0  0.84600  0.75000  0.43100  1.0000
  Rh  Rh3       1.0  0.15400  0.25000  0.56900  1.0000
  Rh  Rh4       1.0  0.65400  0.25000  0.93100  1.0000
  Si  Si1       1.0  0.70500  0.75000  0.10500  1.0000
  Si  Si2       1.0  0.20500  0.75000  0.39500  1.0000
  Si  Si3       1.0  0.79500  0.25000  0.60500  1.0000
  Si  Si4       1.0  0.29500  0.25000  0.89500  1.0000
