data_image0
_chemical_formula_structural       Br4Yb2
_chemical_formula_sum              "Br4 Yb2"
_cell_length_a       6.86253
_cell_length_b       4.32138
_cell_length_c       6.55157
_cell_angle_alpha    90
_cell_angle_beta     90
_cell_angle_gamma    90

_space_group_name_H-M_alt    "P 1"
_space_group_IT_number       1

loop_
  _space_group_symop_operation_xyz
  'x, y, z'

loop_
  _atom_site_type_symbol
  _atom_site_label
  _atom_site_symmetry_multiplicity
  _atom_site_fract_x
  _atom_site_fract_y
  _atom_site_fract_z
  _atom_site_occupancy
  Br  Br1       1.0  0.84000  0.00000  0.23700  1.0000
  Br  Br2       1.0  0.34000  0.50000  0.26300  1.0000
  Br  Br3       1.0  0.66000  0.50000  0.73700  1.0000
  Br  Br4       1.0  0.16000  0.00000  0.76300  1.0000
  Yb  Yb1       1.0  0.00000  0.50000  0.00000  1.0000
  Yb  Yb2       1.0  0.50000  0.00000  0.50000  1.0000
