data_image0
_chemical_formula_structural       Ru4Si4Ti4
_chemical_formula_sum              "Ru4 Si4 Ti4"
_cell_length_a       6.08186
_cell_length_b       3.96631
_cell_length_c       7.23623
_cell_angle_alpha    90
_cell_angle_beta     90
_cell_angle_gamma    90

_space_group_name_H-M_alt    "P 1"
_space_group_IT_number       1

loop_
  _space_group_symop_operation_xyz
  'x, y, z'

loop_
  _atom_site_type_symbol
  _atom_site_label
  _atom_site_symmetry_multiplicity
  _atom_site_fract_x
  _atom_site_fract_y
  _atom_site_fract_z
  _atom_site_occupancy
  Ru  Ru1       1.0  0.33400  0.75000  0.05430  1.0000
  Ru  Ru2       1.0  0.83400  0.75000  0.44600  1.0000
  Ru  Ru3       1.0  0.16600  0.25000  0.55400  1.0000
  Ru  Ru4       1.0  0.66600  0.25000  0.94600  1.0000
  Si  Si1       1.0  0.72400  0.75000  0.12500  1.0000
  Si  Si2       1.0  0.22400  0.75000  0.37500  1.0000
  Si  Si3       1.0  0.77600  0.25000  0.62500  1.0000
  Si  Si4       1.0  0.27600  0.25000  0.87500  1.0000
  Ti  Ti1       1.0  0.01730  0.25000  0.18700  1.0000
  Ti  Ti2       1.0  0.51700  0.25000  0.31300  1.0000
  Ti  Ti3       1.0  0.48300  0.75000  0.68700  1.0000
  Ti  Ti4       1.0  0.98300  0.75000  0.81300  1.0000
