data_image0
_chemical_formula_structural       Al7Ca3Cu2
_chemical_formula_sum              "Al7 Ca3 Cu2"
_cell_length_a       5.57444
_cell_length_b       5.57444
_cell_length_c       9.17572
_cell_angle_alpha    90
_cell_angle_beta     107.684
_cell_angle_gamma    60

_space_group_name_H-M_alt    "P 1"
_space_group_IT_number       1

loop_
  _space_group_symop_operation_xyz
  'x, y, z'

loop_
  _atom_site_type_symbol
  _atom_site_label
  _atom_site_symmetry_multiplicity
  _atom_site_fract_x
  _atom_site_fract_y
  _atom_site_fract_z
  _atom_site_occupancy
  Al  Al1       1.0  0.15800  0.42100  0.23200  1.0000
  Al  Al2       1.0  0.65300  0.42100  0.23200  1.0000
  Al  Al3       1.0  0.65300  0.92700  0.23200  1.0000
  Al  Al4       1.0  0.00000  0.50000  0.50000  1.0000
  Al  Al5       1.0  0.34700  0.07340  0.76800  1.0000
  Al  Al6       1.0  0.34700  0.57900  0.76800  1.0000
  Al  Al7       1.0  0.84200  0.57900  0.76800  1.0000
  Ca  Ca1       1.0  0.00000  0.00000  0.00000  1.0000
  Ca  Ca2       1.0  0.28600  0.85700  0.42800  1.0000
  Ca  Ca3       1.0  0.71400  0.14300  0.57200  1.0000
  Cu  Cu1       1.0  0.67000  0.66500  0.00461  1.0000
  Cu  Cu2       1.0  0.33000  0.33500  0.99500  1.0000
