data_image0
_chemical_formula_structural       F6Ga2H6N2
_chemical_formula_sum              "F6 Ga2 H6 N2"
_cell_length_a       5.41087
_cell_length_b       5.3986
_cell_length_c       5.32088
_cell_angle_alpha    59.5156
_cell_angle_beta     90
_cell_angle_gamma    90

_space_group_name_H-M_alt    "P 1"
_space_group_IT_number       1

loop_
  _space_group_symop_operation_xyz
  'x, y, z'

loop_
  _atom_site_type_symbol
  _atom_site_label
  _atom_site_symmetry_multiplicity
  _atom_site_fract_x
  _atom_site_fract_y
  _atom_site_fract_z
  _atom_site_occupancy
  F   F1        1.0  0.29000  0.06370  0.37300  1.0000
  F   F2        1.0  0.71000  0.56400  0.37300  1.0000
  F   F3        1.0  0.00000  0.13400  0.73100  1.0000
  F   F4        1.0  0.00000  0.63400  0.73100  1.0000
  F   F5        1.0  0.50000  0.09770  0.80500  1.0000
  F   F6        1.0  0.50000  0.59800  0.80500  1.0000
  Ga  Ga1       1.0  0.74900  0.36000  0.77900  1.0000
  Ga  Ga2       1.0  0.25100  0.86000  0.77900  1.0000
  H   H1        1.0  0.97600  0.12100  0.25800  1.0000
  H   H2        1.0  0.02430  0.62100  0.25800  1.0000
  H   H3        1.0  0.71100  0.26100  0.28800  1.0000
  H   H4        1.0  0.28900  0.45000  0.28800  1.0000
  H   H5        1.0  0.28900  0.76100  0.28800  1.0000
  H   H6        1.0  0.71100  0.95000  0.28800  1.0000
  N   N1        1.0  0.79100  0.15000  0.20100  1.0000
  N   N2        1.0  0.20900  0.65000  0.20100  1.0000
