data_image0
_chemical_formula_structural       Ge4Ni4Tb4
_chemical_formula_sum              "Ge4 Ni4 Tb4"
_cell_length_a       6.98439
_cell_length_b       4.23835
_cell_length_c       7.3326
_cell_angle_alpha    90
_cell_angle_beta     90
_cell_angle_gamma    90

_space_group_name_H-M_alt    "P 1"
_space_group_IT_number       1

loop_
  _space_group_symop_operation_xyz
  'x, y, z'

loop_
  _atom_site_type_symbol
  _atom_site_label
  _atom_site_symmetry_multiplicity
  _atom_site_fract_x
  _atom_site_fract_y
  _atom_site_fract_z
  _atom_site_occupancy
  Ge  Ge1       1.0  0.80300  0.25000  0.08690  1.0000
  Ge  Ge2       1.0  0.30300  0.25000  0.41300  1.0000
  Ge  Ge3       1.0  0.69700  0.75000  0.58700  1.0000
  Ge  Ge4       1.0  0.19700  0.75000  0.91300  1.0000
  Ni  Ni1       1.0  0.19400  0.25000  0.08390  1.0000
  Ni  Ni2       1.0  0.69400  0.25000  0.41600  1.0000
  Ni  Ni3       1.0  0.30600  0.75000  0.58400  1.0000
  Ni  Ni4       1.0  0.80600  0.75000  0.91600  1.0000
  Tb  Tb1       1.0  0.50700  0.75000  0.20600  1.0000
  Tb  Tb2       1.0  0.00701  0.75000  0.29400  1.0000
  Tb  Tb3       1.0  0.99300  0.25000  0.70600  1.0000
  Tb  Tb4       1.0  0.49300  0.25000  0.79400  1.0000
