data_image0
_chemical_formula_structural       Cl2Cu3H6NiO6
_chemical_formula_sum              "Cl2 Cu3 H6 Ni1 O6"
_cell_length_a       6.00899
_cell_length_b       6.00899
_cell_length_c       6.00899
_cell_angle_alpha    69.4765
_cell_angle_beta     110.523
_cell_angle_gamma    110.523

_space_group_name_H-M_alt    "P 1"
_space_group_IT_number       1

loop_
  _space_group_symop_operation_xyz
  'x, y, z'

loop_
  _atom_site_type_symbol
  _atom_site_label
  _atom_site_symmetry_multiplicity
  _atom_site_fract_x
  _atom_site_fract_y
  _atom_site_fract_z
  _atom_site_occupancy
  Cl  Cl1       1.0  0.81300  0.18700  0.18700  1.0000
  Cl  Cl2       1.0  0.18700  0.81300  0.81300  1.0000
  Cu  Cu1       1.0  0.50000  0.50000  0.00000  1.0000
  Cu  Cu2       1.0  0.00000  0.50000  0.50000  1.0000
  Cu  Cu3       1.0  0.50000  0.00000  0.50000  1.0000
  H   H1        1.0  0.22200  0.77800  0.16900  1.0000
  H   H2        1.0  0.77800  0.83100  0.22200  1.0000
  H   H3        1.0  0.16900  0.22200  0.22200  1.0000
  H   H4        1.0  0.83100  0.77800  0.77800  1.0000
  H   H5        1.0  0.22200  0.16900  0.77800  1.0000
  H   H6        1.0  0.77800  0.22200  0.83100  1.0000
  Ni  Ni1       1.0  0.50000  0.50000  0.50000  1.0000
  O   O1        1.0  0.35100  0.26900  0.26900  1.0000
  O   O2        1.0  0.73100  0.64900  0.26900  1.0000
  O   O3        1.0  0.26900  0.73100  0.35100  1.0000
  O   O4        1.0  0.73100  0.26900  0.64900  1.0000
  O   O5        1.0  0.64900  0.73100  0.73100  1.0000
  O   O6        1.0  0.26900  0.35100  0.73100  1.0000
