data_image0
_chemical_formula_structural       Al2P2S8
_chemical_formula_sum              "Al2 P2 S8"
_cell_length_a       5.69593
_cell_length_b       5.70009
_cell_length_c       9.97776
_cell_angle_alpha    90
_cell_angle_beta     90
_cell_angle_gamma    90

_space_group_name_H-M_alt    "P 1"
_space_group_IT_number       1

loop_
  _space_group_symop_operation_xyz
  'x, y, z'

loop_
  _atom_site_type_symbol
  _atom_site_label
  _atom_site_symmetry_multiplicity
  _atom_site_fract_x
  _atom_site_fract_y
  _atom_site_fract_z
  _atom_site_occupancy
  Al  Al1       1.0  0.00000  0.00000  0.00000  1.0000
  Al  Al2       1.0  0.50000  0.00000  0.50000  1.0000
  P   P1        1.0  0.00000  0.50000  0.00000  1.0000
  P   P2        1.0  0.00000  0.00000  0.50000  1.0000
  S   S1        1.0  0.20600  0.27600  0.11300  1.0000
  S   S2        1.0  0.79400  0.72400  0.11300  1.0000
  S   S3        1.0  0.77600  0.20200  0.38500  1.0000
  S   S4        1.0  0.22400  0.79800  0.38500  1.0000
  S   S5        1.0  0.22400  0.20200  0.61500  1.0000
  S   S6        1.0  0.77600  0.79800  0.61500  1.0000
  S   S7        1.0  0.79400  0.27600  0.88700  1.0000
  S   S8        1.0  0.20600  0.72400  0.88700  1.0000
