data_image0
_chemical_formula_structural       Be6H12
_chemical_formula_sum              "Be6 H12"
_cell_length_a       3.89911
_cell_length_b       6.00356
_cell_length_c       6.00356
_cell_angle_alpha    91.5073
_cell_angle_beta     108.949
_cell_angle_gamma    108.949

_space_group_name_H-M_alt    "P 1"
_space_group_IT_number       1

loop_
  _space_group_symop_operation_xyz
  'x, y, z'

loop_
  _atom_site_type_symbol
  _atom_site_label
  _atom_site_symmetry_multiplicity
  _atom_site_fract_x
  _atom_site_fract_y
  _atom_site_fract_z
  _atom_site_occupancy
  Be  Be1       1.0  0.12200  0.83200  0.16800  1.0000
  Be  Be2       1.0  0.25000  0.25000  0.25000  1.0000
  Be  Be3       1.0  0.62200  0.66800  0.33200  1.0000
  Be  Be4       1.0  0.37800  0.33200  0.66800  1.0000
  Be  Be5       1.0  0.75000  0.75000  0.75000  1.0000
  Be  Be6       1.0  0.87800  0.16800  0.83200  1.0000
  H   H1        1.0  0.90700  0.24600  0.06530  1.0000
  H   H2        1.0  0.75600  0.82300  0.17700  1.0000
  H   H3        1.0  0.40400  0.06530  0.24600  1.0000
  H   H4        1.0  0.59300  0.43500  0.25400  1.0000
  H   H5        1.0  0.25600  0.67700  0.32300  1.0000
  H   H6        1.0  0.09600  0.25400  0.43500  1.0000
  H   H7        1.0  0.90400  0.74600  0.56500  1.0000
  H   H8        1.0  0.74400  0.32300  0.67700  1.0000
  H   H9        1.0  0.40700  0.56500  0.74600  1.0000
  H   H10       1.0  0.59600  0.93500  0.75400  1.0000
  H   H11       1.0  0.24400  0.17700  0.82300  1.0000
  H   H12       1.0  0.09310  0.75400  0.93500  1.0000
