data_image0
_chemical_formula_structural       Al4Pt8
_chemical_formula_sum              "Al4 Pt8"
_cell_length_a       5.46673
_cell_length_b       4.1044
_cell_length_c       7.97452
_cell_angle_alpha    90
_cell_angle_beta     90
_cell_angle_gamma    90

_space_group_name_H-M_alt    "P 1"
_space_group_IT_number       1

loop_
  _space_group_symop_operation_xyz
  'x, y, z'

loop_
  _atom_site_type_symbol
  _atom_site_label
  _atom_site_symmetry_multiplicity
  _atom_site_fract_x
  _atom_site_fract_y
  _atom_site_fract_z
  _atom_site_occupancy
  Al  Al1       1.0  0.80700  0.75000  0.10400  1.0000
  Al  Al2       1.0  0.30700  0.75000  0.39600  1.0000
  Al  Al3       1.0  0.69300  0.25000  0.60400  1.0000
  Al  Al4       1.0  0.19300  0.25000  0.89600  1.0000
  Pt  Pt1       1.0  0.33800  0.75000  0.06920  1.0000
  Pt  Pt2       1.0  0.04360  0.25000  0.21000  1.0000
  Pt  Pt3       1.0  0.54400  0.25000  0.29000  1.0000
  Pt  Pt4       1.0  0.83800  0.75000  0.43100  1.0000
  Pt  Pt5       1.0  0.16200  0.25000  0.56900  1.0000
  Pt  Pt6       1.0  0.45600  0.75000  0.71000  1.0000
  Pt  Pt7       1.0  0.95600  0.75000  0.79000  1.0000
  Pt  Pt8       1.0  0.66200  0.25000  0.93100  1.0000
