data_image0
_chemical_formula_structural       F8H2K2O2Te2
_chemical_formula_sum              "F8 H2 K2 O2 Te2"
_cell_length_a       7.64977
_cell_length_b       6.43167
_cell_length_c       4.77681
_cell_angle_alpha    90
_cell_angle_beta     111.977
_cell_angle_gamma    90

_space_group_name_H-M_alt    "P 1"
_space_group_IT_number       1

loop_
  _space_group_symop_operation_xyz
  'x, y, z'

loop_
  _atom_site_type_symbol
  _atom_site_label
  _atom_site_symmetry_multiplicity
  _atom_site_fract_x
  _atom_site_fract_y
  _atom_site_fract_z
  _atom_site_occupancy
  F   F1        1.0  0.63600  0.51800  0.07480  1.0000
  F   F2        1.0  0.21900  0.44500  0.07970  1.0000
  F   F3        1.0  0.16200  0.84200  0.24200  1.0000
  F   F4        1.0  0.04540  0.22300  0.39400  1.0000
  F   F5        1.0  0.95500  0.72300  0.60600  1.0000
  F   F6        1.0  0.83800  0.34200  0.75800  1.0000
  F   F7        1.0  0.78100  0.94500  0.92000  1.0000
  F   F8        1.0  0.36400  0.01790  0.92500  1.0000
  H   H1        1.0  0.61700  0.59800  0.36600  1.0000
  H   H2        1.0  0.38300  0.09750  0.63400  1.0000
  K   K1        1.0  0.70100  0.08860  0.34200  1.0000
  K   K2        1.0  0.29900  0.58900  0.65800  1.0000
  O   O1        1.0  0.39700  0.16600  0.45500  1.0000
  O   O2        1.0  0.60300  0.66600  0.54500  1.0000
  Te  Te1       1.0  0.16800  0.13600  0.10700  1.0000
  Te  Te2       1.0  0.83200  0.63600  0.89300  1.0000
