data_image0
_chemical_formula_structural       Al4Y8
_chemical_formula_sum              "Al4 Y8"
_cell_length_a       6.58094
_cell_length_b       5.09986
_cell_length_c       9.49811
_cell_angle_alpha    90
_cell_angle_beta     90
_cell_angle_gamma    90

_space_group_name_H-M_alt    "P 1"
_space_group_IT_number       1

loop_
  _space_group_symop_operation_xyz
  'x, y, z'

loop_
  _atom_site_type_symbol
  _atom_site_label
  _atom_site_symmetry_multiplicity
  _atom_site_fract_x
  _atom_site_fract_y
  _atom_site_fract_z
  _atom_site_occupancy
  Al  Al1       1.0  0.29300  0.25000  0.10500  1.0000
  Al  Al2       1.0  0.79300  0.25000  0.39500  1.0000
  Al  Al3       1.0  0.20700  0.75000  0.60500  1.0000
  Al  Al4       1.0  0.70700  0.75000  0.89500  1.0000
  Y   Y1        1.0  0.81600  0.25000  0.07210  1.0000
  Y   Y2        1.0  0.53000  0.75000  0.20700  1.0000
  Y   Y3        1.0  0.02970  0.75000  0.29300  1.0000
  Y   Y4        1.0  0.31600  0.25000  0.42800  1.0000
  Y   Y5        1.0  0.68400  0.75000  0.57200  1.0000
  Y   Y6        1.0  0.97000  0.25000  0.70700  1.0000
  Y   Y7        1.0  0.47000  0.25000  0.79300  1.0000
  Y   Y8        1.0  0.18400  0.75000  0.92800  1.0000
