data_image0
_chemical_formula_structural       Ba4P4Pt4
_chemical_formula_sum              "Ba4 P4 Pt4"
_cell_length_a       6.61515
_cell_length_b       6.61515
_cell_length_c       6.61515
_cell_angle_alpha    90
_cell_angle_beta     90
_cell_angle_gamma    90

_space_group_name_H-M_alt    "P 1"
_space_group_IT_number       1

loop_
  _space_group_symop_operation_xyz
  'x, y, z'

loop_
  _atom_site_type_symbol
  _atom_site_label
  _atom_site_symmetry_multiplicity
  _atom_site_fract_x
  _atom_site_fract_y
  _atom_site_fract_z
  _atom_site_occupancy
  Ba  Ba1       1.0  0.14000  0.14000  0.14000  1.0000
  Ba  Ba2       1.0  0.86000  0.64000  0.36000  1.0000
  Ba  Ba3       1.0  0.36000  0.86000  0.64000  1.0000
  Ba  Ba4       1.0  0.64000  0.36000  0.86000  1.0000
  P   P1        1.0  0.58300  0.91700  0.08350  1.0000
  P   P2        1.0  0.41700  0.41700  0.41700  1.0000
  P   P3        1.0  0.91700  0.08350  0.58300  1.0000
  P   P4        1.0  0.08350  0.58300  0.91700  1.0000
  Pt  Pt1       1.0  0.34900  0.65100  0.15100  1.0000
  Pt  Pt2       1.0  0.65100  0.15100  0.34900  1.0000
  Pt  Pt3       1.0  0.15100  0.34900  0.65100  1.0000
  Pt  Pt4       1.0  0.84900  0.84900  0.84900  1.0000
