data_image0
_chemical_formula_structural       Al8Er2Ni2
_chemical_formula_sum              "Al8 Er2 Ni2"
_cell_length_a       4.04503
_cell_length_b       6.62062
_cell_length_c       7.90947
_cell_angle_alpha    90
_cell_angle_beta     75.1845
_cell_angle_gamma    90

_space_group_name_H-M_alt    "P 1"
_space_group_IT_number       1

loop_
  _space_group_symop_operation_xyz
  'x, y, z'

loop_
  _atom_site_type_symbol
  _atom_site_label
  _atom_site_symmetry_multiplicity
  _atom_site_fract_x
  _atom_site_fract_y
  _atom_site_fract_z
  _atom_site_occupancy
  Al  Al1       1.0  0.50000  0.00000  0.00000  1.0000
  Al  Al2       1.0  0.50000  0.50000  0.00000  1.0000
  Al  Al3       1.0  0.92500  0.25000  0.15000  1.0000
  Al  Al4       1.0  0.31200  0.05260  0.37600  1.0000
  Al  Al5       1.0  0.31200  0.44700  0.37600  1.0000
  Al  Al6       1.0  0.68800  0.55300  0.62400  1.0000
  Al  Al7       1.0  0.68800  0.94700  0.62400  1.0000
  Al  Al8       1.0  0.07510  0.75000  0.85000  1.0000
  Er  Er1       1.0  0.88100  0.75000  0.23800  1.0000
  Er  Er2       1.0  0.11900  0.25000  0.76200  1.0000
  Ni  Ni1       1.0  0.77300  0.25000  0.45300  1.0000
  Ni  Ni2       1.0  0.22700  0.75000  0.54700  1.0000
