data_image0
_chemical_formula_structural       Ba4H8
_chemical_formula_sum              "Ba4 H8"
_cell_length_a       6.70483
_cell_length_b       4.14535
_cell_length_c       7.8112
_cell_angle_alpha    90
_cell_angle_beta     90
_cell_angle_gamma    90

_space_group_name_H-M_alt    "P 1"
_space_group_IT_number       1

loop_
  _space_group_symop_operation_xyz
  'x, y, z'

loop_
  _atom_site_type_symbol
  _atom_site_label
  _atom_site_symmetry_multiplicity
  _atom_site_fract_x
  _atom_site_fract_y
  _atom_site_fract_z
  _atom_site_occupancy
  Ba  Ba1       1.0  0.74000  0.75000  0.11100  1.0000
  Ba  Ba2       1.0  0.24000  0.75000  0.38900  1.0000
  Ba  Ba3       1.0  0.76000  0.25000  0.61100  1.0000
  Ba  Ba4       1.0  0.26000  0.25000  0.88900  1.0000
  H   H1        1.0  0.35000  0.75000  0.07210  1.0000
  H   H2        1.0  0.02820  0.25000  0.18600  1.0000
  H   H3        1.0  0.52800  0.25000  0.31400  1.0000
  H   H4        1.0  0.85000  0.75000  0.42800  1.0000
  H   H5        1.0  0.15000  0.25000  0.57200  1.0000
  H   H6        1.0  0.47200  0.75000  0.68600  1.0000
  H   H7        1.0  0.97200  0.75000  0.81400  1.0000
  H   H8        1.0  0.65000  0.25000  0.92800  1.0000
