data_image0
_chemical_formula_structural       Cs4O6Te2
_chemical_formula_sum              "Cs4 O6 Te2"
_cell_length_a       6.79276
_cell_length_b       6.79268
_cell_length_c       7.8883
_cell_angle_alpha    90
_cell_angle_beta     90.0022
_cell_angle_gamma    120

_space_group_name_H-M_alt    "P 1"
_space_group_IT_number       1

loop_
  _space_group_symop_operation_xyz
  'x, y, z'

loop_
  _atom_site_type_symbol
  _atom_site_label
  _atom_site_symmetry_multiplicity
  _atom_site_fract_x
  _atom_site_fract_y
  _atom_site_fract_z
  _atom_site_occupancy
  Cs  Cs1       1.0  0.00000  0.00000  0.00000  1.0000
  Cs  Cs2       1.0  0.33300  0.66700  0.35900  1.0000
  Cs  Cs3       1.0  1.00000  0.00000  0.50000  1.0000
  Cs  Cs4       1.0  0.66700  0.33300  0.64100  1.0000
  O   O1        1.0  0.84000  0.61600  0.27000  1.0000
  O   O2        1.0  0.77500  0.16000  0.27000  1.0000
  O   O3        1.0  0.38400  0.22500  0.27000  1.0000
  O   O4        1.0  0.61600  0.84000  0.73000  1.0000
  O   O5        1.0  0.22500  0.38400  0.73000  1.0000
  O   O6        1.0  0.16000  0.77500  0.73000  1.0000
  Te  Te1       1.0  0.66700  0.33300  0.16200  1.0000
  Te  Te2       1.0  0.33300  0.66700  0.83800  1.0000
