data_image0
_chemical_formula_structural       H10Rb6Zn2
_chemical_formula_sum              "H10 Rb6 Zn2"
_cell_length_a       7.79109
_cell_length_b       7.79109
_cell_length_c       7.97955
_cell_angle_alpha    119.222
_cell_angle_beta     119.222
_cell_angle_gamma    90

_space_group_name_H-M_alt    "P 1"
_space_group_IT_number       1

loop_
  _space_group_symop_operation_xyz
  'x, y, z'

loop_
  _atom_site_type_symbol
  _atom_site_label
  _atom_site_symmetry_multiplicity
  _atom_site_fract_x
  _atom_site_fract_y
  _atom_site_fract_z
  _atom_site_occupancy
  H   H1        1.0  0.00000  0.00000  0.00000  1.0000
  H   H2        1.0  0.50000  0.50000  0.00000  1.0000
  H   H3        1.0  0.78700  0.04250  0.32900  1.0000
  H   H4        1.0  0.54300  0.28700  0.32900  1.0000
  H   H5        1.0  0.04250  0.54300  0.32900  1.0000
  H   H6        1.0  0.28700  0.78700  0.32900  1.0000
  H   H7        1.0  0.71300  0.21300  0.67100  1.0000
  H   H8        1.0  0.95700  0.45700  0.67100  1.0000
  H   H9        1.0  0.45700  0.71300  0.67100  1.0000
  H   H10       1.0  0.21300  0.95700  0.67100  1.0000
  Rb  Rb1       1.0  0.68000  0.18000  0.00000  1.0000
  Rb  Rb2       1.0  0.18000  0.32000  0.00000  1.0000
  Rb  Rb3       1.0  0.82000  0.68000  0.00000  1.0000
  Rb  Rb4       1.0  0.32000  0.82000  0.00000  1.0000
  Rb  Rb5       1.0  0.25000  0.25000  0.50000  1.0000
  Rb  Rb6       1.0  0.75000  0.75000  0.50000  1.0000
  Zn  Zn1       1.0  0.75000  0.25000  0.50000  1.0000
  Zn  Zn2       1.0  0.25000  0.75000  0.50000  1.0000
