data_image0
_chemical_formula_structural       Fe2H4O10P2
_chemical_formula_sum              "Fe2 H4 O10 P2"
_cell_length_a       5.08696
_cell_length_b       5.08696
_cell_length_c       7.31646
_cell_angle_alpha    106.186
_cell_angle_beta     106.186
_cell_angle_gamma    98.8461

_space_group_name_H-M_alt    "P 1"
_space_group_IT_number       1

loop_
  _space_group_symop_operation_xyz
  'x, y, z'

loop_
  _atom_site_type_symbol
  _atom_site_label
  _atom_site_symmetry_multiplicity
  _atom_site_fract_x
  _atom_site_fract_y
  _atom_site_fract_z
  _atom_site_occupancy
  Fe  Fe1       1.0  0.00000  0.50000  0.00000  1.0000
  Fe  Fe2       1.0  0.50000  1.00000  0.50000  1.0000
  H   H1        1.0  0.55900  0.63300  0.20100  1.0000
  H   H2        1.0  0.36700  0.44100  0.29900  1.0000
  H   H3        1.0  0.63300  0.55900  0.70100  1.0000
  H   H4        1.0  0.44100  0.36700  0.79900  1.0000
  O   O1        1.0  0.82300  0.21600  0.08550  1.0000
  O   O2        1.0  0.82000  0.75700  0.15500  1.0000
  O   O3        1.0  0.38700  0.61300  0.25000  1.0000
  O   O4        1.0  0.24300  0.18000  0.34500  1.0000
  O   O5        1.0  0.78400  0.17700  0.41500  1.0000
  O   O6        1.0  0.21600  0.82300  0.58500  1.0000
  O   O7        1.0  0.75700  0.82000  0.65500  1.0000
  O   O8        1.0  0.61300  0.38700  0.75000  1.0000
  O   O9        1.0  0.18000  0.24300  0.84500  1.0000
  O   O10       1.0  0.17700  0.78400  0.91500  1.0000
  P   P1        1.0  0.91500  0.08510  0.25000  1.0000
  P   P2        1.0  0.08510  0.91500  0.75000  1.0000
