data_image0
_chemical_formula_structural       Ba8Sn4
_chemical_formula_sum              "Ba8 Sn4"
_cell_length_a       8.77077
_cell_length_b       5.68117
_cell_length_c       10.7176
_cell_angle_alpha    90
_cell_angle_beta     90
_cell_angle_gamma    90

_space_group_name_H-M_alt    "P 1"
_space_group_IT_number       1

loop_
  _space_group_symop_operation_xyz
  'x, y, z'

loop_
  _atom_site_type_symbol
  _atom_site_label
  _atom_site_symmetry_multiplicity
  _atom_site_fract_x
  _atom_site_fract_y
  _atom_site_fract_z
  _atom_site_occupancy
  Ba  Ba1       1.0  0.84600  0.25000  0.07930  1.0000
  Ba  Ba2       1.0  0.52000  0.75000  0.17900  1.0000
  Ba  Ba3       1.0  0.01990  0.75000  0.32100  1.0000
  Ba  Ba4       1.0  0.34600  0.25000  0.42100  1.0000
  Ba  Ba5       1.0  0.65400  0.75000  0.57900  1.0000
  Ba  Ba6       1.0  0.98000  0.25000  0.67900  1.0000
  Ba  Ba7       1.0  0.48000  0.25000  0.82100  1.0000
  Ba  Ba8       1.0  0.15400  0.75000  0.92100  1.0000
  Sn  Sn1       1.0  0.25200  0.25000  0.10400  1.0000
  Sn  Sn2       1.0  0.75200  0.25000  0.39600  1.0000
  Sn  Sn3       1.0  0.24800  0.75000  0.60400  1.0000
  Sn  Sn4       1.0  0.74800  0.75000  0.89600  1.0000
