data_image0
_chemical_formula_structural       Cr4Sn8
_chemical_formula_sum              "Cr4 Sn8"
_cell_length_a       5.40733
_cell_length_b       5.3921
_cell_length_c       9.58961
_cell_angle_alpha    98.1269
_cell_angle_beta     106.376
_cell_angle_gamma    59.9065

_space_group_name_H-M_alt    "P 1"
_space_group_IT_number       1

loop_
  _space_group_symop_operation_xyz
  'x, y, z'

loop_
  _atom_site_type_symbol
  _atom_site_label
  _atom_site_symmetry_multiplicity
  _atom_site_fract_x
  _atom_site_fract_y
  _atom_site_fract_z
  _atom_site_occupancy
  Cr  Cr1       1.0  0.25200  0.75000  0.00340  1.0000
  Cr  Cr2       1.0  0.99800  0.75000  0.49700  1.0000
  Cr  Cr3       1.0  0.00170  0.25000  0.50300  1.0000
  Cr  Cr4       1.0  0.74800  0.25000  0.99700  1.0000
  Sn  Sn1       1.0  0.29400  0.25000  0.08730  1.0000
  Sn  Sn2       1.0  0.71000  0.58000  0.25000  1.0000
  Sn  Sn3       1.0  0.03980  0.92000  0.25000  1.0000
  Sn  Sn4       1.0  0.45600  0.25000  0.41300  1.0000
  Sn  Sn5       1.0  0.54400  0.75000  0.58700  1.0000
  Sn  Sn6       1.0  0.96000  0.07950  0.75000  1.0000
  Sn  Sn7       1.0  0.29000  0.42000  0.75000  1.0000
  Sn  Sn8       1.0  0.70600  0.75000  0.91300  1.0000
