data_image0
_chemical_formula_structural       Au8Ga4
_chemical_formula_sum              "Au8 Ga4"
_cell_length_a       3.3632
_cell_length_b       7.00794
_cell_length_c       9.21731
_cell_angle_alpha    90
_cell_angle_beta     79.4881
_cell_angle_gamma    90

_space_group_name_H-M_alt    "P 1"
_space_group_IT_number       1

loop_
  _space_group_symop_operation_xyz
  'x, y, z'

loop_
  _atom_site_type_symbol
  _atom_site_label
  _atom_site_symmetry_multiplicity
  _atom_site_fract_x
  _atom_site_fract_y
  _atom_site_fract_z
  _atom_site_occupancy
  Au  Au1       1.0  0.46500  0.00156  0.07020  1.0000
  Au  Au2       1.0  0.91300  0.67900  0.17400  1.0000
  Au  Au3       1.0  0.83000  0.04960  0.33900  1.0000
  Au  Au4       1.0  0.32200  0.40400  0.35600  1.0000
  Au  Au5       1.0  0.67800  0.90400  0.64400  1.0000
  Au  Au6       1.0  0.17000  0.55000  0.66100  1.0000
  Au  Au7       1.0  0.08680  0.17900  0.82600  1.0000
  Au  Au8       1.0  0.53500  0.50200  0.93000  1.0000
  Ga  Ga1       1.0  0.94000  0.30700  0.11900  1.0000
  Ga  Ga2       1.0  0.29100  0.77100  0.41900  1.0000
  Ga  Ga3       1.0  0.70900  0.27100  0.58100  1.0000
  Ga  Ga4       1.0  0.05970  0.80700  0.88100  1.0000
