data_image0
_chemical_formula_structural       Cu2H2O10Se2Tl2
_chemical_formula_sum              "Cu2 H2 O10 Se2 Tl2"
_cell_length_a       8.89873
_cell_length_b       5.95123
_cell_length_c       4.53565
_cell_angle_alpha    90
_cell_angle_beta     94.6325
_cell_angle_gamma    90

_space_group_name_H-M_alt    "P 1"
_space_group_IT_number       1

loop_
  _space_group_symop_operation_xyz
  'x, y, z'

loop_
  _atom_site_type_symbol
  _atom_site_label
  _atom_site_symmetry_multiplicity
  _atom_site_fract_x
  _atom_site_fract_y
  _atom_site_fract_z
  _atom_site_occupancy
  Cu  Cu1       1.0  0.00000  0.00000  0.00000  1.0000
  Cu  Cu2       1.0  0.00000  0.50000  0.00000  1.0000
  H   H1        1.0  0.10800  0.75000  0.41100  1.0000
  H   H2        1.0  0.89200  0.25000  0.58900  1.0000
  O   O1        1.0  0.10000  0.75000  0.19300  1.0000
  O   O2        1.0  0.07950  0.25000  0.25700  1.0000
  O   O3        1.0  0.77600  0.51500  0.29200  1.0000
  O   O4        1.0  0.77600  0.98500  0.29200  1.0000
  O   O5        1.0  0.39300  0.25000  0.33100  1.0000
  O   O6        1.0  0.60700  0.75000  0.66900  1.0000
  O   O7        1.0  0.22400  0.01450  0.70800  1.0000
  O   O8        1.0  0.22400  0.48500  0.70800  1.0000
  O   O9        1.0  0.92100  0.75000  0.74300  1.0000
  O   O10       1.0  0.90000  0.25000  0.80700  1.0000
  Se  Se1       1.0  0.76200  0.75000  0.48700  1.0000
  Se  Se2       1.0  0.23800  0.25000  0.51300  1.0000
  Tl  Tl1       1.0  0.39500  0.75000  0.10300  1.0000
  Tl  Tl2       1.0  0.60500  0.25000  0.89700  1.0000
