data_image0
_chemical_formula_structural       Au4Yb8
_chemical_formula_sum              "Au4 Yb8"
_cell_length_a       7.7311
_cell_length_b       4.54667
_cell_length_c       9.37529
_cell_angle_alpha    90
_cell_angle_beta     90
_cell_angle_gamma    90

_space_group_name_H-M_alt    "P 1"
_space_group_IT_number       1

loop_
  _space_group_symop_operation_xyz
  'x, y, z'

loop_
  _atom_site_type_symbol
  _atom_site_label
  _atom_site_symmetry_multiplicity
  _atom_site_fract_x
  _atom_site_fract_y
  _atom_site_fract_z
  _atom_site_occupancy
  Au  Au1       1.0  0.24900  0.25000  0.11900  1.0000
  Au  Au2       1.0  0.74900  0.25000  0.38100  1.0000
  Au  Au3       1.0  0.25100  0.75000  0.61900  1.0000
  Au  Au4       1.0  0.75100  0.75000  0.88100  1.0000
  Yb  Yb1       1.0  0.85500  0.25000  0.06950  1.0000
  Yb  Yb2       1.0  0.52300  0.75000  0.16700  1.0000
  Yb  Yb3       1.0  0.02300  0.75000  0.33300  1.0000
  Yb  Yb4       1.0  0.35500  0.25000  0.43100  1.0000
  Yb  Yb5       1.0  0.64500  0.75000  0.56900  1.0000
  Yb  Yb6       1.0  0.97700  0.25000  0.66700  1.0000
  Yb  Yb7       1.0  0.47700  0.25000  0.83300  1.0000
  Yb  Yb8       1.0  0.14500  0.75000  0.93100  1.0000
