data_image0
_chemical_formula_structural       Fe2H4O10S2
_chemical_formula_sum              "Fe2 H4 O10 S2"
_cell_length_a       5.12156
_cell_length_b       5.12156
_cell_length_c       7.52898
_cell_angle_alpha    107.82
_cell_angle_beta     107.82
_cell_angle_gamma    94.1537

_space_group_name_H-M_alt    "P 1"
_space_group_IT_number       1

loop_
  _space_group_symop_operation_xyz
  'x, y, z'

loop_
  _atom_site_type_symbol
  _atom_site_label
  _atom_site_symmetry_multiplicity
  _atom_site_fract_x
  _atom_site_fract_y
  _atom_site_fract_z
  _atom_site_occupancy
  Fe  Fe1       1.0  0.50000  0.50000  0.00000  1.0000
  Fe  Fe2       1.0  0.00000  0.00000  0.50000  1.0000
  H   H1        1.0  0.05630  0.61700  0.20400  1.0000
  H   H2        1.0  0.88300  0.44400  0.29600  1.0000
  H   H3        1.0  0.11700  0.55600  0.70400  1.0000
  H   H4        1.0  0.94400  0.38300  0.79600  1.0000
  O   O1        1.0  0.29900  0.22300  0.09380  1.0000
  O   O2        1.0  0.32300  0.78800  0.16200  1.0000
  O   O3        1.0  0.89400  0.60600  0.25000  1.0000
  O   O4        1.0  0.71200  0.17700  0.33800  1.0000
  O   O5        1.0  0.27700  0.20100  0.40600  1.0000
  O   O6        1.0  0.72300  0.79900  0.59400  1.0000
  O   O7        1.0  0.28800  0.82300  0.66200  1.0000
  O   O8        1.0  0.10600  0.39400  0.75000  1.0000
  O   O9        1.0  0.67700  0.21200  0.83800  1.0000
  O   O10       1.0  0.70100  0.77700  0.90600  1.0000
  S   S1        1.0  0.40000  0.10000  0.25000  1.0000
  S   S2        1.0  0.60000  0.90000  0.75000  1.0000
