data_image0
_chemical_formula_structural       Au2K2Na4O4
_chemical_formula_sum              "Au2 K2 Na4 O4"
_cell_length_a       10.112
_cell_length_b       5.4613
_cell_length_c       3.93163
_cell_angle_alpha    90
_cell_angle_beta     90
_cell_angle_gamma    90

_space_group_name_H-M_alt    "P 1"
_space_group_IT_number       1

loop_
  _space_group_symop_operation_xyz
  'x, y, z'

loop_
  _atom_site_type_symbol
  _atom_site_label
  _atom_site_symmetry_multiplicity
  _atom_site_fract_x
  _atom_site_fract_y
  _atom_site_fract_z
  _atom_site_occupancy
  Au  Au1       1.0  0.00000  0.00000  0.00000  1.0000
  Au  Au2       1.0  0.50000  0.50000  0.50000  1.0000
  K   K1        1.0  0.50000  0.00000  0.00000  1.0000
  K   K2        1.0  0.00000  0.50000  0.50000  1.0000
  Na  Na1       1.0  0.26600  0.40100  0.00000  1.0000
  Na  Na2       1.0  0.73400  0.59900  0.00000  1.0000
  Na  Na3       1.0  0.76600  0.09940  0.50000  1.0000
  Na  Na4       1.0  0.23400  0.90100  0.50000  1.0000
  O   O1        1.0  0.85200  0.25200  0.00000  1.0000
  O   O2        1.0  0.14800  0.74800  0.00000  1.0000
  O   O3        1.0  0.35200  0.24800  0.50000  1.0000
  O   O4        1.0  0.64800  0.75200  0.50000  1.0000
