data_image0
_chemical_formula_structural       Li6O6Te
_chemical_formula_sum              "Li6 O6 Te1"
_cell_length_a       5.06563
_cell_length_b       5.06563
_cell_length_c       5.06563
_cell_angle_alpha    101.807
_cell_angle_beta     101.807
_cell_angle_gamma    101.807

_space_group_name_H-M_alt    "P 1"
_space_group_IT_number       1

loop_
  _space_group_symop_operation_xyz
  'x, y, z'

loop_
  _atom_site_type_symbol
  _atom_site_label
  _atom_site_symmetry_multiplicity
  _atom_site_fract_x
  _atom_site_fract_y
  _atom_site_fract_z
  _atom_site_occupancy
  Li  Li1       1.0  0.28800  0.59000  0.10700  1.0000
  Li  Li2       1.0  0.59000  0.10700  0.28800  1.0000
  Li  Li3       1.0  0.89300  0.71200  0.41000  1.0000
  Li  Li4       1.0  0.10700  0.28800  0.59000  1.0000
  Li  Li5       1.0  0.41000  0.89300  0.71200  1.0000
  Li  Li6       1.0  0.71200  0.41000  0.89300  1.0000
  O   O1        1.0  0.66200  0.77800  0.05260  1.0000
  O   O2        1.0  0.94700  0.33800  0.22200  1.0000
  O   O3        1.0  0.22200  0.94700  0.33800  1.0000
  O   O4        1.0  0.77800  0.05260  0.66200  1.0000
  O   O5        1.0  0.05260  0.66200  0.77800  1.0000
  O   O6        1.0  0.33800  0.22200  0.94700  1.0000
  Te  Te1       1.0  0.00000  0.00000  0.00000  1.0000
