data_image0
_chemical_formula_structural       Li16O12Si2
_chemical_formula_sum              "Li16 O12 Si2"
_cell_length_a       5.36649
_cell_length_b       5.36648
_cell_length_c       10.5463
_cell_angle_alpha    89.9997
_cell_angle_beta     89.9998
_cell_angle_gamma    120.004

_space_group_name_H-M_alt    "P 1"
_space_group_IT_number       1

loop_
  _space_group_symop_operation_xyz
  'x, y, z'

loop_
  _atom_site_type_symbol
  _atom_site_label
  _atom_site_symmetry_multiplicity
  _atom_site_fract_x
  _atom_site_fract_y
  _atom_site_fract_z
  _atom_site_occupancy
  Li  Li1       1.0  0.00007  0.60100  0.12800  1.0000
  Li  Li2       1.0  0.60100  0.00006  0.12800  1.0000
  Li  Li3       1.0  0.39900  0.39900  0.12800  1.0000
  Li  Li4       1.0  0.00000  0.30500  0.27000  1.0000
  Li  Li5       1.0  0.30500  0.00000  0.27000  1.0000
  Li  Li6       1.0  0.69600  0.69600  0.27000  1.0000
  Li  Li7       1.0  0.33300  0.66700  0.41100  1.0000
  Li  Li8       1.0  0.66700  0.33300  0.41100  1.0000
  Li  Li9       1.0  0.39900  0.00000  0.62800  1.0000
  Li  Li10      1.0  0.00000  0.39900  0.62800  1.0000
  Li  Li11      1.0  0.60100  0.60100  0.62800  1.0000
  Li  Li12      1.0  0.00002  0.69500  0.77000  1.0000
  Li  Li13      1.0  0.69500  0.00001  0.77000  1.0000
  Li  Li14      1.0  0.30400  0.30400  0.77000  1.0000
  Li  Li15      1.0  0.33300  0.66700  0.91100  1.0000
  Li  Li16      1.0  0.66700  0.33300  0.91100  1.0000
  O   O1        1.0  0.00007  0.00006  0.15900  1.0000
  O   O2        1.0  0.66700  0.33300  0.22000  1.0000
  O   O3        1.0  0.33300  0.66700  0.22000  1.0000
  O   O4        1.0  0.29100  0.00000  0.45300  1.0000
  O   O5        1.0  0.00000  0.29100  0.45300  1.0000
  O   O6        1.0  0.70900  0.70900  0.45300  1.0000
  O   O7        1.0  0.00000  0.00000  0.65900  1.0000
  O   O8        1.0  0.33300  0.66700  0.72000  1.0000
  O   O9        1.0  0.66700  0.33300  0.72000  1.0000
  O   O10       1.0  0.00010  0.70900  0.95300  1.0000
  O   O11       1.0  0.70900  0.00010  0.95300  1.0000
  O   O12       1.0  0.29100  0.29100  0.95300  1.0000
  Si  Si1       1.0  0.00009  0.00009  0.00056  1.0000
  Si  Si2       1.0  1.00000  1.00000  0.50100  1.0000
