data_image0
_chemical_formula_structural       Li5O8P2
_chemical_formula_sum              "Li5 O8 P2"
_cell_length_a       6.09662
_cell_length_b       5.14833
_cell_length_c       4.78131
_cell_angle_alpha    90.5058
_cell_angle_beta     90
_cell_angle_gamma    90

_space_group_name_H-M_alt    "P 1"
_space_group_IT_number       1

loop_
  _space_group_symop_operation_xyz
  'x, y, z'

loop_
  _atom_site_type_symbol
  _atom_site_label
  _atom_site_symmetry_multiplicity
  _atom_site_fract_x
  _atom_site_fract_y
  _atom_site_fract_z
  _atom_site_occupancy
  Li  Li1       1.0  0.25800  0.67600  0.48600  1.0000
  Li  Li2       1.0  0.74200  0.67600  0.48600  1.0000
  Li  Li3       1.0  0.00000  0.16600  0.49300  1.0000
  Li  Li4       1.0  0.25200  0.32700  0.99500  1.0000
  Li  Li5       1.0  0.74800  0.32700  0.99500  1.0000
  O   O1        1.0  0.00000  0.82100  0.32200  1.0000
  O   O2        1.0  0.29000  0.31400  0.39200  1.0000
  O   O3        1.0  0.71000  0.31400  0.39200  1.0000
  O   O4        1.0  0.50000  0.88900  0.40800  1.0000
  O   O5        1.0  0.50000  0.19000  0.82200  1.0000
  O   O6        1.0  0.20000  0.67600  0.88200  1.0000
  O   O7        1.0  0.80000  0.67600  0.88200  1.0000
  O   O8        1.0  0.00000  0.11100  0.89900  1.0000
  P   P1        1.0  0.00000  0.82700  0.99900  1.0000
  P   P2        1.0  0.50000  0.17600  0.50000  1.0000
