data_image0
_chemical_formula_structural       Al2Cd2Cl8
_chemical_formula_sum              "Al2 Cd2 Cl8"
_cell_length_a       6.54916
_cell_length_b       6.57481
_cell_length_c       9.44945
_cell_angle_alpha    103.572
_cell_angle_beta     96.2466
_cell_angle_gamma    60.3383

_space_group_name_H-M_alt    "P 1"
_space_group_IT_number       1

loop_
  _space_group_symop_operation_xyz
  'x, y, z'

loop_
  _atom_site_type_symbol
  _atom_site_label
  _atom_site_symmetry_multiplicity
  _atom_site_fract_x
  _atom_site_fract_y
  _atom_site_fract_z
  _atom_site_occupancy
  Al  Al1       1.0  0.16700  0.58300  0.26100  1.0000
  Al  Al2       1.0  0.83300  0.41700  0.73900  1.0000
  Cd  Cd1       1.0  0.49300  0.95300  0.35700  1.0000
  Cd  Cd2       1.0  0.50700  0.04690  0.64300  1.0000
  Cl  Cl1       1.0  0.20100  0.84000  0.17000  1.0000
  Cl  Cl2       1.0  0.45800  0.23200  0.17400  1.0000
  Cl  Cl3       1.0  0.84500  0.58300  0.17700  1.0000
  Cl  Cl4       1.0  0.16700  0.66600  0.49200  1.0000
  Cl  Cl5       1.0  0.83300  0.33400  0.50800  1.0000
  Cl  Cl6       1.0  0.15500  0.41700  0.82300  1.0000
  Cl  Cl7       1.0  0.54200  0.76800  0.82600  1.0000
  Cl  Cl8       1.0  0.79900  0.16000  0.83000  1.0000
