data_image0
_chemical_formula_structural       BeCa2Ta
_chemical_formula_sum              "Be1 Ca2 Ta1"
_cell_length_a       5.14746
_cell_length_b       5.14746
_cell_length_c       5.14746
_cell_angle_alpha    60.0184
_cell_angle_beta     60.0184
_cell_angle_gamma    60.0184

_space_group_name_H-M_alt    "P 1"
_space_group_IT_number       1

loop_
  _space_group_symop_operation_xyz
  'x, y, z'

loop_
  _atom_site_type_symbol
  _atom_site_label
  _atom_site_symmetry_multiplicity
  _atom_site_fract_x
  _atom_site_fract_y
  _atom_site_fract_z
  _atom_site_occupancy
  Be  Be1       1.0  0.25100  0.25100  0.25100  1.0000
  Ca  Ca1       1.0  0.00121  0.00121  0.00121  1.0000
  Ca  Ca2       1.0  0.50000  0.50000  0.50000  1.0000
  Ta  Ta1       1.0  0.74800  0.74800  0.74800  1.0000
