data_image0
_chemical_formula_structural       Ge2Li8O7
_chemical_formula_sum              "Ge2 Li8 O7"
_cell_length_a       5.26361
_cell_length_b       5.98143
_cell_length_c       5.34274
_cell_angle_alpha    90
_cell_angle_beta     87.792
_cell_angle_gamma    90

_space_group_name_H-M_alt    "P 1"
_space_group_IT_number       1

loop_
  _space_group_symop_operation_xyz
  'x, y, z'

loop_
  _atom_site_type_symbol
  _atom_site_label
  _atom_site_symmetry_multiplicity
  _atom_site_fract_x
  _atom_site_fract_y
  _atom_site_fract_z
  _atom_site_occupancy
  Ge  Ge1       1.0  0.61500  0.25000  0.33400  1.0000
  Ge  Ge2       1.0  0.34800  0.75000  0.66300  1.0000
  Li  Li1       1.0  0.59100  0.75000  0.12300  1.0000
  Li  Li2       1.0  0.15900  0.99800  0.16000  1.0000
  Li  Li3       1.0  0.15900  0.50200  0.16000  1.0000
  Li  Li4       1.0  0.87500  0.75000  0.42400  1.0000
  Li  Li5       1.0  0.09870  0.25000  0.58700  1.0000
  Li  Li6       1.0  0.84000  0.00457  0.84500  1.0000
  Li  Li7       1.0  0.84000  0.49500  0.84500  1.0000
  Li  Li8       1.0  0.44000  0.25000  0.84700  1.0000
  O   O1        1.0  0.79900  0.00941  0.20600  1.0000
  O   O2        1.0  0.79900  0.49100  0.20600  1.0000
  O   O3        1.0  0.27300  0.75000  0.34300  1.0000
  O   O4        1.0  0.73900  0.25000  0.65200  1.0000
  O   O5        1.0  0.67000  0.75000  0.73700  1.0000
  O   O6        1.0  0.21100  0.50300  0.80100  1.0000
  O   O7        1.0  0.21100  0.99700  0.80100  1.0000
