data_image0
_chemical_formula_structural       Ge4Ho4Ni4
_chemical_formula_sum              "Ge4 Ho4 Ni4"
_cell_length_a       6.88897
_cell_length_b       4.22092
_cell_length_c       7.27183
_cell_angle_alpha    90
_cell_angle_beta     90
_cell_angle_gamma    90

_space_group_name_H-M_alt    "P 1"
_space_group_IT_number       1

loop_
  _space_group_symop_operation_xyz
  'x, y, z'

loop_
  _atom_site_type_symbol
  _atom_site_label
  _atom_site_symmetry_multiplicity
  _atom_site_fract_x
  _atom_site_fract_y
  _atom_site_fract_z
  _atom_site_occupancy
  Ge  Ge1       1.0  0.80300  0.25000  0.08770  1.0000
  Ge  Ge2       1.0  0.30300  0.25000  0.41200  1.0000
  Ge  Ge3       1.0  0.69700  0.75000  0.58800  1.0000
  Ge  Ge4       1.0  0.19700  0.75000  0.91200  1.0000
  Ho  Ho1       1.0  0.50700  0.75000  0.20700  1.0000
  Ho  Ho2       1.0  0.00724  0.75000  0.29300  1.0000
  Ho  Ho3       1.0  0.99300  0.25000  0.70700  1.0000
  Ho  Ho4       1.0  0.49300  0.25000  0.79300  1.0000
  Ni  Ni1       1.0  0.19500  0.25000  0.08250  1.0000
  Ni  Ni2       1.0  0.69500  0.25000  0.41700  1.0000
  Ni  Ni3       1.0  0.30500  0.75000  0.58300  1.0000
  Ni  Ni4       1.0  0.80500  0.75000  0.91700  1.0000
