data_image0
_chemical_formula_structural       Cu2Eu2S6Tm2
_chemical_formula_sum              "Cu2 Eu2 S6 Tm2"
_cell_length_a       3.86367
_cell_length_b       6.6259
_cell_length_c       10.0424
_cell_angle_alpha    90
_cell_angle_beta     90
_cell_angle_gamma    73.0487

_space_group_name_H-M_alt    "P 1"
_space_group_IT_number       1

loop_
  _space_group_symop_operation_xyz
  'x, y, z'

loop_
  _atom_site_type_symbol
  _atom_site_label
  _atom_site_symmetry_multiplicity
  _atom_site_fract_x
  _atom_site_fract_y
  _atom_site_fract_z
  _atom_site_occupancy
  Cu  Cu1       1.0  0.47200  0.05690  0.25000  1.0000
  Cu  Cu2       1.0  0.52800  0.94300  0.75000  1.0000
  Eu  Eu1       1.0  0.75000  0.50100  0.25000  1.0000
  Eu  Eu2       1.0  0.25000  0.49900  0.75000  1.0000
  S   S1        1.0  0.36000  0.28000  0.06740  1.0000
  S   S2        1.0  0.07940  0.84100  0.25000  1.0000
  S   S3        1.0  0.36000  0.28000  0.43300  1.0000
  S   S4        1.0  0.64000  0.72000  0.56700  1.0000
  S   S5        1.0  0.92100  0.15900  0.75000  1.0000
  S   S6        1.0  0.64000  0.72000  0.93300  1.0000
  Tm  Tm1       1.0  0.00000  0.00000  0.00000  1.0000
  Tm  Tm2       1.0  0.00000  0.00000  0.50000  1.0000
