data_image0
_chemical_formula_structural       Er4Ge4Ni4
_chemical_formula_sum              "Er4 Ge4 Ni4"
_cell_length_a       6.85659
_cell_length_b       4.21204
_cell_length_c       7.26054
_cell_angle_alpha    90
_cell_angle_beta     90
_cell_angle_gamma    90

_space_group_name_H-M_alt    "P 1"
_space_group_IT_number       1

loop_
  _space_group_symop_operation_xyz
  'x, y, z'

loop_
  _atom_site_type_symbol
  _atom_site_label
  _atom_site_symmetry_multiplicity
  _atom_site_fract_x
  _atom_site_fract_y
  _atom_site_fract_z
  _atom_site_occupancy
  Er  Er1       1.0  0.50700  0.75000  0.20600  1.0000
  Er  Er2       1.0  0.00721  0.75000  0.29400  1.0000
  Er  Er3       1.0  0.99300  0.25000  0.70600  1.0000
  Er  Er4       1.0  0.49300  0.25000  0.79400  1.0000
  Ge  Ge1       1.0  0.80400  0.25000  0.08730  1.0000
  Ge  Ge2       1.0  0.30400  0.25000  0.41300  1.0000
  Ge  Ge3       1.0  0.69600  0.75000  0.58700  1.0000
  Ge  Ge4       1.0  0.19600  0.75000  0.91300  1.0000
  Ni  Ni1       1.0  0.19300  0.25000  0.08380  1.0000
  Ni  Ni2       1.0  0.69300  0.25000  0.41600  1.0000
  Ni  Ni3       1.0  0.30700  0.75000  0.58400  1.0000
  Ni  Ni4       1.0  0.80700  0.75000  0.91600  1.0000
