data_image0
_chemical_formula_structural       Cl5O4Re2
_chemical_formula_sum              "Cl5 O4 Re2"
_cell_length_a       5.77411
_cell_length_b       5.97244
_cell_length_c       8.00858
_cell_angle_alpha    114.556
_cell_angle_beta     96.0921
_cell_angle_gamma    94.7508

_space_group_name_H-M_alt    "P 1"
_space_group_IT_number       1

loop_
  _space_group_symop_operation_xyz
  'x, y, z'

loop_
  _atom_site_type_symbol
  _atom_site_label
  _atom_site_symmetry_multiplicity
  _atom_site_fract_x
  _atom_site_fract_y
  _atom_site_fract_z
  _atom_site_occupancy
  Cl  Cl1       1.0  0.34600  0.25200  0.00980  1.0000
  Cl  Cl2       1.0  0.78400  0.73400  0.07070  1.0000
  Cl  Cl3       1.0  0.95200  0.31300  0.27500  1.0000
  Cl  Cl4       1.0  0.60600  0.32100  0.60600  1.0000
  Cl  Cl5       1.0  0.16200  0.66600  0.79800  1.0000
  O   O1        1.0  0.29600  0.93800  0.20900  1.0000
  O   O2        1.0  0.49600  0.72600  0.43800  1.0000
  O   O3        1.0  0.11100  0.98200  0.53200  1.0000
  O   O4        1.0  0.82300  0.05400  0.84700  1.0000
  Re  Re1       1.0  0.01450  0.00402  0.99800  1.0000
  Re  Re2       1.0  0.36600  0.97400  0.43800  1.0000
