data_image0
_chemical_formula_structural       CeMg2Ni9
_chemical_formula_sum              "Ce1 Mg2 Ni9"
_cell_length_a       4.88954
_cell_length_b       4.88954
_cell_length_c       8.38633
_cell_angle_alpha    73.0511
_cell_angle_beta     106.949
_cell_angle_gamma    120

_space_group_name_H-M_alt    "P 1"
_space_group_IT_number       1

loop_
  _space_group_symop_operation_xyz
  'x, y, z'

loop_
  _atom_site_type_symbol
  _atom_site_label
  _atom_site_symmetry_multiplicity
  _atom_site_fract_x
  _atom_site_fract_y
  _atom_site_fract_z
  _atom_site_occupancy
  Ce  Ce1       1.0  0.00000  0.00000  0.00000  1.0000
  Mg  Mg1       1.0  0.14500  0.85500  0.43400  1.0000
  Mg  Mg2       1.0  0.85500  0.14500  0.56600  1.0000
  Ni  Ni1       1.0  0.66700  0.33300  0.00000  1.0000
  Ni  Ni2       1.0  0.33300  0.66700  0.00041  1.0000
  Ni  Ni3       1.0  0.08270  0.41300  0.25700  1.0000
  Ni  Ni4       1.0  0.58700  0.41300  0.25700  1.0000
  Ni  Ni5       1.0  0.58700  0.91700  0.25700  1.0000
  Ni  Ni6       1.0  0.50000  0.50000  0.50000  1.0000
  Ni  Ni7       1.0  0.41300  0.08270  0.74300  1.0000
  Ni  Ni8       1.0  0.41300  0.58700  0.74300  1.0000
  Ni  Ni9       1.0  0.91700  0.58700  0.74300  1.0000
