data_image0
_chemical_formula_structural       Ba2Li4Si2
_chemical_formula_sum              "Ba2 Li4 Si2"
_cell_length_a       4.6345
_cell_length_b       6.67242
_cell_length_c       6.2725
_cell_angle_alpha    90
_cell_angle_beta     90
_cell_angle_gamma    90

_space_group_name_H-M_alt    "P 1"
_space_group_IT_number       1

loop_
  _space_group_symop_operation_xyz
  'x, y, z'

loop_
  _atom_site_type_symbol
  _atom_site_label
  _atom_site_symmetry_multiplicity
  _atom_site_fract_x
  _atom_site_fract_y
  _atom_site_fract_z
  _atom_site_occupancy
  Ba  Ba1       1.0  0.00000  0.00000  0.09710  1.0000
  Ba  Ba2       1.0  0.50000  0.50000  0.90300  1.0000
  Li  Li1       1.0  0.50000  0.29900  0.41000  1.0000
  Li  Li2       1.0  0.50000  0.70100  0.41000  1.0000
  Li  Li3       1.0  0.00000  0.20100  0.59000  1.0000
  Li  Li4       1.0  0.00000  0.79900  0.59000  1.0000
  Si  Si1       1.0  0.00000  0.50000  0.30800  1.0000
  Si  Si2       1.0  0.50000  0.00000  0.69200  1.0000
