data_image0
_chemical_formula_structural       Cu2H2O10S2Tl2
_chemical_formula_sum              "Cu2 H2 O10 S2 Tl2"
_cell_length_a       8.7248
_cell_length_b       5.87162
_cell_length_c       4.45597
_cell_angle_alpha    90
_cell_angle_beta     95.8731
_cell_angle_gamma    90

_space_group_name_H-M_alt    "P 1"
_space_group_IT_number       1

loop_
  _space_group_symop_operation_xyz
  'x, y, z'

loop_
  _atom_site_type_symbol
  _atom_site_label
  _atom_site_symmetry_multiplicity
  _atom_site_fract_x
  _atom_site_fract_y
  _atom_site_fract_z
  _atom_site_occupancy
  Cu  Cu1       1.0  0.00000  0.00000  0.00000  1.0000
  Cu  Cu2       1.0  0.00000  0.50000  0.00000  1.0000
  H   H1        1.0  0.11600  0.75000  0.41100  1.0000
  H   H2        1.0  0.88400  0.25000  0.58900  1.0000
  O   O1        1.0  0.10800  0.75000  0.18900  1.0000
  O   O2        1.0  0.08300  0.25000  0.28200  1.0000
  O   O3        1.0  0.77900  0.54000  0.30700  1.0000
  O   O4        1.0  0.77900  0.96000  0.30700  1.0000
  O   O5        1.0  0.36900  0.25000  0.34900  1.0000
  O   O6        1.0  0.63100  0.75000  0.65100  1.0000
  O   O7        1.0  0.22100  0.04010  0.69300  1.0000
  O   O8        1.0  0.22100  0.46000  0.69300  1.0000
  O   O9        1.0  0.91700  0.75000  0.71800  1.0000
  O   O10       1.0  0.89200  0.25000  0.81100  1.0000
  S   S1        1.0  0.77000  0.75000  0.48600  1.0000
  S   S2        1.0  0.23000  0.25000  0.51400  1.0000
  Tl  Tl1       1.0  0.40000  0.75000  0.09760  1.0000
  Tl  Tl2       1.0  0.60000  0.25000  0.90200  1.0000
