data_image0
_chemical_formula_structural       Au4Ho8
_chemical_formula_sum              "Au4 Ho8"
_cell_length_a       7.04371
_cell_length_b       4.92223
_cell_length_c       8.88037
_cell_angle_alpha    90
_cell_angle_beta     90
_cell_angle_gamma    90

_space_group_name_H-M_alt    "P 1"
_space_group_IT_number       1

loop_
  _space_group_symop_operation_xyz
  'x, y, z'

loop_
  _atom_site_type_symbol
  _atom_site_label
  _atom_site_symmetry_multiplicity
  _atom_site_fract_x
  _atom_site_fract_y
  _atom_site_fract_z
  _atom_site_occupancy
  Au  Au1       1.0  0.25900  0.25000  0.09910  1.0000
  Au  Au2       1.0  0.75900  0.25000  0.40100  1.0000
  Au  Au3       1.0  0.24100  0.75000  0.59900  1.0000
  Au  Au4       1.0  0.74100  0.75000  0.90100  1.0000
  Ho  Ho1       1.0  0.85000  0.25000  0.08060  1.0000
  Ho  Ho2       1.0  0.51400  0.75000  0.17700  1.0000
  Ho  Ho3       1.0  0.01380  0.75000  0.32300  1.0000
  Ho  Ho4       1.0  0.35000  0.25000  0.41900  1.0000
  Ho  Ho5       1.0  0.65000  0.75000  0.58100  1.0000
  Ho  Ho6       1.0  0.98600  0.25000  0.67700  1.0000
  Ho  Ho7       1.0  0.48600  0.25000  0.82300  1.0000
  Ho  Ho8       1.0  0.15000  0.75000  0.91900  1.0000
