data_image0
_chemical_formula_structural       Be8Mo4
_chemical_formula_sum              "Be8 Mo4"
_cell_length_a       4.44311
_cell_length_b       4.44312
_cell_length_c       7.31449
_cell_angle_alpha    90
_cell_angle_beta     90
_cell_angle_gamma    120

_space_group_name_H-M_alt    "P 1"
_space_group_IT_number       1

loop_
  _space_group_symop_operation_xyz
  'x, y, z'

loop_
  _atom_site_type_symbol
  _atom_site_label
  _atom_site_symmetry_multiplicity
  _atom_site_fract_x
  _atom_site_fract_y
  _atom_site_fract_z
  _atom_site_occupancy
  Be  Be1       1.0  0.00000  0.00000  0.00000  1.0000
  Be  Be2       1.0  0.33800  0.16900  0.25000  1.0000
  Be  Be3       1.0  0.83100  0.16900  0.25000  1.0000
  Be  Be4       1.0  0.83100  0.66200  0.25000  1.0000
  Be  Be5       1.0  0.00000  0.00000  0.50000  1.0000
  Be  Be6       1.0  0.16900  0.33800  0.75000  1.0000
  Be  Be7       1.0  0.16900  0.83100  0.75000  1.0000
  Be  Be8       1.0  0.66200  0.83100  0.75000  1.0000
  Mo  Mo1       1.0  0.33300  0.66700  0.06240  1.0000
  Mo  Mo2       1.0  0.33300  0.66700  0.43800  1.0000
  Mo  Mo3       1.0  0.66700  0.33300  0.56200  1.0000
  Mo  Mo4       1.0  0.66700  0.33300  0.93800  1.0000
