data_image0
_chemical_formula_structural       Fe2H2Li2O10P2
_chemical_formula_sum              "Fe2 H2 Li2 O10 P2"
_cell_length_a       5.36056
_cell_length_b       7.24696
_cell_length_c       5.09058
_cell_angle_alpha    108.952
_cell_angle_beta     97.8056
_cell_angle_gamma    106.681

_space_group_name_H-M_alt    "P 1"
_space_group_IT_number       1

loop_
  _space_group_symop_operation_xyz
  'x, y, z'

loop_
  _atom_site_type_symbol
  _atom_site_label
  _atom_site_symmetry_multiplicity
  _atom_site_fract_x
  _atom_site_fract_y
  _atom_site_fract_z
  _atom_site_occupancy
  Fe  Fe1       1.0  0.00000  0.50000  0.00000  1.0000
  Fe  Fe2       1.0  0.00000  0.00000  0.00000  1.0000
  H   H1        1.0  0.06830  0.34600  0.36300  1.0000
  H   H2        1.0  0.93200  0.65400  0.63700  1.0000
  Li  Li1       1.0  0.60600  0.17600  0.25300  1.0000
  Li  Li2       1.0  0.39400  0.82400  0.74700  1.0000
  O   O1        1.0  0.65300  0.87700  0.10800  1.0000
  O   O2        1.0  0.95300  0.27700  0.16300  1.0000
  O   O3        1.0  0.78400  0.61000  0.27100  1.0000
  O   O4        1.0  0.33700  0.66200  0.31700  1.0000
  O   O5        1.0  0.24400  0.06480  0.36700  1.0000
  O   O6        1.0  0.75600  0.93500  0.63300  1.0000
  O   O7        1.0  0.66300  0.33800  0.68300  1.0000
  O   O8        1.0  0.21600  0.39000  0.72900  1.0000
  O   O9        1.0  0.04670  0.72300  0.83700  1.0000
  O   O10       1.0  0.34700  0.12300  0.89200  1.0000
  P   P1        1.0  0.63500  0.76700  0.32400  1.0000
  P   P2        1.0  0.36500  0.23300  0.67600  1.0000
