data_image0
_chemical_formula_structural       In4Pd8
_chemical_formula_sum              "In4 Pd8"
_cell_length_a       5.66984
_cell_length_b       4.27736
_cell_length_c       8.30176
_cell_angle_alpha    90
_cell_angle_beta     90
_cell_angle_gamma    90

_space_group_name_H-M_alt    "P 1"
_space_group_IT_number       1

loop_
  _space_group_symop_operation_xyz
  'x, y, z'

loop_
  _atom_site_type_symbol
  _atom_site_label
  _atom_site_symmetry_multiplicity
  _atom_site_fract_x
  _atom_site_fract_y
  _atom_site_fract_z
  _atom_site_occupancy
  In  In1       1.0  0.81900  0.75000  0.09980  1.0000
  In  In2       1.0  0.31900  0.75000  0.40000  1.0000
  In  In3       1.0  0.68100  0.25000  0.60000  1.0000
  In  In4       1.0  0.18100  0.25000  0.90000  1.0000
  Pd  Pd1       1.0  0.33700  0.75000  0.07190  1.0000
  Pd  Pd2       1.0  0.06050  0.25000  0.23100  1.0000
  Pd  Pd3       1.0  0.56100  0.25000  0.26900  1.0000
  Pd  Pd4       1.0  0.83700  0.75000  0.42800  1.0000
  Pd  Pd5       1.0  0.16300  0.25000  0.57200  1.0000
  Pd  Pd6       1.0  0.43900  0.75000  0.73100  1.0000
  Pd  Pd7       1.0  0.93900  0.75000  0.76900  1.0000
  Pd  Pd8       1.0  0.66300  0.25000  0.92800  1.0000
