data_image0
_chemical_formula_structural       Ca8Pb4
_chemical_formula_sum              "Ca8 Pb4"
_cell_length_a       7.97851
_cell_length_b       5.12875
_cell_length_c       9.67087
_cell_angle_alpha    90
_cell_angle_beta     90
_cell_angle_gamma    90

_space_group_name_H-M_alt    "P 1"
_space_group_IT_number       1

loop_
  _space_group_symop_operation_xyz
  'x, y, z'

loop_
  _atom_site_type_symbol
  _atom_site_label
  _atom_site_symmetry_multiplicity
  _atom_site_fract_x
  _atom_site_fract_y
  _atom_site_fract_z
  _atom_site_occupancy
  Ca  Ca1       1.0  0.65800  0.25000  0.07010  1.0000
  Ca  Ca2       1.0  0.97900  0.75000  0.18500  1.0000
  Ca  Ca3       1.0  0.47900  0.75000  0.31500  1.0000
  Ca  Ca4       1.0  0.15800  0.25000  0.43000  1.0000
  Ca  Ca5       1.0  0.84200  0.75000  0.57000  1.0000
  Ca  Ca6       1.0  0.52100  0.25000  0.68500  1.0000
  Ca  Ca7       1.0  0.02100  0.25000  0.81500  1.0000
  Ca  Ca8       1.0  0.34200  0.75000  0.93000  1.0000
  Pb  Pb1       1.0  0.24900  0.25000  0.11000  1.0000
  Pb  Pb2       1.0  0.74900  0.25000  0.39000  1.0000
  Pb  Pb3       1.0  0.25100  0.75000  0.61000  1.0000
  Pb  Pb4       1.0  0.75100  0.75000  0.89000  1.0000
