data_image0
_chemical_formula_structural       C3N6Sr3
_chemical_formula_sum              "C3 N6 Sr3"
_cell_length_a       3.94428
_cell_length_b       3.94428
_cell_length_c       15.0566
_cell_angle_alpha    90
_cell_angle_beta     90
_cell_angle_gamma    120

_space_group_name_H-M_alt    "P 1"
_space_group_IT_number       1

loop_
  _space_group_symop_operation_xyz
  'x, y, z'

loop_
  _atom_site_type_symbol
  _atom_site_label
  _atom_site_symmetry_multiplicity
  _atom_site_fract_x
  _atom_site_fract_y
  _atom_site_fract_z
  _atom_site_occupancy
  C   C1        1.0  0.00000  0.00000  0.00001  1.0000
  C   C2        1.0  0.66700  0.33300  0.33300  1.0000
  C   C3        1.0  0.33300  0.66700  0.66700  1.0000
  N   N1        1.0  0.00001  0.00001  0.08220  1.0000
  N   N2        1.0  0.66700  0.33300  0.25100  1.0000
  N   N3        1.0  0.66700  0.33300  0.41600  1.0000
  N   N4        1.0  0.33300  0.66700  0.58400  1.0000
  N   N5        1.0  0.33300  0.66700  0.74900  1.0000
  N   N6        1.0  0.00000  0.00000  0.91800  1.0000
  Sr  Sr1       1.0  0.33300  0.66700  0.16700  1.0000
  Sr  Sr2       1.0  0.00005  0.00002  0.50000  1.0000
  Sr  Sr3       1.0  0.66700  0.33300  0.83300  1.0000
