data_image0
_chemical_formula_structural       H4K4O4
_chemical_formula_sum              "H4 K4 O4"
_cell_length_a       5.74636
_cell_length_b       3.91738
_cell_length_c       7.66356
_cell_angle_alpha    90
_cell_angle_beta     110.025
_cell_angle_gamma    90

_space_group_name_H-M_alt    "P 1"
_space_group_IT_number       1

loop_
  _space_group_symop_operation_xyz
  'x, y, z'

loop_
  _atom_site_type_symbol
  _atom_site_label
  _atom_site_symmetry_multiplicity
  _atom_site_fract_x
  _atom_site_fract_y
  _atom_site_fract_z
  _atom_site_occupancy
  H   H1        1.0  0.30100  0.12000  0.23400  1.0000
  H   H2        1.0  0.19900  0.62000  0.26600  1.0000
  H   H3        1.0  0.80100  0.38000  0.73400  1.0000
  H   H4        1.0  0.69900  0.88000  0.76600  1.0000
  K   K1        1.0  0.78000  0.25400  0.06430  1.0000
  K   K2        1.0  0.72000  0.75400  0.43600  1.0000
  K   K3        1.0  0.28000  0.24600  0.56400  1.0000
  K   K4        1.0  0.22000  0.74600  0.93600  1.0000
  O   O1        1.0  0.42300  0.28000  0.21600  1.0000
  O   O2        1.0  0.07710  0.78000  0.28400  1.0000
  O   O3        1.0  0.92300  0.22000  0.71600  1.0000
  O   O4        1.0  0.57700  0.72000  0.78400  1.0000
