data_image0
_chemical_formula_structural       Br4Eu4I4
_chemical_formula_sum              "Br4 Eu4 I4"
_cell_length_a       8.32983
_cell_length_b       4.72083
_cell_length_c       9.60468
_cell_angle_alpha    90
_cell_angle_beta     90
_cell_angle_gamma    90

_space_group_name_H-M_alt    "P 1"
_space_group_IT_number       1

loop_
  _space_group_symop_operation_xyz
  'x, y, z'

loop_
  _atom_site_type_symbol
  _atom_site_label
  _atom_site_symmetry_multiplicity
  _atom_site_fract_x
  _atom_site_fract_y
  _atom_site_fract_z
  _atom_site_occupancy
  Br  Br1       1.0  0.85500  0.75000  0.06420  1.0000
  Br  Br2       1.0  0.35500  0.75000  0.43600  1.0000
  Br  Br3       1.0  0.64500  0.25000  0.56400  1.0000
  Br  Br4       1.0  0.14500  0.25000  0.93600  1.0000
  Eu  Eu1       1.0  0.22500  0.75000  0.12800  1.0000
  Eu  Eu2       1.0  0.72500  0.75000  0.37200  1.0000
  Eu  Eu3       1.0  0.27500  0.25000  0.62800  1.0000
  Eu  Eu4       1.0  0.77500  0.25000  0.87200  1.0000
  I   I1        1.0  0.52600  0.25000  0.16700  1.0000
  I   I2        1.0  0.02630  0.25000  0.33300  1.0000
  I   I3        1.0  0.97400  0.75000  0.66700  1.0000
  I   I4        1.0  0.47400  0.75000  0.83300  1.0000
