data_image0
_chemical_formula_structural       In4Yb8
_chemical_formula_sum              "In4 Yb8"
_cell_length_a       7.0833
_cell_length_b       5.31023
_cell_length_c       9.85982
_cell_angle_alpha    90
_cell_angle_beta     90
_cell_angle_gamma    90

_space_group_name_H-M_alt    "P 1"
_space_group_IT_number       1

loop_
  _space_group_symop_operation_xyz
  'x, y, z'

loop_
  _atom_site_type_symbol
  _atom_site_label
  _atom_site_symmetry_multiplicity
  _atom_site_fract_x
  _atom_site_fract_y
  _atom_site_fract_z
  _atom_site_occupancy
  In  In1       1.0  0.27700  0.25000  0.10900  1.0000
  In  In2       1.0  0.77700  0.25000  0.39100  1.0000
  In  In3       1.0  0.22300  0.75000  0.60900  1.0000
  In  In4       1.0  0.72300  0.75000  0.89100  1.0000
  Yb  Yb1       1.0  0.82300  0.25000  0.06820  1.0000
  Yb  Yb2       1.0  0.53100  0.75000  0.20500  1.0000
  Yb  Yb3       1.0  0.03130  0.75000  0.29500  1.0000
  Yb  Yb4       1.0  0.32300  0.25000  0.43200  1.0000
  Yb  Yb5       1.0  0.67700  0.75000  0.56800  1.0000
  Yb  Yb6       1.0  0.96900  0.25000  0.70500  1.0000
  Yb  Yb7       1.0  0.46900  0.25000  0.79500  1.0000
  Yb  Yb8       1.0  0.17700  0.75000  0.93200  1.0000
