data_image0
_chemical_formula_structural       Cl4Cs2Cu4I2
_chemical_formula_sum              "Cl4 Cs2 Cu4 I2"
_cell_length_a       8.40917
_cell_length_b       5.69288
_cell_length_c       7.6768
_cell_angle_alpha    90
_cell_angle_beta     109.257
_cell_angle_gamma    90

_space_group_name_H-M_alt    "P 1"
_space_group_IT_number       1

loop_
  _space_group_symop_operation_xyz
  'x, y, z'

loop_
  _atom_site_type_symbol
  _atom_site_label
  _atom_site_symmetry_multiplicity
  _atom_site_fract_x
  _atom_site_fract_y
  _atom_site_fract_z
  _atom_site_occupancy
  Cl  Cl1       1.0  0.38500  0.75000  0.13800  1.0000
  Cl  Cl2       1.0  0.24500  0.25000  0.37800  1.0000
  Cl  Cl3       1.0  0.75500  0.75000  0.62200  1.0000
  Cl  Cl4       1.0  0.61500  0.25000  0.86200  1.0000
  Cs  Cs1       1.0  0.64400  0.25000  0.33500  1.0000
  Cs  Cs2       1.0  0.35600  0.75000  0.66500  1.0000
  Cu  Cu1       1.0  0.15100  0.50600  0.11800  1.0000
  Cu  Cu2       1.0  0.15100  0.99400  0.11800  1.0000
  Cu  Cu3       1.0  0.84900  0.00583  0.88200  1.0000
  Cu  Cu4       1.0  0.84900  0.49400  0.88200  1.0000
  I   I1        1.0  0.90800  0.75000  0.18600  1.0000
  I   I2        1.0  0.09160  0.25000  0.81400  1.0000
