data_image0
_chemical_formula_structural       K4O6S2
_chemical_formula_sum              "K4 O6 S2"
_cell_length_a       5.92831
_cell_length_b       5.92806
_cell_length_c       6.85971
_cell_angle_alpha    90
_cell_angle_beta     89.9977
_cell_angle_gamma    119.999

_space_group_name_H-M_alt    "P 1"
_space_group_IT_number       1

loop_
  _space_group_symop_operation_xyz
  'x, y, z'

loop_
  _atom_site_type_symbol
  _atom_site_label
  _atom_site_symmetry_multiplicity
  _atom_site_fract_x
  _atom_site_fract_y
  _atom_site_fract_z
  _atom_site_occupancy
  K   K1        1.0  0.00000  0.00000  0.00000  1.0000
  K   K2        1.0  0.66700  0.33300  0.32500  1.0000
  K   K3        1.0  1.00000  0.00000  0.50000  1.0000
  K   K4        1.0  0.33300  0.66700  0.67500  1.0000
  O   O1        1.0  0.19600  0.80400  0.26700  1.0000
  O   O2        1.0  0.19600  0.39300  0.26700  1.0000
  O   O3        1.0  0.60700  0.80400  0.26700  1.0000
  O   O4        1.0  0.39300  0.19600  0.73300  1.0000
  O   O5        1.0  0.80400  0.60700  0.73300  1.0000
  O   O6        1.0  0.80400  0.19600  0.73300  1.0000
  S   S1        1.0  0.33300  0.66700  0.17600  1.0000
  S   S2        1.0  0.66700  0.33300  0.82400  1.0000
