data_image0
_chemical_formula_structural       Eu4Pt4Sb4
_chemical_formula_sum              "Eu4 Pt4 Sb4"
_cell_length_a       7.55461
_cell_length_b       4.67114
_cell_length_c       7.92796
_cell_angle_alpha    90
_cell_angle_beta     90
_cell_angle_gamma    90

_space_group_name_H-M_alt    "P 1"
_space_group_IT_number       1

loop_
  _space_group_symop_operation_xyz
  'x, y, z'

loop_
  _atom_site_type_symbol
  _atom_site_label
  _atom_site_symmetry_multiplicity
  _atom_site_fract_x
  _atom_site_fract_y
  _atom_site_fract_z
  _atom_site_occupancy
  Eu  Eu1       1.0  0.48900  0.75000  0.19600  1.0000
  Eu  Eu2       1.0  0.98900  0.75000  0.30400  1.0000
  Eu  Eu3       1.0  0.01060  0.25000  0.69600  1.0000
  Eu  Eu4       1.0  0.51100  0.25000  0.80400  1.0000
  Pt  Pt1       1.0  0.80500  0.25000  0.08680  1.0000
  Pt  Pt2       1.0  0.30500  0.25000  0.41300  1.0000
  Pt  Pt3       1.0  0.69500  0.75000  0.58700  1.0000
  Pt  Pt4       1.0  0.19500  0.75000  0.91300  1.0000
  Sb  Sb1       1.0  0.18300  0.25000  0.08880  1.0000
  Sb  Sb2       1.0  0.68300  0.25000  0.41100  1.0000
  Sb  Sb3       1.0  0.31700  0.75000  0.58900  1.0000
  Sb  Sb4       1.0  0.81700  0.75000  0.91100  1.0000
