data_image0
_chemical_formula_structural       Li15O12Si2
_chemical_formula_sum              "Li15 O12 Si2"
_cell_length_a       5.33087
_cell_length_b       5.35493
_cell_length_c       10.582
_cell_angle_alpha    89.9841
_cell_angle_beta     90.0289
_cell_angle_gamma    119.858

_space_group_name_H-M_alt    "P 1"
_space_group_IT_number       1

loop_
  _space_group_symop_operation_xyz
  'x, y, z'

loop_
  _atom_site_type_symbol
  _atom_site_label
  _atom_site_symmetry_multiplicity
  _atom_site_fract_x
  _atom_site_fract_y
  _atom_site_fract_z
  _atom_site_occupancy
  Li  Li1       1.0  0.03410  0.64300  0.13300  1.0000
  Li  Li2       1.0  0.39100  0.35700  0.13300  1.0000
  Li  Li3       1.0  0.59200  0.00015  0.13800  1.0000
  Li  Li4       1.0  0.01610  0.29300  0.27100  1.0000
  Li  Li5       1.0  0.72300  0.70700  0.27100  1.0000
  Li  Li6       1.0  0.64700  0.31400  0.40100  1.0000
  Li  Li7       1.0  0.33300  0.68600  0.40100  1.0000
  Li  Li8       1.0  0.99700  0.40200  0.62300  1.0000
  Li  Li9       1.0  0.59600  0.59800  0.62300  1.0000
  Li  Li10      1.0  0.39800  0.00000  0.62800  1.0000
  Li  Li11      1.0  0.99500  0.69800  0.77100  1.0000
  Li  Li12      1.0  0.29800  0.30200  0.77100  1.0000
  Li  Li13      1.0  0.69200  0.00001  0.77200  1.0000
  Li  Li14      1.0  0.66300  0.33700  0.91600  1.0000
  Li  Li15      1.0  0.32600  0.66300  0.91600  1.0000
  O   O1        1.0  0.99500  0.00002  0.15600  1.0000
  O   O2        1.0  0.70400  0.35600  0.21700  1.0000
  O   O3        1.0  0.34800  0.64400  0.21700  1.0000
  O   O4        1.0  0.00000  0.29100  0.45200  1.0000
  O   O5        1.0  0.70800  0.70800  0.45200  1.0000
  O   O6        1.0  0.29500  1.00000  0.46000  1.0000
  O   O7        1.0  0.99200  0.00000  0.65900  1.0000
  O   O8        1.0  0.32900  0.66500  0.72100  1.0000
  O   O9        1.0  0.66400  0.33500  0.72100  1.0000
  O   O10       1.0  0.99400  0.71100  0.95300  1.0000
  O   O11       1.0  0.28300  0.28900  0.95300  1.0000
  O   O12       1.0  0.69500  0.00004  0.95400  1.0000
  Si  Si1       1.0  0.98800  0.00003  0.99900  1.0000
  Si  Si2       1.0  0.00128  0.00000  0.49900  1.0000
