data_image0
_chemical_formula_structural       I8Pt4
_chemical_formula_sum              "I8 Pt4"
_cell_length_a       6.68911
_cell_length_b       8.81315
_cell_length_c       6.97747
_cell_angle_alpha    90
_cell_angle_beta     102.884
_cell_angle_gamma    90

_space_group_name_H-M_alt    "P 1"
_space_group_IT_number       1

loop_
  _space_group_symop_operation_xyz
  'x, y, z'

loop_
  _atom_site_type_symbol
  _atom_site_label
  _atom_site_symmetry_multiplicity
  _atom_site_fract_x
  _atom_site_fract_y
  _atom_site_fract_z
  _atom_site_occupancy
  I   I1        1.0  0.98600  0.07970  0.22900  1.0000
  I   I2        1.0  0.46000  0.32800  0.23400  1.0000
  I   I3        1.0  0.54000  0.82800  0.26600  1.0000
  I   I4        1.0  0.01390  0.58000  0.27100  1.0000
  I   I5        1.0  0.98600  0.42000  0.72900  1.0000
  I   I6        1.0  0.46000  0.17200  0.73400  1.0000
  I   I7        1.0  0.54000  0.67200  0.76600  1.0000
  I   I8        1.0  0.01390  0.92000  0.77100  1.0000
  Pt  Pt1       1.0  0.76300  0.87200  0.00407  1.0000
  Pt  Pt2       1.0  0.23700  0.37200  0.49600  1.0000
  Pt  Pt3       1.0  0.76300  0.62800  0.50400  1.0000
  Pt  Pt4       1.0  0.23700  0.12800  0.99600  1.0000
