data_image0
_chemical_formula_structural       Ca4P4Pt4
_chemical_formula_sum              "Ca4 P4 Pt4"
_cell_length_a       4.37263
_cell_length_b       8.37396
_cell_length_c       6.56666
_cell_angle_alpha    90
_cell_angle_beta     90
_cell_angle_gamma    90

_space_group_name_H-M_alt    "P 1"
_space_group_IT_number       1

loop_
  _space_group_symop_operation_xyz
  'x, y, z'

loop_
  _atom_site_type_symbol
  _atom_site_label
  _atom_site_symmetry_multiplicity
  _atom_site_fract_x
  _atom_site_fract_y
  _atom_site_fract_z
  _atom_site_occupancy
  Ca  Ca1       1.0  0.00000  0.41400  0.06960  1.0000
  Ca  Ca2       1.0  0.00000  0.87300  0.13500  1.0000
  Ca  Ca3       1.0  0.00000  0.58600  0.57000  1.0000
  Ca  Ca4       1.0  0.00000  0.12700  0.63500  1.0000
  P   P1        1.0  0.50000  0.61600  0.25300  1.0000
  P   P2        1.0  0.50000  0.07180  0.33000  1.0000
  P   P3        1.0  0.50000  0.38400  0.75300  1.0000
  P   P4        1.0  0.50000  0.92800  0.83000  1.0000
  Pt  Pt1       1.0  0.50000  0.16900  0.00221  1.0000
  Pt  Pt2       1.0  0.50000  0.34300  0.38500  1.0000
  Pt  Pt3       1.0  0.50000  0.83100  0.50200  1.0000
  Pt  Pt4       1.0  0.50000  0.65700  0.88500  1.0000
