data_image0
_chemical_formula_structural       Au2Cl8Tl2
_chemical_formula_sum              "Au2 Cl8 Tl2"
_cell_length_a       5.86088
_cell_length_b       6.84416
_cell_length_c       9.8106
_cell_angle_alpha    100.43
_cell_angle_beta     90
_cell_angle_gamma    115.351

_space_group_name_H-M_alt    "P 1"
_space_group_IT_number       1

loop_
  _space_group_symop_operation_xyz
  'x, y, z'

loop_
  _atom_site_type_symbol
  _atom_site_label
  _atom_site_symmetry_multiplicity
  _atom_site_fract_x
  _atom_site_fract_y
  _atom_site_fract_z
  _atom_site_occupancy
  Au  Au1       1.0  0.50000  0.50000  0.00000  1.0000
  Au  Au2       1.0  0.00000  0.50000  0.50000  1.0000
  Cl  Cl1       1.0  0.67400  0.88000  0.07070  1.0000
  Cl  Cl2       1.0  0.18000  0.46300  0.14800  1.0000
  Cl  Cl3       1.0  0.71700  0.53700  0.35200  1.0000
  Cl  Cl4       1.0  0.79400  0.12000  0.42900  1.0000
  Cl  Cl5       1.0  0.20600  0.88000  0.57100  1.0000
  Cl  Cl6       1.0  0.28300  0.46300  0.64800  1.0000
  Cl  Cl7       1.0  0.82000  0.53700  0.85200  1.0000
  Cl  Cl8       1.0  0.32600  0.12000  0.92900  1.0000
  Tl  Tl1       1.0  0.22600  0.00000  0.25000  1.0000
  Tl  Tl2       1.0  0.77400  0.00000  0.75000  1.0000
