data_image0
_chemical_formula_structural       Cl8S2W2
_chemical_formula_sum              "Cl8 S2 W2"
_cell_length_a       7.79508
_cell_length_b       6.57808
_cell_length_c       7.48322
_cell_angle_alpha    79.4438
_cell_angle_beta     103.631
_cell_angle_gamma    103.071

_space_group_name_H-M_alt    "P 1"
_space_group_IT_number       1

loop_
  _space_group_symop_operation_xyz
  'x, y, z'

loop_
  _atom_site_type_symbol
  _atom_site_label
  _atom_site_symmetry_multiplicity
  _atom_site_fract_x
  _atom_site_fract_y
  _atom_site_fract_z
  _atom_site_occupancy
  Cl  Cl1       1.0  0.82300  0.84200  0.14000  1.0000
  Cl  Cl2       1.0  0.51800  0.97000  0.28400  1.0000
  Cl  Cl3       1.0  0.11300  0.19700  0.34000  1.0000
  Cl  Cl4       1.0  0.80000  0.33200  0.47400  1.0000
  Cl  Cl5       1.0  0.20000  0.66800  0.52600  1.0000
  Cl  Cl6       1.0  0.88700  0.80300  0.66000  1.0000
  Cl  Cl7       1.0  0.48200  0.03030  0.71600  1.0000
  Cl  Cl8       1.0  0.17700  0.15800  0.86000  1.0000
  S   S1        1.0  0.76000  0.35300  0.00581  1.0000
  S   S2        1.0  0.24000  0.64700  0.99400  1.0000
  W   W1        1.0  0.80200  0.13800  0.24900  1.0000
  W   W2        1.0  0.19800  0.86200  0.75100  1.0000
