data_image0
_chemical_formula_structural       Cs6H10Mn2
_chemical_formula_sum              "Cs6 H10 Mn2"
_cell_length_a       8.28508
_cell_length_b       8.28508
_cell_length_c       8.52288
_cell_angle_alpha    119.081
_cell_angle_beta     119.081
_cell_angle_gamma    90

_space_group_name_H-M_alt    "P 1"
_space_group_IT_number       1

loop_
  _space_group_symop_operation_xyz
  'x, y, z'

loop_
  _atom_site_type_symbol
  _atom_site_label
  _atom_site_symmetry_multiplicity
  _atom_site_fract_x
  _atom_site_fract_y
  _atom_site_fract_z
  _atom_site_occupancy
  Cs  Cs1       1.0  0.68400  0.18400  0.00000  1.0000
  Cs  Cs2       1.0  0.18400  0.31600  0.00000  1.0000
  Cs  Cs3       1.0  0.81600  0.68400  0.00000  1.0000
  Cs  Cs4       1.0  0.31600  0.81600  0.00000  1.0000
  Cs  Cs5       1.0  0.25000  0.25000  0.50000  1.0000
  Cs  Cs6       1.0  0.75000  0.75000  0.50000  1.0000
  H   H1        1.0  0.00000  0.00000  0.00000  1.0000
  H   H2        1.0  0.50000  0.50000  0.00000  1.0000
  H   H3        1.0  0.78600  0.04580  0.33200  1.0000
  H   H4        1.0  0.54600  0.28600  0.33200  1.0000
  H   H5        1.0  0.04580  0.54600  0.33200  1.0000
  H   H6        1.0  0.28600  0.78600  0.33200  1.0000
  H   H7        1.0  0.71400  0.21400  0.66800  1.0000
  H   H8        1.0  0.95400  0.45400  0.66800  1.0000
  H   H9        1.0  0.45400  0.71400  0.66800  1.0000
  H   H10       1.0  0.21400  0.95400  0.66800  1.0000
  Mn  Mn1       1.0  0.75000  0.25000  0.50000  1.0000
  Mn  Mn2       1.0  0.25000  0.75000  0.50000  1.0000
