data_image0
_chemical_formula_structural       Al2As4Na6
_chemical_formula_sum              "Al2 As4 Na6"
_cell_length_a       6.16629
_cell_length_b       6.85648
_cell_length_c       8.21681
_cell_angle_alpha    114.659
_cell_angle_beta     112.038
_cell_angle_gamma    90

_space_group_name_H-M_alt    "P 1"
_space_group_IT_number       1

loop_
  _space_group_symop_operation_xyz
  'x, y, z'

loop_
  _atom_site_type_symbol
  _atom_site_label
  _atom_site_symmetry_multiplicity
  _atom_site_fract_x
  _atom_site_fract_y
  _atom_site_fract_z
  _atom_site_occupancy
  Al  Al1       1.0  0.25000  0.00000  0.00000  1.0000
  Al  Al2       1.0  0.75000  0.00000  0.00000  1.0000
  As  As1       1.0  0.60500  0.30900  0.21000  1.0000
  As  As2       1.0  0.10500  0.90100  0.21000  1.0000
  As  As3       1.0  0.89500  0.09850  0.79000  1.0000
  As  As4       1.0  0.39500  0.69100  0.79000  1.0000
  Na  Na1       1.0  0.25000  0.50000  0.00000  1.0000
  Na  Na2       1.0  0.75000  0.50000  0.00000  1.0000
  Na  Na3       1.0  0.18800  0.38100  0.37700  1.0000
  Na  Na4       1.0  0.68800  0.99600  0.37700  1.0000
  Na  Na5       1.0  0.31200  0.00444  0.62300  1.0000
  Na  Na6       1.0  0.81200  0.61900  0.62300  1.0000
