data_image0
_chemical_formula_structural       B2Nb2O8
_chemical_formula_sum              "B2 Nb2 O8"
_cell_length_a       5.20705
_cell_length_b       5.20705
_cell_length_c       5.20705
_cell_angle_alpha    106.261
_cell_angle_beta     116.102
_cell_angle_gamma    106.261

_space_group_name_H-M_alt    "P 1"
_space_group_IT_number       1

loop_
  _space_group_symop_operation_xyz
  'x, y, z'

loop_
  _atom_site_type_symbol
  _atom_site_label
  _atom_site_symmetry_multiplicity
  _atom_site_fract_x
  _atom_site_fract_y
  _atom_site_fract_z
  _atom_site_occupancy
  B   B1        1.0  0.62500  0.75000  0.37500  1.0000
  B   B2        1.0  0.37500  0.25000  0.62500  1.0000
  Nb  Nb1       1.0  0.87500  0.25000  0.12500  1.0000
  Nb  Nb2       1.0  0.12500  0.75000  0.87500  1.0000
  O   O1        1.0  0.27300  0.57200  0.20100  1.0000
  O   O2        1.0  0.62900  0.92800  0.20100  1.0000
  O   O3        1.0  0.20100  0.07200  0.27300  1.0000
  O   O4        1.0  0.79900  0.57200  0.37100  1.0000
  O   O5        1.0  0.20100  0.42800  0.62900  1.0000
  O   O6        1.0  0.79900  0.92800  0.72700  1.0000
  O   O7        1.0  0.37100  0.07200  0.79900  1.0000
  O   O8        1.0  0.72700  0.42800  0.79900  1.0000
