data_image0
_chemical_formula_structural       Cs4O6Pb2
_chemical_formula_sum              "Cs4 O6 Pb2"
_cell_length_a       6.09095
_cell_length_b       6.8787
_cell_length_c       6.8787
_cell_angle_alpha    68.779
_cell_angle_beta     90
_cell_angle_gamma    90

_space_group_name_H-M_alt    "P 1"
_space_group_IT_number       1

loop_
  _space_group_symop_operation_xyz
  'x, y, z'

loop_
  _atom_site_type_symbol
  _atom_site_label
  _atom_site_symmetry_multiplicity
  _atom_site_fract_x
  _atom_site_fract_y
  _atom_site_fract_z
  _atom_site_occupancy
  Cs  Cs1       1.0  0.75200  0.48400  0.19100  1.0000
  Cs  Cs2       1.0  0.25200  0.19100  0.48400  1.0000
  Cs  Cs3       1.0  0.75200  0.80900  0.51600  1.0000
  Cs  Cs4       1.0  0.25200  0.51600  0.80900  1.0000
  O   O1        1.0  0.99400  0.14100  0.11200  1.0000
  O   O2        1.0  0.49400  0.11200  0.14100  1.0000
  O   O3        1.0  0.19000  0.64700  0.35300  1.0000
  O   O4        1.0  0.69000  0.35300  0.64700  1.0000
  O   O5        1.0  0.99400  0.88800  0.85900  1.0000
  O   O6        1.0  0.49400  0.85900  0.88800  1.0000
  Pb  Pb1       1.0  0.23600  0.90900  0.09100  1.0000
  Pb  Pb2       1.0  0.73600  0.09100  0.90900  1.0000
