data_image0
_chemical_formula_structural       AlF6H8N2Na
_chemical_formula_sum              "Al1 F6 H8 N2 Na1"
_cell_length_a       5.7339
_cell_length_b       5.7339
_cell_length_c       5.7339
_cell_angle_alpha    120
_cell_angle_beta     90
_cell_angle_gamma    120

_space_group_name_H-M_alt    "P 1"
_space_group_IT_number       1

loop_
  _space_group_symop_operation_xyz
  'x, y, z'

loop_
  _atom_site_type_symbol
  _atom_site_label
  _atom_site_symmetry_multiplicity
  _atom_site_fract_x
  _atom_site_fract_y
  _atom_site_fract_z
  _atom_site_occupancy
  Al  Al1       1.0  0.00000  0.00000  0.00000  1.0000
  F   F1        1.0  0.22300  0.00000  0.22300  1.0000
  F   F2        1.0  0.77700  0.00000  0.22300  1.0000
  F   F3        1.0  0.22300  0.44600  0.22300  1.0000
  F   F4        1.0  0.22300  0.00000  0.77700  1.0000
  F   F5        1.0  0.77700  0.00000  0.77700  1.0000
  F   F6        1.0  0.77700  0.55400  0.77700  1.0000
  H   H1        1.0  0.53100  0.35400  0.17700  1.0000
  H   H2        1.0  0.82300  0.35400  0.17700  1.0000
  H   H3        1.0  0.82300  0.64600  0.17700  1.0000
  H   H4        1.0  0.82300  0.64600  0.46900  1.0000
  H   H5        1.0  0.17700  0.35400  0.53100  1.0000
  H   H6        1.0  0.17700  0.35400  0.82300  1.0000
  H   H7        1.0  0.17700  0.64600  0.82300  1.0000
  H   H8        1.0  0.46900  0.64600  0.82300  1.0000
  N   N1        1.0  0.75000  0.50000  0.25000  1.0000
  N   N2        1.0  0.25000  0.50000  0.75000  1.0000
  Na  Na1       1.0  0.50000  0.00000  0.50000  1.0000
