data_image0
_chemical_formula_structural       Ge8Tb4
_chemical_formula_sum              "Ge8 Tb4"
_cell_length_a       3.99181
_cell_length_b       4.14671
_cell_length_c       15.6442
_cell_angle_alpha    82.3841
_cell_angle_beta     90
_cell_angle_gamma    90

_space_group_name_H-M_alt    "P 1"
_space_group_IT_number       1

loop_
  _space_group_symop_operation_xyz
  'x, y, z'

loop_
  _atom_site_type_symbol
  _atom_site_label
  _atom_site_symmetry_multiplicity
  _atom_site_fract_x
  _atom_site_fract_y
  _atom_site_fract_z
  _atom_site_occupancy
  Ge  Ge1       1.0  0.00000  0.00000  0.00000  1.0000
  Ge  Ge2       1.0  0.50000  0.50000  0.00000  1.0000
  Ge  Ge3       1.0  0.50000  0.90600  0.18800  1.0000
  Ge  Ge4       1.0  0.00000  0.85300  0.29400  1.0000
  Ge  Ge5       1.0  0.00000  0.77200  0.45600  1.0000
  Ge  Ge6       1.0  0.00000  0.22800  0.54400  1.0000
  Ge  Ge7       1.0  0.00000  0.14700  0.70600  1.0000
  Ge  Ge8       1.0  0.50000  0.09400  0.81200  1.0000
  Tb  Tb1       1.0  0.00000  0.42900  0.14200  1.0000
  Tb  Tb2       1.0  0.50000  0.31200  0.37600  1.0000
  Tb  Tb3       1.0  0.50000  0.68800  0.62400  1.0000
  Tb  Tb4       1.0  0.00000  0.57100  0.85800  1.0000
