data_image0
_chemical_formula_structural       Li11O8Zn2
_chemical_formula_sum              "Li11 O8 Zn2"
_cell_length_a       6.47344
_cell_length_b       6.47344
_cell_length_c       4.6194
_cell_angle_alpha    90.3436
_cell_angle_beta     90.3436
_cell_angle_gamma    91.169

_space_group_name_H-M_alt    "P 1"
_space_group_IT_number       1

loop_
  _space_group_symop_operation_xyz
  'x, y, z'

loop_
  _atom_site_type_symbol
  _atom_site_label
  _atom_site_symmetry_multiplicity
  _atom_site_fract_x
  _atom_site_fract_y
  _atom_site_fract_z
  _atom_site_occupancy
  Li  Li1       1.0  0.25100  0.24200  0.20000  1.0000
  Li  Li2       1.0  0.97000  0.46400  0.23200  1.0000
  Li  Li3       1.0  0.52400  0.47600  0.25000  1.0000
  Li  Li4       1.0  0.96200  0.03800  0.25000  1.0000
  Li  Li5       1.0  0.53600  0.02980  0.26800  1.0000
  Li  Li6       1.0  0.75800  0.74900  0.30000  1.0000
  Li  Li7       1.0  0.27700  0.27300  0.70600  1.0000
  Li  Li8       1.0  0.04150  0.53800  0.73600  1.0000
  Li  Li9       1.0  0.02280  0.97700  0.75000  1.0000
  Li  Li10      1.0  0.46200  0.95900  0.76400  1.0000
  Li  Li11      1.0  0.72700  0.72300  0.79400  1.0000
  O   O1        1.0  0.98500  0.75400  0.02880  1.0000
  O   O2        1.0  0.51700  0.76100  0.06530  1.0000
  O   O3        1.0  0.23900  0.48300  0.43500  1.0000
  O   O4        1.0  0.24600  0.01540  0.47100  1.0000
  O   O5        1.0  0.76800  0.50600  0.51600  1.0000
  O   O6        1.0  0.74800  0.98400  0.54600  1.0000
  O   O7        1.0  0.01600  0.25200  0.95400  1.0000
  O   O8        1.0  0.49400  0.23200  0.98400  1.0000
  Zn  Zn1       1.0  0.24800  0.75200  0.25000  1.0000
  Zn  Zn2       1.0  0.74100  0.25900  0.75000  1.0000
