data_image0
_chemical_formula_structural       K4Na4Se4
_chemical_formula_sum              "K4 Na4 Se4"
_cell_length_a       8.05011
_cell_length_b       4.81073
_cell_length_c       8.65318
_cell_angle_alpha    90
_cell_angle_beta     90
_cell_angle_gamma    90

_space_group_name_H-M_alt    "P 1"
_space_group_IT_number       1

loop_
  _space_group_symop_operation_xyz
  'x, y, z'

loop_
  _atom_site_type_symbol
  _atom_site_label
  _atom_site_symmetry_multiplicity
  _atom_site_fract_x
  _atom_site_fract_y
  _atom_site_fract_z
  _atom_site_occupancy
  K   K1        1.0  0.01330  0.75000  0.18500  1.0000
  K   K2        1.0  0.51300  0.75000  0.31500  1.0000
  K   K3        1.0  0.48700  0.25000  0.68500  1.0000
  K   K4        1.0  0.98700  0.25000  0.81500  1.0000
  Na  Na1       1.0  0.35300  0.25000  0.07560  1.0000
  Na  Na2       1.0  0.85300  0.25000  0.42400  1.0000
  Na  Na3       1.0  0.14700  0.75000  0.57600  1.0000
  Na  Na4       1.0  0.64700  0.75000  0.92400  1.0000
  Se  Se1       1.0  0.72100  0.25000  0.10500  1.0000
  Se  Se2       1.0  0.22100  0.25000  0.39500  1.0000
  Se  Se3       1.0  0.77900  0.75000  0.60500  1.0000
  Se  Se4       1.0  0.27900  0.75000  0.89500  1.0000
