data_image0
_chemical_formula_structural       C3U2W2
_chemical_formula_sum              "C3 U2 W2"
_cell_length_a       3.13782
_cell_length_b       5.55258
_cell_length_c       5.95837
_cell_angle_alpha    104.216
_cell_angle_beta     105.267
_cell_angle_gamma    90

_space_group_name_H-M_alt    "P 1"
_space_group_IT_number       1

loop_
  _space_group_symop_operation_xyz
  'x, y, z'

loop_
  _atom_site_type_symbol
  _atom_site_label
  _atom_site_symmetry_multiplicity
  _atom_site_fract_x
  _atom_site_fract_y
  _atom_site_fract_z
  _atom_site_occupancy
  C   C1        1.0  0.75000  0.23900  0.50000  1.0000
  C   C2        1.0  0.25000  0.76100  0.50000  1.0000
  C   C3        1.0  0.00000  0.50000  0.00000  1.0000
  U   U1        1.0  0.60200  0.83600  0.20300  1.0000
  U   U2        1.0  0.39800  0.16400  0.79700  1.0000
  W   W1        1.0  0.15400  0.36700  0.30800  1.0000
  W   W2        1.0  0.84600  0.63300  0.69200  1.0000
