data_image0
_chemical_formula_structural       Ag2C4N4Na2
_chemical_formula_sum              "Ag2 C4 N4 Na2"
_cell_length_a       3.63312
_cell_length_b       3.69915
_cell_length_c       17.4669
_cell_angle_alpha    91.9804
_cell_angle_beta     90
_cell_angle_gamma    119.411

_space_group_name_H-M_alt    "P 1"
_space_group_IT_number       1

loop_
  _space_group_symop_operation_xyz
  'x, y, z'

loop_
  _atom_site_type_symbol
  _atom_site_label
  _atom_site_symmetry_multiplicity
  _atom_site_fract_x
  _atom_site_fract_y
  _atom_site_fract_z
  _atom_site_occupancy
  Ag  Ag1       1.0  0.00000  0.50000  0.00000  1.0000
  Ag  Ag2       1.0  0.50000  0.50000  0.50000  1.0000
  C   C1        1.0  0.79800  0.38400  0.11000  1.0000
  C   C2        1.0  0.41400  0.61600  0.39000  1.0000
  C   C3        1.0  0.58600  0.38400  0.61000  1.0000
  C   C4        1.0  0.20200  0.61600  0.89000  1.0000
  N   N1        1.0  0.69100  0.32000  0.17400  1.0000
  N   N2        1.0  0.37100  0.68000  0.32600  1.0000
  N   N3        1.0  0.62900  0.32000  0.67400  1.0000
  N   N4        1.0  0.30900  0.68000  0.82600  1.0000
  Na  Na1       1.0  0.04000  0.00000  0.25000  1.0000
  Na  Na2       1.0  0.96000  1.00000  0.75000  1.0000
