data_image0
_chemical_formula_structural       As2F10
_chemical_formula_sum              "As2 F10"
_cell_length_a       5.30201
_cell_length_b       5.30206
_cell_length_c       5.82913
_cell_angle_alpha    90
_cell_angle_beta     90
_cell_angle_gamma    120

_space_group_name_H-M_alt    "P 1"
_space_group_IT_number       1

loop_
  _space_group_symop_operation_xyz
  'x, y, z'

loop_
  _atom_site_type_symbol
  _atom_site_label
  _atom_site_symmetry_multiplicity
  _atom_site_fract_x
  _atom_site_fract_y
  _atom_site_fract_z
  _atom_site_occupancy
  As  As1       1.0  0.33300  0.66700  0.25000  1.0000
  As  As2       1.0  0.66700  0.33300  0.75000  1.0000
  F   F1        1.0  0.66700  0.33300  0.04810  1.0000
  F   F2        1.0  0.14900  0.29800  0.25000  1.0000
  F   F3        1.0  0.14900  0.85100  0.25000  1.0000
  F   F4        1.0  0.70200  0.85100  0.25000  1.0000
  F   F5        1.0  0.66700  0.33300  0.45200  1.0000
  F   F6        1.0  0.33300  0.66700  0.54800  1.0000
  F   F7        1.0  0.29800  0.14900  0.75000  1.0000
  F   F8        1.0  0.85100  0.14900  0.75000  1.0000
  F   F9        1.0  0.85100  0.70200  0.75000  1.0000
  F   F10       1.0  0.33300  0.66700  0.95200  1.0000
