data_image0
_chemical_formula_structural       Al11BeMg17
_chemical_formula_sum              "Al11 Be1 Mg17"
_cell_length_a       9.06148
_cell_length_b       9.0424
_cell_length_c       9.05609
_cell_angle_alpha    109.41
_cell_angle_beta     109.496
_cell_angle_gamma    109.489

_space_group_name_H-M_alt    "P 1"
_space_group_IT_number       1

loop_
  _space_group_symop_operation_xyz
  'x, y, z'

loop_
  _atom_site_type_symbol
  _atom_site_label
  _atom_site_symmetry_multiplicity
  _atom_site_fract_x
  _atom_site_fract_y
  _atom_site_fract_z
  _atom_site_occupancy
  Al  Al1       1.0  0.64200  0.80300  1.00000  1.0000
  Al  Al2       1.0  0.36700  0.36700  0.18200  1.0000
  Al  Al3       1.0  0.17400  0.81300  0.18200  1.0000
  Al  Al4       1.0  0.81600  0.18200  0.18400  1.0000
  Al  Al5       1.0  0.36700  0.17900  0.36700  1.0000
  Al  Al6       1.0  0.18000  0.36600  0.36700  1.0000
  Al  Al7       1.0  0.81300  0.99900  0.63300  1.0000
  Al  Al8       1.0  1.00000  0.81200  0.63300  1.0000
  Al  Al9       1.0  0.63200  0.99800  0.81600  1.0000
  Al  Al10      1.0  0.99300  0.63100  0.81800  1.0000
  Al  Al11      1.0  0.18600  0.18600  0.81800  1.0000
  Be  Be1       1.0  0.82300  0.64200  0.00000  1.0000
  Mg  Mg1       1.0  0.34700  0.00376  0.00000  1.0000
  Mg  Mg2       1.0  0.99900  0.99600  1.00000  1.0000
  Mg  Mg3       1.0  0.00033  0.34500  0.00000  1.0000
  Mg  Mg4       1.0  0.31500  0.60500  0.00000  1.0000
  Mg  Mg5       1.0  0.61100  0.32700  0.00000  1.0000
  Mg  Mg6       1.0  0.68300  0.68400  0.28300  1.0000
  Mg  Mg7       1.0  0.99600  0.60400  0.31000  1.0000
  Mg  Mg8       1.0  0.60100  1.00000  0.31500  1.0000
  Mg  Mg9       1.0  0.99800  0.99500  0.34200  1.0000
  Mg  Mg10      1.0  0.71400  0.39800  0.39700  1.0000
  Mg  Mg11      1.0  0.39700  0.71400  0.39800  1.0000
  Mg  Mg12      1.0  0.99900  0.31600  0.60200  1.0000
  Mg  Mg13      1.0  0.31700  0.00127  0.60300  1.0000
  Mg  Mg14      1.0  0.65700  0.65400  0.65800  1.0000
  Mg  Mg15      1.0  0.28600  0.68400  0.68500  1.0000
  Mg  Mg16      1.0  0.68500  0.29400  0.69000  1.0000
  Mg  Mg17      1.0  0.40000  0.40100  0.71700  1.0000
