data_image0
_chemical_formula_structural       Hf4Rh4Si4
_chemical_formula_sum              "Hf4 Rh4 Si4"
_cell_length_a       6.5105
_cell_length_b       3.92483
_cell_length_c       7.44794
_cell_angle_alpha    90
_cell_angle_beta     90
_cell_angle_gamma    90

_space_group_name_H-M_alt    "P 1"
_space_group_IT_number       1

loop_
  _space_group_symop_operation_xyz
  'x, y, z'

loop_
  _atom_site_type_symbol
  _atom_site_label
  _atom_site_symmetry_multiplicity
  _atom_site_fract_x
  _atom_site_fract_y
  _atom_site_fract_z
  _atom_site_occupancy
  Hf  Hf1       1.0  0.48000  0.75000  0.18400  1.0000
  Hf  Hf2       1.0  0.98000  0.75000  0.31600  1.0000
  Hf  Hf3       1.0  0.02010  0.25000  0.68400  1.0000
  Hf  Hf4       1.0  0.52000  0.25000  0.81600  1.0000
  Rh  Rh1       1.0  0.15000  0.25000  0.06530  1.0000
  Rh  Rh2       1.0  0.65000  0.25000  0.43500  1.0000
  Rh  Rh3       1.0  0.35000  0.75000  0.56500  1.0000
  Rh  Rh4       1.0  0.85000  0.75000  0.93500  1.0000
  Si  Si1       1.0  0.77400  0.25000  0.11800  1.0000
  Si  Si2       1.0  0.27400  0.25000  0.38200  1.0000
  Si  Si3       1.0  0.72600  0.75000  0.61800  1.0000
  Si  Si4       1.0  0.22600  0.75000  0.88200  1.0000
