data_image0
_chemical_formula_structural       B4Li11O12
_chemical_formula_sum              "B4 Li11 O12"
_cell_length_a       3.16641
_cell_length_b       9.1225
_cell_length_c       8.25635
_cell_angle_alpha    90.0503
_cell_angle_beta     99.7808
_cell_angle_gamma    90.3389

_space_group_name_H-M_alt    "P 1"
_space_group_IT_number       1

loop_
  _space_group_symop_operation_xyz
  'x, y, z'

loop_
  _atom_site_type_symbol
  _atom_site_label
  _atom_site_symmetry_multiplicity
  _atom_site_fract_x
  _atom_site_fract_y
  _atom_site_fract_z
  _atom_site_occupancy
  B   B1        1.0  0.80500  0.68100  0.24400  1.0000
  B   B2        1.0  0.21200  0.18600  0.25900  1.0000
  B   B3        1.0  0.80100  0.81800  0.74700  1.0000
  B   B4        1.0  0.19300  0.31800  0.74800  1.0000
  Li  Li1       1.0  0.28600  0.45000  0.10400  1.0000
  Li  Li2       1.0  0.09890  0.92600  0.12900  1.0000
  Li  Li3       1.0  0.89900  0.42900  0.36600  1.0000
  Li  Li4       1.0  0.73000  0.97300  0.38500  1.0000
  Li  Li5       1.0  0.50300  0.73500  0.48000  1.0000
  Li  Li6       1.0  0.49300  0.26100  0.52500  1.0000
  Li  Li7       1.0  0.27800  0.01820  0.61600  1.0000
  Li  Li8       1.0  0.08920  0.57600  0.63600  1.0000
  Li  Li9       1.0  0.90600  0.09870  0.88600  1.0000
  Li  Li10      1.0  0.72000  0.52300  0.89000  1.0000
  Li  Li11      1.0  0.49900  0.76200  0.97900  1.0000
  O   O1        1.0  0.04130  0.13500  0.10900  1.0000
  O   O2        1.0  0.78400  0.58600  0.11300  1.0000
  O   O3        1.0  0.63200  0.82100  0.21900  1.0000
  O   O4        1.0  0.36200  0.32700  0.29000  1.0000
  O   O5        1.0  0.23700  0.08980  0.39200  1.0000
  O   O6        1.0  0.97300  0.63700  0.40200  1.0000
  O   O7        1.0  0.01280  0.36800  0.59300  1.0000
  O   O8        1.0  0.77400  0.90300  0.60700  1.0000
  O   O9        1.0  0.62700  0.67600  0.72900  1.0000
  O   O10       1.0  0.36700  0.18000  0.76000  1.0000
  O   O11       1.0  0.21200  0.41300  0.87600  1.0000
  O   O12       1.0  0.97200  0.87200  0.89900  1.0000
