data_image0
_chemical_formula_structural       Al11HgMg17
_chemical_formula_sum              "Al11 Hg1 Mg17"
_cell_length_a       9.14249
_cell_length_b       9.15793
_cell_length_c       9.10071
_cell_angle_alpha    109.556
_cell_angle_beta     109.487
_cell_angle_gamma    109.59

_space_group_name_H-M_alt    "P 1"
_space_group_IT_number       1

loop_
  _space_group_symop_operation_xyz
  'x, y, z'

loop_
  _atom_site_type_symbol
  _atom_site_label
  _atom_site_symmetry_multiplicity
  _atom_site_fract_x
  _atom_site_fract_y
  _atom_site_fract_z
  _atom_site_occupancy
  Al  Al1       1.0  0.62800  0.81900  0.00000  1.0000
  Al  Al2       1.0  0.36900  0.36800  0.18200  1.0000
  Al  Al3       1.0  0.18900  0.82000  0.18600  1.0000
  Al  Al4       1.0  0.82000  0.18800  0.18600  1.0000
  Al  Al5       1.0  0.18300  0.36700  0.36600  1.0000
  Al  Al6       1.0  0.36800  0.18200  0.36700  1.0000
  Al  Al7       1.0  0.00041  0.81400  0.63300  1.0000
  Al  Al8       1.0  0.81700  0.00107  0.63400  1.0000
  Al  Al9       1.0  0.63400  0.00113  0.81400  1.0000
  Al  Al10      1.0  0.00289  0.63400  0.81400  1.0000
  Al  Al11      1.0  0.18700  0.18600  0.81800  1.0000
  Hg  Hg1       1.0  0.80300  0.62500  0.00000  1.0000
  Mg  Mg1       1.0  0.59800  0.31100  0.00000  1.0000
  Mg  Mg2       1.0  0.34300  0.99800  0.00000  1.0000
  Mg  Mg3       1.0  0.31500  0.60300  0.00000  1.0000
  Mg  Mg4       1.0  0.00165  0.00114  0.00000  1.0000
  Mg  Mg5       1.0  0.00303  0.34200  0.00000  1.0000
  Mg  Mg6       1.0  0.68400  0.68500  0.28800  1.0000
  Mg  Mg7       1.0  0.00045  0.60100  0.31600  1.0000
  Mg  Mg8       1.0  0.60200  0.00017  0.31700  1.0000
  Mg  Mg9       1.0  0.00102  0.00263  0.34600  1.0000
  Mg  Mg10      1.0  0.39700  0.71400  0.39700  1.0000
  Mg  Mg11      1.0  0.71600  0.39900  0.40000  1.0000
  Mg  Mg12      1.0  0.31600  0.99900  0.60000  1.0000
  Mg  Mg13      1.0  0.00011  0.31700  0.60300  1.0000
  Mg  Mg14      1.0  0.65500  0.65600  0.65400  1.0000
  Mg  Mg15      1.0  0.28600  0.68400  0.68300  1.0000
  Mg  Mg16      1.0  0.68500  0.28500  0.68400  1.0000
  Mg  Mg17      1.0  0.39700  0.39700  0.71200  1.0000
