data_image0
_chemical_formula_structural       Li12Mn2O8
_chemical_formula_sum              "Li12 Mn2 O8"
_cell_length_a       6.62314
_cell_length_b       6.62313
_cell_length_c       4.66592
_cell_angle_alpha    90
_cell_angle_beta     90
_cell_angle_gamma    90

_space_group_name_H-M_alt    "P 1"
_space_group_IT_number       1

loop_
  _space_group_symop_operation_xyz
  'x, y, z'

loop_
  _atom_site_type_symbol
  _atom_site_label
  _atom_site_symmetry_multiplicity
  _atom_site_fract_x
  _atom_site_fract_y
  _atom_site_fract_z
  _atom_site_occupancy
  Li  Li1       1.0  0.25000  0.25000  0.21400  1.0000
  Li  Li2       1.0  0.53400  0.03390  0.25000  1.0000
  Li  Li3       1.0  0.53400  0.46600  0.25000  1.0000
  Li  Li4       1.0  0.96600  0.03390  0.25000  1.0000
  Li  Li5       1.0  0.96600  0.46600  0.25000  1.0000
  Li  Li6       1.0  0.75000  0.75000  0.28600  1.0000
  Li  Li7       1.0  0.25000  0.25000  0.71400  1.0000
  Li  Li8       1.0  0.03390  0.53400  0.75000  1.0000
  Li  Li9       1.0  0.03390  0.96600  0.75000  1.0000
  Li  Li10      1.0  0.46600  0.53400  0.75000  1.0000
  Li  Li11      1.0  0.46600  0.96600  0.75000  1.0000
  Li  Li12      1.0  0.75000  0.75000  0.78600  1.0000
  Mn  Mn1       1.0  0.25000  0.75000  0.25000  1.0000
  Mn  Mn2       1.0  0.75000  0.25000  0.75000  1.0000
  O   O1        1.0  0.51700  0.75000  0.02650  1.0000
  O   O2        1.0  0.98300  0.75000  0.02650  1.0000
  O   O3        1.0  0.25000  0.01670  0.47300  1.0000
  O   O4        1.0  0.25000  0.48300  0.47300  1.0000
  O   O5        1.0  0.75000  0.51700  0.52700  1.0000
  O   O6        1.0  0.75000  0.98300  0.52700  1.0000
  O   O7        1.0  0.01670  0.25000  0.97300  1.0000
  O   O8        1.0  0.48300  0.25000  0.97300  1.0000
