data_image0
_chemical_formula_structural       H10K6Mn2
_chemical_formula_sum              "H10 K6 Mn2"
_cell_length_a       7.40089
_cell_length_b       7.40089
_cell_length_c       7.75755
_cell_angle_alpha    118.49
_cell_angle_beta     118.49
_cell_angle_gamma    90

_space_group_name_H-M_alt    "P 1"
_space_group_IT_number       1

loop_
  _space_group_symop_operation_xyz
  'x, y, z'

loop_
  _atom_site_type_symbol
  _atom_site_label
  _atom_site_symmetry_multiplicity
  _atom_site_fract_x
  _atom_site_fract_y
  _atom_site_fract_z
  _atom_site_occupancy
  H   H1        1.0  0.00000  0.00000  0.00000  1.0000
  H   H2        1.0  0.50000  0.50000  0.00000  1.0000
  H   H3        1.0  0.78700  0.02550  0.31300  1.0000
  H   H4        1.0  0.52600  0.28700  0.31300  1.0000
  H   H5        1.0  0.02550  0.52600  0.31300  1.0000
  H   H6        1.0  0.28700  0.78700  0.31300  1.0000
  H   H7        1.0  0.71300  0.21300  0.68700  1.0000
  H   H8        1.0  0.97400  0.47400  0.68700  1.0000
  H   H9        1.0  0.47400  0.71300  0.68700  1.0000
  H   H10       1.0  0.21300  0.97400  0.68700  1.0000
  K   K1        1.0  0.68100  0.18100  0.00000  1.0000
  K   K2        1.0  0.18100  0.31900  0.00000  1.0000
  K   K3        1.0  0.81900  0.68100  0.00000  1.0000
  K   K4        1.0  0.31900  0.81900  0.00000  1.0000
  K   K5        1.0  0.25000  0.25000  0.50000  1.0000
  K   K6        1.0  0.75000  0.75000  0.50000  1.0000
  Mn  Mn1       1.0  0.75000  0.25000  0.50000  1.0000
  Mn  Mn2       1.0  0.25000  0.75000  0.50000  1.0000
