data_image0
_chemical_formula_structural       Al11IMg17
_chemical_formula_sum              "Al11 I1 Mg17"
_cell_length_a       9.31447
_cell_length_b       9.53749
_cell_length_c       9.08783
_cell_angle_alpha    110.09
_cell_angle_beta     109.08
_cell_angle_gamma    110.712

_space_group_name_H-M_alt    "P 1"
_space_group_IT_number       1

loop_
  _space_group_symop_operation_xyz
  'x, y, z'

loop_
  _atom_site_type_symbol
  _atom_site_label
  _atom_site_symmetry_multiplicity
  _atom_site_fract_x
  _atom_site_fract_y
  _atom_site_fract_z
  _atom_site_occupancy
  Al  Al1       1.0  0.65200  0.83600  1.00000  1.0000
  Al  Al2       1.0  0.37100  0.37200  0.18500  1.0000
  Al  Al3       1.0  0.81900  0.19900  0.18900  1.0000
  Al  Al4       1.0  0.21600  0.83800  0.19200  1.0000
  Al  Al5       1.0  0.18300  0.37300  0.36600  1.0000
  Al  Al6       1.0  0.36300  0.18900  0.36700  1.0000
  Al  Al7       1.0  0.99600  0.82200  0.63300  1.0000
  Al  Al8       1.0  0.81800  0.00730  0.63400  1.0000
  Al  Al9       1.0  0.02390  0.64600  0.80800  1.0000
  Al  Al10      1.0  0.63100  0.01040  0.81100  1.0000
  Al  Al11      1.0  0.18500  0.18700  0.81500  1.0000
  I   I1        1.0  0.79100  0.56700  0.00000  1.0000
  Mg  Mg1       1.0  0.01370  0.34000  0.00000  1.0000
  Mg  Mg2       1.0  0.33500  0.99200  0.00000  1.0000
  Mg  Mg3       1.0  0.56600  0.28200  0.00000  1.0000
  Mg  Mg4       1.0  0.00040  0.00513  0.00000  1.0000
  Mg  Mg5       1.0  0.32600  0.60800  0.00000  1.0000
  Mg  Mg6       1.0  0.68100  0.68900  0.29800  1.0000
  Mg  Mg7       1.0  0.61000  0.99500  0.30600  1.0000
  Mg  Mg8       1.0  0.00931  0.58800  0.33900  1.0000
  Mg  Mg9       1.0  0.99900  0.02010  0.35300  1.0000
  Mg  Mg10      1.0  0.39100  0.71700  0.39200  1.0000
  Mg  Mg11      1.0  0.71300  0.40300  0.41100  1.0000
  Mg  Mg12      1.0  0.30200  0.99200  0.58900  1.0000
  Mg  Mg13      1.0  0.99900  0.32500  0.60800  1.0000
  Mg  Mg14      1.0  0.64500  0.66700  0.64700  1.0000
  Mg  Mg15      1.0  0.67000  0.24900  0.66100  1.0000
  Mg  Mg16      1.0  0.30500  0.69000  0.69400  1.0000
  Mg  Mg17      1.0  0.38400  0.39200  0.70200  1.0000
