data_image0
_chemical_formula_structural       Al11HfMg17
_chemical_formula_sum              "Al11 Hf1 Mg17"
_cell_length_a       9.02954
_cell_length_b       9.21251
_cell_length_c       9.19286
_cell_angle_alpha    110.059
_cell_angle_beta     109.258
_cell_angle_gamma    108.777

_space_group_name_H-M_alt    "P 1"
_space_group_IT_number       1

loop_
  _space_group_symop_operation_xyz
  'x, y, z'

loop_
  _atom_site_type_symbol
  _atom_site_label
  _atom_site_symmetry_multiplicity
  _atom_site_fract_x
  _atom_site_fract_y
  _atom_site_fract_z
  _atom_site_occupancy
  Al  Al1       1.0  0.63500  0.82100  0.00000  1.0000
  Al  Al2       1.0  0.36100  0.36600  0.18100  1.0000
  Al  Al3       1.0  0.80900  0.18400  0.18500  1.0000
  Al  Al4       1.0  0.19600  0.82400  0.18900  1.0000
  Al  Al5       1.0  0.37000  0.18200  0.36300  1.0000
  Al  Al6       1.0  0.17500  0.36300  0.36600  1.0000
  Al  Al7       1.0  0.80900  0.99700  0.63400  1.0000
  Al  Al8       1.0  0.00701  0.81900  0.63700  1.0000
  Al  Al9       1.0  0.00659  0.63500  0.81100  1.0000
  Al  Al10      1.0  0.62400  0.99900  0.81500  1.0000
  Al  Al11      1.0  0.18000  0.18500  0.81900  1.0000
  Hf  Hf1       1.0  0.82200  0.63400  0.00000  1.0000
  Mg  Mg1       1.0  0.35800  0.00387  0.00000  1.0000
  Mg  Mg2       1.0  0.59900  0.31700  0.00000  1.0000
  Mg  Mg3       1.0  0.98800  0.35200  0.00000  1.0000
  Mg  Mg4       1.0  0.99700  0.99700  0.00000  1.0000
  Mg  Mg5       1.0  0.32200  0.59600  0.00000  1.0000
  Mg  Mg6       1.0  0.68900  0.68300  0.28500  1.0000
  Mg  Mg7       1.0  0.59600  0.99800  0.31700  1.0000
  Mg  Mg8       1.0  0.00195  0.60300  0.32100  1.0000
  Mg  Mg9       1.0  0.99700  0.99600  0.33800  1.0000
  Mg  Mg10      1.0  0.71500  0.40000  0.40100  1.0000
  Mg  Mg11      1.0  0.40300  0.71400  0.40100  1.0000
  Mg  Mg12      1.0  0.00150  0.31300  0.59900  1.0000
  Mg  Mg13      1.0  0.31400  0.99900  0.59900  1.0000
  Mg  Mg14      1.0  0.65900  0.65900  0.66200  1.0000
  Mg  Mg15      1.0  0.68100  0.28200  0.67900  1.0000
  Mg  Mg16      1.0  0.27800  0.68000  0.68300  1.0000
  Mg  Mg17      1.0  0.40400  0.39700  0.71500  1.0000
