data_image0
_chemical_formula_structural       Al11ErMg17
_chemical_formula_sum              "Al11 Er1 Mg17"
_cell_length_a       9.03806
_cell_length_b       9.41245
_cell_length_c       9.20242
_cell_angle_alpha    110.578
_cell_angle_beta     108.936
_cell_angle_gamma    109.007

_space_group_name_H-M_alt    "P 1"
_space_group_IT_number       1

loop_
  _space_group_symop_operation_xyz
  'x, y, z'

loop_
  _atom_site_type_symbol
  _atom_site_label
  _atom_site_symmetry_multiplicity
  _atom_site_fract_x
  _atom_site_fract_y
  _atom_site_fract_z
  _atom_site_occupancy
  Al  Al1       1.0  0.63700  0.83700  0.00000  1.0000
  Al  Al2       1.0  0.36300  0.36700  0.18200  1.0000
  Al  Al3       1.0  0.80800  0.19200  0.18700  1.0000
  Al  Al4       1.0  0.21100  0.82500  0.18800  1.0000
  Al  Al5       1.0  0.36200  0.17600  0.35500  1.0000
  Al  Al6       1.0  0.17300  0.36200  0.36200  1.0000
  Al  Al7       1.0  0.81100  0.00000  0.63800  1.0000
  Al  Al8       1.0  0.00771  0.82100  0.64500  1.0000
  Al  Al9       1.0  0.02260  0.63700  0.81200  1.0000
  Al  Al10      1.0  0.62100  0.00497  0.81300  1.0000
  Al  Al11      1.0  0.18100  0.18400  0.81800  1.0000
  Er  Er1       1.0  0.81800  0.63300  0.00000  1.0000
  Mg  Mg1       1.0  0.99500  0.35100  0.00000  1.0000
  Mg  Mg2       1.0  0.99900  0.00463  1.00000  1.0000
  Mg  Mg3       1.0  0.58800  0.31300  0.00000  1.0000
  Mg  Mg4       1.0  0.33600  0.59300  0.00000  1.0000
  Mg  Mg5       1.0  0.36000  0.00123  0.00000  1.0000
  Mg  Mg6       1.0  0.69400  0.68600  0.30200  1.0000
  Mg  Mg7       1.0  0.60200  0.99600  0.31800  1.0000
  Mg  Mg8       1.0  0.99900  0.59300  0.32600  1.0000
  Mg  Mg9       1.0  0.99700  0.00916  0.34300  1.0000
  Mg  Mg10      1.0  0.39600  0.71100  0.39500  1.0000
  Mg  Mg11      1.0  0.71400  0.40200  0.41100  1.0000
  Mg  Mg12      1.0  0.30300  0.99100  0.58900  1.0000
  Mg  Mg13      1.0  0.00044  0.31500  0.60500  1.0000
  Mg  Mg14      1.0  0.65400  0.66600  0.65700  1.0000
  Mg  Mg15      1.0  0.67300  0.26700  0.67400  1.0000
  Mg  Mg16      1.0  0.28400  0.67900  0.68200  1.0000
  Mg  Mg17      1.0  0.39200  0.38400  0.69800  1.0000
