data_image0
_chemical_formula_structural       AuMn2
_chemical_formula_sum              "Au1 Mn2"
_cell_length_a       3.18341
_cell_length_b       3.18341
_cell_length_c       5.05514
_cell_angle_alpha    108.353
_cell_angle_beta     108.353
_cell_angle_gamma    90

_space_group_name_H-M_alt    "P 1"
_space_group_IT_number       1

loop_
  _space_group_symop_operation_xyz
  'x, y, z'

loop_
  _atom_site_type_symbol
  _atom_site_label
  _atom_site_symmetry_multiplicity
  _atom_site_fract_x
  _atom_site_fract_y
  _atom_site_fract_z
  _atom_site_occupancy
  Au  Au1       1.0  0.00000  0.00000  0.00000  1.0000
  Mn  Mn1       1.0  0.67100  0.67100  0.34100  1.0000
  Mn  Mn2       1.0  0.32900  0.32900  0.65900  1.0000
