data_image0
_chemical_formula_structural       Al11LuMg17
_chemical_formula_sum              "Al11 Lu1 Mg17"
_cell_length_a       9.05234
_cell_length_b       9.37207
_cell_length_c       9.20709
_cell_angle_alpha    110.398
_cell_angle_beta     108.996
_cell_angle_gamma    109.046

_space_group_name_H-M_alt    "P 1"
_space_group_IT_number       1

loop_
  _space_group_symop_operation_xyz
  'x, y, z'

loop_
  _atom_site_type_symbol
  _atom_site_label
  _atom_site_symmetry_multiplicity
  _atom_site_fract_x
  _atom_site_fract_y
  _atom_site_fract_z
  _atom_site_occupancy
  Al  Al1       1.0  0.63500  0.83400  0.00000  1.0000
  Al  Al2       1.0  0.36300  0.36600  0.18200  1.0000
  Al  Al3       1.0  0.80900  0.19100  0.18600  1.0000
  Al  Al4       1.0  0.20700  0.82400  0.18900  1.0000
  Al  Al5       1.0  0.36400  0.17700  0.35700  1.0000
  Al  Al6       1.0  0.17400  0.36300  0.36300  1.0000
  Al  Al7       1.0  0.81100  0.99900  0.63700  1.0000
  Al  Al8       1.0  0.00722  0.82000  0.64300  1.0000
  Al  Al9       1.0  0.01880  0.63600  0.81100  1.0000
  Al  Al10      1.0  0.62300  0.00460  0.81400  1.0000
  Al  Al11      1.0  0.18100  0.18500  0.81800  1.0000
  Lu  Lu1       1.0  0.81800  0.63400  0.00000  1.0000
  Mg  Mg1       1.0  0.35800  0.00061  0.00000  1.0000
  Mg  Mg2       1.0  0.58900  0.31300  0.00000  1.0000
  Mg  Mg3       1.0  0.99900  0.00382  0.00000  1.0000
  Mg  Mg4       1.0  0.33300  0.59400  0.00000  1.0000
  Mg  Mg5       1.0  0.99400  0.35100  0.00000  1.0000
  Mg  Mg6       1.0  0.69300  0.68600  0.30000  1.0000
  Mg  Mg7       1.0  0.60100  0.99700  0.31800  1.0000
  Mg  Mg8       1.0  0.00010  0.59500  0.32500  1.0000
  Mg  Mg9       1.0  0.99800  0.00734  0.34300  1.0000
  Mg  Mg10      1.0  0.39700  0.71100  0.39700  1.0000
  Mg  Mg11      1.0  0.71400  0.40100  0.40800  1.0000
  Mg  Mg12      1.0  0.30600  0.99300  0.59200  1.0000
  Mg  Mg13      1.0  0.00055  0.31500  0.60300  1.0000
  Mg  Mg14      1.0  0.65500  0.66400  0.65700  1.0000
  Mg  Mg15      1.0  0.67500  0.27000  0.67500  1.0000
  Mg  Mg16      1.0  0.28300  0.67900  0.68200  1.0000
  Mg  Mg17      1.0  0.39400  0.38600  0.70000  1.0000
