data_image0
_chemical_formula_structural       H4Ni3O9Si2
_chemical_formula_sum              "H4 Ni3 O9 Si2"
_cell_length_a       5.26147
_cell_length_b       5.26151
_cell_length_c       7.0996
_cell_angle_alpha    90.0002
_cell_angle_beta     89.9999
_cell_angle_gamma    120

_space_group_name_H-M_alt    "P 1"
_space_group_IT_number       1

loop_
  _space_group_symop_operation_xyz
  'x, y, z'

loop_
  _atom_site_type_symbol
  _atom_site_label
  _atom_site_symmetry_multiplicity
  _atom_site_fract_x
  _atom_site_fract_y
  _atom_site_fract_z
  _atom_site_occupancy
  H   H1        1.0  0.00000  0.65200  0.54900  1.0000
  H   H2        1.0  0.34800  0.34800  0.54900  1.0000
  H   H3        1.0  0.65200  0.00000  0.54900  1.0000
  H   H4        1.0  1.00000  1.00000  0.98300  1.0000
  Ni  Ni1       1.0  0.00000  0.33200  0.27600  1.0000
  Ni  Ni2       1.0  0.33200  1.00000  0.27600  1.0000
  Ni  Ni3       1.0  0.66800  0.66800  0.27600  1.0000
  O   O1        1.0  0.33300  0.66700  0.11200  1.0000
  O   O2        1.0  0.66700  0.33300  0.11200  1.0000
  O   O3        1.0  0.00000  0.00000  0.11900  1.0000
  O   O4        1.0  0.00000  0.66600  0.41200  1.0000
  O   O5        1.0  0.33400  0.33400  0.41200  1.0000
  O   O6        1.0  0.66600  0.00000  0.41200  1.0000
  O   O7        1.0  0.47600  0.47600  0.79800  1.0000
  O   O8        1.0  0.52400  0.00000  0.79800  1.0000
  O   O9        1.0  0.00000  0.52400  0.79800  1.0000
  Si  Si1       1.0  0.33300  0.66700  0.88700  1.0000
  Si  Si2       1.0  0.66700  0.33300  0.88700  1.0000
