data_image0
_chemical_formula_structural       Al11BrMg17
_chemical_formula_sum              "Al11 Br1 Mg17"
_cell_length_a       9.27713
_cell_length_b       9.39649
_cell_length_c       9.08092
_cell_angle_alpha    109.928
_cell_angle_beta     109.39
_cell_angle_gamma    110.218

_space_group_name_H-M_alt    "P 1"
_space_group_IT_number       1

loop_
  _space_group_symop_operation_xyz
  'x, y, z'

loop_
  _atom_site_type_symbol
  _atom_site_label
  _atom_site_symmetry_multiplicity
  _atom_site_fract_x
  _atom_site_fract_y
  _atom_site_fract_z
  _atom_site_occupancy
  Al  Al1       1.0  0.64600  0.83200  0.00000  1.0000
  Al  Al2       1.0  0.37400  0.37100  0.18600  1.0000
  Al  Al3       1.0  0.82200  0.19800  0.18800  1.0000
  Al  Al4       1.0  0.20000  0.83200  0.18900  1.0000
  Al  Al5       1.0  0.18400  0.37100  0.36500  1.0000
  Al  Al6       1.0  0.37300  0.19100  0.37200  1.0000
  Al  Al7       1.0  0.00056  0.81900  0.62800  1.0000
  Al  Al8       1.0  0.82000  0.00660  0.63500  1.0000
  Al  Al9       1.0  0.01130  0.64400  0.81100  1.0000
  Al  Al10      1.0  0.63300  0.00981  0.81200  1.0000
  Al  Al11      1.0  0.18800  0.18600  0.81400  1.0000
  Br  Br1       1.0  0.76600  0.54800  0.00000  1.0000
  Mg  Mg1       1.0  0.01780  0.33800  0.00000  1.0000
  Mg  Mg2       1.0  0.33400  0.98900  1.00000  1.0000
  Mg  Mg3       1.0  0.56800  0.28100  0.00000  1.0000
  Mg  Mg4       1.0  0.99800  0.99800  1.00000  1.0000
  Mg  Mg5       1.0  0.32400  0.61200  0.00000  1.0000
  Mg  Mg6       1.0  0.68100  0.69200  0.29400  1.0000
  Mg  Mg7       1.0  0.60700  0.00153  0.31200  1.0000
  Mg  Mg8       1.0  0.00838  0.59500  0.32200  1.0000
  Mg  Mg9       1.0  0.00000  0.01440  0.34900  1.0000
  Mg  Mg10      1.0  0.39400  0.71600  0.39200  1.0000
  Mg  Mg11      1.0  0.72000  0.40800  0.41000  1.0000
  Mg  Mg12      1.0  0.31000  0.99800  0.59000  1.0000
  Mg  Mg13      1.0  0.00192  0.32400  0.60800  1.0000
  Mg  Mg14      1.0  0.65000  0.66500  0.65100  1.0000
  Mg  Mg15      1.0  0.68600  0.27200  0.67800  1.0000
  Mg  Mg16      1.0  0.29500  0.68900  0.68800  1.0000
  Mg  Mg17      1.0  0.38800  0.39800  0.70600  1.0000
