data_image0
_chemical_formula_structural       Ba2H8I4O4
_chemical_formula_sum              "Ba2 H8 I4 O4"
_cell_length_a       6.68441
_cell_length_b       6.68441
_cell_length_c       8.60256
_cell_angle_alpha    108.327
_cell_angle_beta     71.6731
_cell_angle_gamma    111.358

_space_group_name_H-M_alt    "P 1"
_space_group_IT_number       1

loop_
  _space_group_symop_operation_xyz
  'x, y, z'

loop_
  _atom_site_type_symbol
  _atom_site_label
  _atom_site_symmetry_multiplicity
  _atom_site_fract_x
  _atom_site_fract_y
  _atom_site_fract_z
  _atom_site_occupancy
  Ba  Ba1       1.0  0.40600  0.40600  0.25000  1.0000
  Ba  Ba2       1.0  0.59400  0.59400  0.75000  1.0000
  H   H1        1.0  0.87700  0.72200  0.05060  1.0000
  H   H2        1.0  0.71800  0.86800  0.11800  1.0000
  H   H3        1.0  0.86800  0.71800  0.38200  1.0000
  H   H4        1.0  0.72200  0.87700  0.44900  1.0000
  H   H5        1.0  0.27800  0.12300  0.55100  1.0000
  H   H6        1.0  0.13200  0.28200  0.61800  1.0000
  H   H7        1.0  0.28200  0.13200  0.88200  1.0000
  H   H8        1.0  0.12300  0.27800  0.94900  1.0000
  I   I1        1.0  0.22600  0.80900  0.14900  1.0000
  I   I2        1.0  0.80900  0.22600  0.35100  1.0000
  I   I3        1.0  0.19100  0.77400  0.64900  1.0000
  I   I4        1.0  0.77400  0.19100  0.85100  1.0000
  O   O1        1.0  0.72500  0.71700  0.05550  1.0000
  O   O2        1.0  0.71700  0.72500  0.44400  1.0000
  O   O3        1.0  0.28300  0.27500  0.55600  1.0000
  O   O4        1.0  0.27500  0.28300  0.94400  1.0000
