data_image0
_chemical_formula_structural       H4Ni2O10S2
_chemical_formula_sum              "H4 Ni2 O10 S2"
_cell_length_a       5.06071
_cell_length_b       5.06071
_cell_length_c       7.33848
_cell_angle_alpha    107.947
_cell_angle_beta     107.947
_cell_angle_gamma    96.6016

_space_group_name_H-M_alt    "P 1"
_space_group_IT_number       1

loop_
  _space_group_symop_operation_xyz
  'x, y, z'

loop_
  _atom_site_type_symbol
  _atom_site_label
  _atom_site_symmetry_multiplicity
  _atom_site_fract_x
  _atom_site_fract_y
  _atom_site_fract_z
  _atom_site_occupancy
  H   H1        1.0  0.04800  0.63000  0.20200  1.0000
  H   H2        1.0  0.87000  0.45200  0.29800  1.0000
  H   H3        1.0  0.13000  0.54800  0.70200  1.0000
  H   H4        1.0  0.95200  0.37000  0.79800  1.0000
  Ni  Ni1       1.0  0.50000  0.50000  0.00000  1.0000
  Ni  Ni2       1.0  0.00000  0.00000  0.50000  1.0000
  O   O1        1.0  0.30700  0.21900  0.09070  1.0000
  O   O2        1.0  0.31700  0.77600  0.15600  1.0000
  O   O3        1.0  0.88200  0.61800  0.25000  1.0000
  O   O4        1.0  0.72400  0.18300  0.34400  1.0000
  O   O5        1.0  0.28100  0.19300  0.40900  1.0000
  O   O6        1.0  0.71900  0.80700  0.59100  1.0000
  O   O7        1.0  0.27600  0.81700  0.65600  1.0000
  O   O8        1.0  0.11800  0.38200  0.75000  1.0000
  O   O9        1.0  0.68300  0.22400  0.84400  1.0000
  O   O10       1.0  0.69300  0.78100  0.90900  1.0000
  S   S1        1.0  0.40500  0.09540  0.25000  1.0000
  S   S2        1.0  0.59500  0.90500  0.75000  1.0000
