data_image0
_chemical_formula_structural       Al11EuMg17
_chemical_formula_sum              "Al11 Eu1 Mg17"
_cell_length_a       9.10931
_cell_length_b       9.63038
_cell_length_c       9.1888
_cell_angle_alpha    111.167
_cell_angle_beta     108.869
_cell_angle_gamma    109.192

_space_group_name_H-M_alt    "P 1"
_space_group_IT_number       1

loop_
  _space_group_symop_operation_xyz
  'x, y, z'

loop_
  _atom_site_type_symbol
  _atom_site_label
  _atom_site_symmetry_multiplicity
  _atom_site_fract_x
  _atom_site_fract_y
  _atom_site_fract_z
  _atom_site_occupancy
  Al  Al1       1.0  0.64500  0.84600  0.00000  1.0000
  Al  Al2       1.0  0.36500  0.36800  0.18400  1.0000
  Al  Al3       1.0  0.23100  0.83400  0.18600  1.0000
  Al  Al4       1.0  0.80700  0.19700  0.19000  1.0000
  Al  Al5       1.0  0.35300  0.17300  0.34900  1.0000
  Al  Al6       1.0  0.17200  0.36200  0.36100  1.0000
  Al  Al7       1.0  0.81100  0.00130  0.63900  1.0000
  Al  Al8       1.0  0.00432  0.82400  0.65100  1.0000
  Al  Al9       1.0  0.61700  0.00730  0.81000  1.0000
  Al  Al10      1.0  0.04490  0.64800  0.81400  1.0000
  Al  Al11      1.0  0.18000  0.18400  0.81600  1.0000
  Eu  Eu1       1.0  0.82500  0.63300  0.00000  1.0000
  Mg  Mg1       1.0  0.58200  0.31100  0.00000  1.0000
  Mg  Mg2       1.0  0.00112  0.34900  0.00000  1.0000
  Mg  Mg3       1.0  0.36300  0.00452  0.00000  1.0000
  Mg  Mg4       1.0  0.99900  0.01180  0.00000  1.0000
  Mg  Mg5       1.0  0.34600  0.59400  0.00000  1.0000
  Mg  Mg6       1.0  0.69400  0.68500  0.31100  1.0000
  Mg  Mg7       1.0  0.61200  0.99300  0.31500  1.0000
  Mg  Mg8       1.0  0.99200  0.57900  0.33500  1.0000
  Mg  Mg9       1.0  0.99400  0.02170  0.35000  1.0000
  Mg  Mg10      1.0  0.38400  0.70600  0.38600  1.0000
  Mg  Mg11      1.0  0.71000  0.40200  0.42300  1.0000
  Mg  Mg12      1.0  0.28700  0.97900  0.57700  1.0000
  Mg  Mg13      1.0  0.99800  0.32000  0.61400  1.0000
  Mg  Mg14      1.0  0.64500  0.67200  0.65000  1.0000
  Mg  Mg15      1.0  0.65700  0.24400  0.66500  1.0000
  Mg  Mg16      1.0  0.29700  0.67800  0.68500  1.0000
  Mg  Mg17      1.0  0.38400  0.37400  0.68900  1.0000
