data_image0
_chemical_formula_structural       Al11Mg17Re
_chemical_formula_sum              "Al11 Mg17 Re1"
_cell_length_a       9.10185
_cell_length_b       8.97751
_cell_length_c       9.06025
_cell_angle_alpha    109.249
_cell_angle_beta     109.804
_cell_angle_gamma    109.269

_space_group_name_H-M_alt    "P 1"
_space_group_IT_number       1

loop_
  _space_group_symop_operation_xyz
  'x, y, z'

loop_
  _atom_site_type_symbol
  _atom_site_label
  _atom_site_symmetry_multiplicity
  _atom_site_fract_x
  _atom_site_fract_y
  _atom_site_fract_z
  _atom_site_occupancy
  Al  Al1       1.0  0.64000  0.80600  0.00000  1.0000
  Al  Al2       1.0  0.36400  0.36800  0.18100  1.0000
  Al  Al3       1.0  0.17300  0.81100  0.18200  1.0000
  Al  Al4       1.0  0.81500  0.18200  0.18600  1.0000
  Al  Al5       1.0  0.17900  0.36300  0.36500  1.0000
  Al  Al6       1.0  0.37000  0.17800  0.36600  1.0000
  Al  Al7       1.0  0.00376  0.81200  0.63400  1.0000
  Al  Al8       1.0  0.81300  0.99700  0.63500  1.0000
  Al  Al9       1.0  0.62900  0.99600  0.81400  1.0000
  Al  Al10      1.0  0.99100  0.62900  0.81800  1.0000
  Al  Al11      1.0  0.18400  0.18700  0.81900  1.0000
  Mg  Mg1       1.0  0.61400  0.32700  0.00000  1.0000
  Mg  Mg2       1.0  0.99400  0.98800  0.00000  1.0000
  Mg  Mg3       1.0  0.35200  0.00558  0.00000  1.0000
  Mg  Mg4       1.0  0.99300  0.35700  0.00000  1.0000
  Mg  Mg5       1.0  0.31600  0.60800  0.00000  1.0000
  Mg  Mg6       1.0  0.68400  0.67900  0.26800  1.0000
  Mg  Mg7       1.0  0.99300  0.60600  0.30900  1.0000
  Mg  Mg8       1.0  0.59600  0.00000  0.31800  1.0000
  Mg  Mg9       1.0  0.99500  0.98600  0.33100  1.0000
  Mg  Mg10      1.0  0.71500  0.39900  0.39800  1.0000
  Mg  Mg11      1.0  0.40300  0.71500  0.40100  1.0000
  Mg  Mg12      1.0  0.00177  0.31400  0.59900  1.0000
  Mg  Mg13      1.0  0.31800  0.00112  0.60200  1.0000
  Mg  Mg14      1.0  0.66400  0.65400  0.66900  1.0000
  Mg  Mg15      1.0  0.27800  0.68100  0.68100  1.0000
  Mg  Mg16      1.0  0.68400  0.29700  0.69100  1.0000
  Mg  Mg17      1.0  0.41600  0.41100  0.73200  1.0000
  Re  Re1       1.0  0.82200  0.64100  0.00000  1.0000
