data_image0
_chemical_formula_structural       Cl8H8In2N2
_chemical_formula_sum              "Cl8 H8 In2 N2"
_cell_length_a       9.24578
_cell_length_b       7.03108
_cell_length_c       7.03108
_cell_angle_alpha    90
_cell_angle_beta     112.348
_cell_angle_gamma    112.348

_space_group_name_H-M_alt    "P 1"
_space_group_IT_number       1

loop_
  _space_group_symop_operation_xyz
  'x, y, z'

loop_
  _atom_site_type_symbol
  _atom_site_label
  _atom_site_symmetry_multiplicity
  _atom_site_fract_x
  _atom_site_fract_y
  _atom_site_fract_z
  _atom_site_occupancy
  Cl  Cl1       1.0  0.92000  0.20200  0.06110  1.0000
  Cl  Cl2       1.0  0.42000  0.35900  0.20200  1.0000
  Cl  Cl3       1.0  0.58000  0.93900  0.28200  1.0000
  Cl  Cl4       1.0  0.92000  0.71800  0.35900  1.0000
  Cl  Cl5       1.0  0.07980  0.28200  0.64100  1.0000
  Cl  Cl6       1.0  0.42000  0.06110  0.71800  1.0000
  Cl  Cl7       1.0  0.58000  0.64100  0.79800  1.0000
  Cl  Cl8       1.0  0.07980  0.79800  0.93900  1.0000
  H   H1        1.0  0.32800  0.65900  0.29400  1.0000
  H   H2        1.0  0.17200  0.70600  0.33200  1.0000
  H   H3        1.0  0.17200  0.46700  0.34100  1.0000
  H   H4        1.0  0.67200  0.33200  0.46700  1.0000
  H   H5        1.0  0.32800  0.66800  0.53300  1.0000
  H   H6        1.0  0.82800  0.53300  0.65900  1.0000
  H   H7        1.0  0.82800  0.29400  0.66800  1.0000
  H   H8        1.0  0.67200  0.34100  0.70600  1.0000
  In  In1       1.0  0.75000  0.87500  0.12500  1.0000
  In  In2       1.0  0.25000  0.12500  0.87500  1.0000
  N   N1        1.0  0.25000  0.62500  0.37500  1.0000
  N   N2        1.0  0.75000  0.37500  0.62500  1.0000
