data_image0
_chemical_formula_structural       H8O8Sr4
_chemical_formula_sum              "H8 O8 Sr4"
_cell_length_a       9.78038
_cell_length_b       5.98583
_cell_length_c       3.8667
_cell_angle_alpha    90
_cell_angle_beta     90
_cell_angle_gamma    90

_space_group_name_H-M_alt    "P 1"
_space_group_IT_number       1

loop_
  _space_group_symop_operation_xyz
  'x, y, z'

loop_
  _atom_site_type_symbol
  _atom_site_label
  _atom_site_symmetry_multiplicity
  _atom_site_fract_x
  _atom_site_fract_y
  _atom_site_fract_z
  _atom_site_occupancy
  H   H1        1.0  0.40800  0.18000  0.25000  1.0000
  H   H2        1.0  0.90800  0.32000  0.25000  1.0000
  H   H3        1.0  0.97800  0.63000  0.25000  1.0000
  H   H4        1.0  0.47800  0.87000  0.25000  1.0000
  H   H5        1.0  0.52200  0.13000  0.75000  1.0000
  H   H6        1.0  0.02250  0.37000  0.75000  1.0000
  H   H7        1.0  0.09210  0.68000  0.75000  1.0000
  H   H8        1.0  0.59200  0.82000  0.75000  1.0000
  O   O1        1.0  0.89400  0.15600  0.25000  1.0000
  O   O2        1.0  0.39400  0.34400  0.25000  1.0000
  O   O3        1.0  0.87800  0.62400  0.25000  1.0000
  O   O4        1.0  0.37800  0.87600  0.25000  1.0000
  O   O5        1.0  0.62200  0.12400  0.75000  1.0000
  O   O6        1.0  0.12200  0.37600  0.75000  1.0000
  O   O7        1.0  0.60600  0.65600  0.75000  1.0000
  O   O8        1.0  0.10600  0.84400  0.75000  1.0000
  Sr  Sr1       1.0  0.16000  0.10300  0.25000  1.0000
  Sr  Sr2       1.0  0.66000  0.39700  0.25000  1.0000
  Sr  Sr3       1.0  0.34000  0.60300  0.75000  1.0000
  Sr  Sr4       1.0  0.84000  0.89700  0.75000  1.0000
