data_image0
_chemical_formula_structural       H2Li6O8Te2
_chemical_formula_sum              "H2 Li6 O8 Te2"
_cell_length_a       6.57321
_cell_length_b       6.32019
_cell_length_c       5.41854
_cell_angle_alpha    90
_cell_angle_beta     113.907
_cell_angle_gamma    90

_space_group_name_H-M_alt    "P 1"
_space_group_IT_number       1

loop_
  _space_group_symop_operation_xyz
  'x, y, z'

loop_
  _atom_site_type_symbol
  _atom_site_label
  _atom_site_symmetry_multiplicity
  _atom_site_fract_x
  _atom_site_fract_y
  _atom_site_fract_z
  _atom_site_occupancy
  H   H1        1.0  0.04120  0.75000  0.46700  1.0000
  H   H2        1.0  0.95900  0.25000  0.53300  1.0000
  Li  Li1       1.0  0.65500  0.01630  0.25500  1.0000
  Li  Li2       1.0  0.65500  0.48400  0.25500  1.0000
  Li  Li3       1.0  0.34800  0.75000  0.28100  1.0000
  Li  Li4       1.0  0.65200  0.25000  0.71900  1.0000
  Li  Li5       1.0  0.34500  0.51600  0.74500  1.0000
  Li  Li6       1.0  0.34500  0.98400  0.74500  1.0000
  O   O1        1.0  0.32000  0.02340  0.09010  1.0000
  O   O2        1.0  0.32000  0.47700  0.09010  1.0000
  O   O3        1.0  0.68600  0.75000  0.45300  1.0000
  O   O4        1.0  0.79900  0.25000  0.48100  1.0000
  O   O5        1.0  0.20100  0.75000  0.51900  1.0000
  O   O6        1.0  0.31400  0.25000  0.54700  1.0000
  O   O7        1.0  0.68000  0.52300  0.91000  1.0000
  O   O8        1.0  0.68000  0.97700  0.91000  1.0000
  Te  Te1       1.0  0.16900  0.25000  0.16700  1.0000
  Te  Te2       1.0  0.83100  0.75000  0.83300  1.0000
