data_image0
_chemical_formula_structural       Cd2Cs6H10
_chemical_formula_sum              "Cd2 Cs6 H10"
_cell_length_a       8.32546
_cell_length_b       8.32546
_cell_length_c       8.61629
_cell_angle_alpha    118.89
_cell_angle_beta     118.89
_cell_angle_gamma    90

_space_group_name_H-M_alt    "P 1"
_space_group_IT_number       1

loop_
  _space_group_symop_operation_xyz
  'x, y, z'

loop_
  _atom_site_type_symbol
  _atom_site_label
  _atom_site_symmetry_multiplicity
  _atom_site_fract_x
  _atom_site_fract_y
  _atom_site_fract_z
  _atom_site_occupancy
  Cd  Cd1       1.0  0.75000  0.25000  0.50000  1.0000
  Cd  Cd2       1.0  0.25000  0.75000  0.50000  1.0000
  Cs  Cs1       1.0  0.68200  0.18200  0.00000  1.0000
  Cs  Cs2       1.0  0.18200  0.31800  0.00000  1.0000
  Cs  Cs3       1.0  0.81800  0.68200  0.00000  1.0000
  Cs  Cs4       1.0  0.31800  0.81800  0.00000  1.0000
  Cs  Cs5       1.0  0.25000  0.25000  0.50000  1.0000
  Cs  Cs6       1.0  0.75000  0.75000  0.50000  1.0000
  H   H1        1.0  0.00000  0.00000  0.00000  1.0000
  H   H2        1.0  0.50000  0.50000  0.00000  1.0000
  H   H3        1.0  0.78800  0.03670  0.32500  1.0000
  H   H4        1.0  0.53700  0.28800  0.32500  1.0000
  H   H5        1.0  0.03670  0.53700  0.32500  1.0000
  H   H6        1.0  0.28800  0.78800  0.32500  1.0000
  H   H7        1.0  0.71200  0.21200  0.67500  1.0000
  H   H8        1.0  0.96300  0.46300  0.67500  1.0000
  H   H9        1.0  0.46300  0.71200  0.67500  1.0000
  H   H10       1.0  0.21200  0.96300  0.67500  1.0000
