data_image0
_chemical_formula_structural       H4I4Li8O4
_chemical_formula_sum              "H4 I4 Li8 O4"
_cell_length_a       10.2753
_cell_length_b       5.57091
_cell_length_c       6.57661
_cell_angle_alpha    90
_cell_angle_beta     90
_cell_angle_gamma    90

_space_group_name_H-M_alt    "P 1"
_space_group_IT_number       1

loop_
  _space_group_symop_operation_xyz
  'x, y, z'

loop_
  _atom_site_type_symbol
  _atom_site_label
  _atom_site_symmetry_multiplicity
  _atom_site_fract_x
  _atom_site_fract_y
  _atom_site_fract_z
  _atom_site_occupancy
  H   H1        1.0  0.45500  0.75000  0.23100  1.0000
  H   H2        1.0  0.95500  0.75000  0.26900  1.0000
  H   H3        1.0  0.04470  0.25000  0.73100  1.0000
  H   H4        1.0  0.54500  0.25000  0.76900  1.0000
  I   I1        1.0  0.17200  0.25000  0.08590  1.0000
  I   I2        1.0  0.67200  0.25000  0.41400  1.0000
  I   I3        1.0  0.32800  0.75000  0.58600  1.0000
  I   I4        1.0  0.82800  0.75000  0.91400  1.0000
  Li  Li1       1.0  0.61300  0.00000  0.05510  1.0000
  Li  Li2       1.0  0.61300  0.50000  0.05510  1.0000
  Li  Li3       1.0  0.11300  0.00000  0.44500  1.0000
  Li  Li4       1.0  0.11300  0.50000  0.44500  1.0000
  Li  Li5       1.0  0.88700  0.00024  0.55500  1.0000
  Li  Li6       1.0  0.88700  0.50000  0.55500  1.0000
  Li  Li7       1.0  0.38700  0.00024  0.94500  1.0000
  Li  Li8       1.0  0.38700  0.50000  0.94500  1.0000
  O   O1        1.0  0.48200  0.75000  0.08830  1.0000
  O   O2        1.0  0.98200  0.75000  0.41200  1.0000
  O   O3        1.0  0.01810  0.25000  0.58800  1.0000
  O   O4        1.0  0.51800  0.25000  0.91200  1.0000
