data_image0
_chemical_formula_structural       H2K2Mn3O10V2
_chemical_formula_sum              "H2 K2 Mn3 O10 V2"
_cell_length_a       5.39132
_cell_length_b       6.1304
_cell_length_c       8.10964
_cell_angle_alpha    112.208
_cell_angle_beta     104.471
_cell_angle_gamma    90

_space_group_name_H-M_alt    "P 1"
_space_group_IT_number       1

loop_
  _space_group_symop_operation_xyz
  'x, y, z'

loop_
  _atom_site_type_symbol
  _atom_site_label
  _atom_site_symmetry_multiplicity
  _atom_site_fract_x
  _atom_site_fract_y
  _atom_site_fract_z
  _atom_site_occupancy
  H   H1        1.0  0.76300  0.14300  0.28600  1.0000
  H   H2        1.0  0.23700  0.85700  0.71400  1.0000
  K   K1        1.0  0.30100  0.23800  0.47700  1.0000
  K   K2        1.0  0.69900  0.76200  0.52300  1.0000
  Mn  Mn1       1.0  0.50000  0.26100  0.00000  1.0000
  Mn  Mn2       1.0  0.50000  0.73900  0.00000  1.0000
  Mn  Mn3       1.0  0.00000  0.00000  0.00000  1.0000
  O   O1        1.0  0.72200  0.07430  0.14900  1.0000
  O   O2        1.0  0.75200  0.58500  0.17000  1.0000
  O   O3        1.0  0.22600  0.35100  0.17300  1.0000
  O   O4        1.0  0.22600  0.82100  0.17300  1.0000
  O   O5        1.0  0.18100  0.74000  0.48100  1.0000
  O   O6        1.0  0.81900  0.26000  0.51900  1.0000
  O   O7        1.0  0.77400  0.17900  0.82700  1.0000
  O   O8        1.0  0.77400  0.64900  0.82700  1.0000
  O   O9        1.0  0.24800  0.41500  0.83000  1.0000
  O   O10       1.0  0.27800  0.92600  0.85100  1.0000
  V   V1        1.0  0.09200  0.62200  0.24400  1.0000
  V   V2        1.0  0.90800  0.37800  0.75600  1.0000
