data_image0
_chemical_formula_structural       Ca4H12K4
_chemical_formula_sum              "Ca4 H12 K4"
_cell_length_a       6.22081
_cell_length_b       8.79298
_cell_length_c       6.21491
_cell_angle_alpha    90
_cell_angle_beta     90
_cell_angle_gamma    90

_space_group_name_H-M_alt    "P 1"
_space_group_IT_number       1

loop_
  _space_group_symop_operation_xyz
  'x, y, z'

loop_
  _atom_site_type_symbol
  _atom_site_label
  _atom_site_symmetry_multiplicity
  _atom_site_fract_x
  _atom_site_fract_y
  _atom_site_fract_z
  _atom_site_occupancy
  Ca  Ca1       1.0  0.50000  0.00000  0.00000  1.0000
  Ca  Ca2       1.0  0.50000  0.50000  0.00000  1.0000
  Ca  Ca3       1.0  0.00000  0.00000  0.50000  1.0000
  Ca  Ca4       1.0  0.00000  0.50000  0.50000  1.0000
  H   H1        1.0  0.48600  0.25000  0.05620  1.0000
  H   H2        1.0  0.22200  0.53000  0.22200  1.0000
  H   H3        1.0  0.22200  0.97000  0.22200  1.0000
  H   H4        1.0  0.72200  0.53000  0.27800  1.0000
  H   H5        1.0  0.72200  0.97000  0.27800  1.0000
  H   H6        1.0  0.98600  0.25000  0.44400  1.0000
  H   H7        1.0  0.01400  0.75000  0.55600  1.0000
  H   H8        1.0  0.27800  0.02960  0.72200  1.0000
  H   H9        1.0  0.27800  0.47000  0.72200  1.0000
  H   H10       1.0  0.77800  0.02960  0.77800  1.0000
  H   H11       1.0  0.77800  0.47000  0.77800  1.0000
  H   H12       1.0  0.51400  0.75000  0.94400  1.0000
  K   K1        1.0  0.98400  0.75000  0.00339  1.0000
  K   K2        1.0  0.48400  0.75000  0.49700  1.0000
  K   K3        1.0  0.51600  0.25000  0.50300  1.0000
  K   K4        1.0  0.01650  0.25000  0.99700  1.0000
