data_image0
_chemical_formula_structural       H4In2O10P2
_chemical_formula_sum              "H4 In2 O10 P2"
_cell_length_a       5.36715
_cell_length_b       5.50916
_cell_length_c       6.50648
_cell_angle_alpha    97.9275
_cell_angle_beta     94.8883
_cell_angle_gamma    107.163

_space_group_name_H-M_alt    "P 1"
_space_group_IT_number       1

loop_
  _space_group_symop_operation_xyz
  'x, y, z'

loop_
  _atom_site_type_symbol
  _atom_site_label
  _atom_site_symmetry_multiplicity
  _atom_site_fract_x
  _atom_site_fract_y
  _atom_site_fract_z
  _atom_site_occupancy
  H   H1        1.0  0.57900  0.62400  0.21100  1.0000
  H   H2        1.0  0.40600  0.35200  0.27100  1.0000
  H   H3        1.0  0.59400  0.64800  0.72900  1.0000
  H   H4        1.0  0.42100  0.37600  0.78900  1.0000
  In  In1       1.0  0.13500  0.73100  0.22600  1.0000
  In  In2       1.0  0.86500  0.26900  0.77400  1.0000
  O   O1        1.0  0.84700  0.34000  0.11400  1.0000
  O   O2        1.0  0.81500  0.87600  0.14600  1.0000
  O   O3        1.0  0.47000  0.07310  0.26800  1.0000
  O   O4        1.0  0.42400  0.54000  0.27700  1.0000
  O   O5        1.0  0.94200  0.23200  0.46300  1.0000
  O   O6        1.0  0.05800  0.76800  0.53700  1.0000
  O   O7        1.0  0.57600  0.46000  0.72300  1.0000
  O   O8        1.0  0.53000  0.92700  0.73200  1.0000
  O   O9        1.0  0.18500  0.12400  0.85400  1.0000
  O   O10       1.0  0.15300  0.66000  0.88600  1.0000
  P   P1        1.0  0.76700  0.12400  0.25400  1.0000
  P   P2        1.0  0.23300  0.87600  0.74600  1.0000
