data_image0
_chemical_formula_structural       Be2H6Li2
_chemical_formula_sum              "Be2 H6 Li2"
_cell_length_a       3.75741
_cell_length_b       4.81627
_cell_length_c       4.98596
_cell_angle_alpha    99.0277
_cell_angle_beta     90
_cell_angle_gamma    112.959

_space_group_name_H-M_alt    "P 1"
_space_group_IT_number       1

loop_
  _space_group_symop_operation_xyz
  'x, y, z'

loop_
  _atom_site_type_symbol
  _atom_site_label
  _atom_site_symmetry_multiplicity
  _atom_site_fract_x
  _atom_site_fract_y
  _atom_site_fract_z
  _atom_site_occupancy
  Be  Be1       1.0  0.65400  0.55200  0.14800  1.0000
  Be  Be2       1.0  0.10200  0.44800  0.85200  1.0000
  H   H1        1.0  0.26700  0.54500  0.12500  1.0000
  H   H2        1.0  0.87600  0.84900  0.27300  1.0000
  H   H3        1.0  0.61100  0.34600  0.33200  1.0000
  H   H4        1.0  0.26500  0.65400  0.66800  1.0000
  H   H5        1.0  0.02750  0.15100  0.72700  1.0000
  H   H6        1.0  0.72200  0.45500  0.87500  1.0000
  Li  Li1       1.0  0.05440  0.25000  0.36700  1.0000
  Li  Li2       1.0  0.80400  0.75000  0.63300  1.0000
