data_image0
_chemical_formula_structural       Fe2H2O4
_chemical_formula_sum              "Fe2 H2 O4"
_cell_length_a       4.9569
_cell_length_b       4.39277
_cell_length_c       3.00268
_cell_angle_alpha    90
_cell_angle_beta     90
_cell_angle_gamma    90

_space_group_name_H-M_alt    "P 1"
_space_group_IT_number       1

loop_
  _space_group_symop_operation_xyz
  'x, y, z'

loop_
  _atom_site_type_symbol
  _atom_site_label
  _atom_site_symmetry_multiplicity
  _atom_site_fract_x
  _atom_site_fract_y
  _atom_site_fract_z
  _atom_site_occupancy
  Fe  Fe1       1.0  0.00481  0.26900  0.00000  1.0000
  Fe  Fe2       1.0  0.50500  0.73100  0.50000  1.0000
  H   H1        1.0  0.52000  0.20500  0.00000  1.0000
  H   H2        1.0  0.02000  0.79500  0.50000  1.0000
  O   O1        1.0  0.64600  0.01420  0.00000  1.0000
  O   O2        1.0  0.35600  0.48600  0.00000  1.0000
  O   O3        1.0  0.85600  0.51400  0.50000  1.0000
  O   O4        1.0  0.14600  0.98600  0.50000  1.0000
