data_image0
_chemical_formula_structural       Al11Mg17Yb
_chemical_formula_sum              "Al11 Mg17 Yb1"
_cell_length_a       9.11493
_cell_length_b       9.50505
_cell_length_c       9.17656
_cell_angle_alpha    110.593
_cell_angle_beta     108.866
_cell_angle_gamma    109.547

_space_group_name_H-M_alt    "P 1"
_space_group_IT_number       1

loop_
  _space_group_symop_operation_xyz
  'x, y, z'

loop_
  _atom_site_type_symbol
  _atom_site_label
  _atom_site_symmetry_multiplicity
  _atom_site_fract_x
  _atom_site_fract_y
  _atom_site_fract_z
  _atom_site_occupancy
  Al  Al1       1.0  0.64000  0.84100  0.00000  1.0000
  Al  Al2       1.0  0.36500  0.36800  0.18400  1.0000
  Al  Al3       1.0  0.21900  0.82800  0.18700  1.0000
  Al  Al4       1.0  0.80900  0.19600  0.18800  1.0000
  Al  Al5       1.0  0.35700  0.17400  0.35200  1.0000
  Al  Al6       1.0  0.17400  0.36400  0.36200  1.0000
  Al  Al7       1.0  0.81200  0.00150  0.63800  1.0000
  Al  Al8       1.0  0.00482  0.82200  0.64800  1.0000
  Al  Al9       1.0  0.62100  0.00738  0.81200  1.0000
  Al  Al10      1.0  0.03220  0.64100  0.81300  1.0000
  Al  Al11      1.0  0.18100  0.18400  0.81600  1.0000
  Mg  Mg1       1.0  0.35700  0.00141  0.00000  1.0000
  Mg  Mg2       1.0  0.34000  0.59500  0.00000  1.0000
  Mg  Mg3       1.0  0.58400  0.30900  0.00000  1.0000
  Mg  Mg4       1.0  0.00036  0.34900  0.00000  1.0000
  Mg  Mg5       1.0  0.99900  0.00898  0.00000  1.0000
  Mg  Mg6       1.0  0.69300  0.68600  0.30700  1.0000
  Mg  Mg7       1.0  0.60700  0.99400  0.31500  1.0000
  Mg  Mg8       1.0  0.99800  0.58600  0.33100  1.0000
  Mg  Mg9       1.0  0.99600  0.01570  0.34800  1.0000
  Mg  Mg10      1.0  0.39100  0.70900  0.39200  1.0000
  Mg  Mg11      1.0  0.71200  0.40200  0.41600  1.0000
  Mg  Mg12      1.0  0.29600  0.98600  0.58400  1.0000
  Mg  Mg13      1.0  0.99900  0.31700  0.60800  1.0000
  Mg  Mg14      1.0  0.64800  0.66800  0.65200  1.0000
  Mg  Mg15      1.0  0.66700  0.25500  0.66900  1.0000
  Mg  Mg16      1.0  0.29200  0.67900  0.68500  1.0000
  Mg  Mg17      1.0  0.38600  0.37900  0.69300  1.0000
  Yb  Yb1       1.0  0.82000  0.63200  0.00000  1.0000
