data_image0
_chemical_formula_structural       Cl8H8N2Tl2
_chemical_formula_sum              "Cl8 H8 N2 Tl2"
_cell_length_a       7.08217
_cell_length_b       7.08217
_cell_length_c       9.31741
_cell_angle_alpha    112.337
_cell_angle_beta     112.337
_cell_angle_gamma    90

_space_group_name_H-M_alt    "P 1"
_space_group_IT_number       1

loop_
  _space_group_symop_operation_xyz
  'x, y, z'

loop_
  _atom_site_type_symbol
  _atom_site_label
  _atom_site_symmetry_multiplicity
  _atom_site_fract_x
  _atom_site_fract_y
  _atom_site_fract_z
  _atom_site_occupancy
  Cl  Cl1       1.0  0.33200  0.24400  0.17400  1.0000
  Cl  Cl2       1.0  0.84200  0.93100  0.17400  1.0000
  Cl  Cl3       1.0  0.91800  0.50600  0.32600  1.0000
  Cl  Cl4       1.0  0.40800  0.81900  0.32600  1.0000
  Cl  Cl5       1.0  0.18100  0.08200  0.67400  1.0000
  Cl  Cl6       1.0  0.49400  0.59200  0.67400  1.0000
  Cl  Cl7       1.0  0.75600  0.15800  0.82600  1.0000
  Cl  Cl8       1.0  0.06930  0.66800  0.82600  1.0000
  H   H1        1.0  0.42300  0.50800  0.07640  1.0000
  H   H2        1.0  0.65300  0.56800  0.07640  1.0000
  H   H3        1.0  0.59700  0.18200  0.42400  1.0000
  H   H4        1.0  0.82700  0.24200  0.42400  1.0000
  H   H5        1.0  0.81800  0.17300  0.57600  1.0000
  H   H6        1.0  0.75800  0.40300  0.57600  1.0000
  H   H7        1.0  0.49200  0.34700  0.92400  1.0000
  H   H8        1.0  0.43200  0.57700  0.92400  1.0000
  N   N1        1.0  0.50000  0.50000  0.00000  1.0000
  N   N2        1.0  0.75000  0.25000  0.50000  1.0000
  Tl  Tl1       1.0  0.00000  0.00000  0.00000  1.0000
  Tl  Tl2       1.0  0.25000  0.75000  0.50000  1.0000
