data_image0
_chemical_formula_structural       Al2F6H4O4Pb2
_chemical_formula_sum              "Al2 F6 H4 O4 Pb2"
_cell_length_a       6.15518
_cell_length_b       6.74964
_cell_length_c       4.98352
_cell_angle_alpha    90.3117
_cell_angle_beta     107.923
_cell_angle_gamma    104.665

_space_group_name_H-M_alt    "P 1"
_space_group_IT_number       1

loop_
  _space_group_symop_operation_xyz
  'x, y, z'

loop_
  _atom_site_type_symbol
  _atom_site_label
  _atom_site_symmetry_multiplicity
  _atom_site_fract_x
  _atom_site_fract_y
  _atom_site_fract_z
  _atom_site_occupancy
  Al  Al1       1.0  0.18700  0.67400  0.16100  1.0000
  Al  Al2       1.0  0.81300  0.32600  0.83900  1.0000
  F   F1        1.0  0.49900  0.77600  0.20400  1.0000
  F   F2        1.0  0.20500  0.86500  0.43300  1.0000
  F   F3        1.0  0.26200  0.50700  0.44700  1.0000
  F   F4        1.0  0.73800  0.49300  0.55300  1.0000
  F   F5        1.0  0.79500  0.13500  0.56700  1.0000
  F   F6        1.0  0.50100  0.22400  0.79600  1.0000
  H   H1        1.0  0.81100  0.52800  0.27400  1.0000
  H   H2        1.0  0.85600  0.13900  0.27800  1.0000
  H   H3        1.0  0.14400  0.86100  0.72200  1.0000
  H   H4        1.0  0.18900  0.47200  0.72600  1.0000
  O   O1        1.0  0.85700  0.55000  0.10000  1.0000
  O   O2        1.0  0.89700  0.13900  0.10100  1.0000
  O   O3        1.0  0.10300  0.86100  0.89900  1.0000
  O   O4        1.0  0.14300  0.45000  0.90000  1.0000
  Pb  Pb1       1.0  0.32000  0.19300  0.20400  1.0000
  Pb  Pb2       1.0  0.68000  0.80700  0.79600  1.0000
