data_image0
_chemical_formula_structural       H14Th2Zr4
_chemical_formula_sum              "H14 Th2 Zr4"
_cell_length_a       6.5508
_cell_length_b       6.5508
_cell_length_c       6.5508
_cell_angle_alpha    120
_cell_angle_beta     90
_cell_angle_gamma    120

_space_group_name_H-M_alt    "P 1"
_space_group_IT_number       1

loop_
  _space_group_symop_operation_xyz
  'x, y, z'

loop_
  _atom_site_type_symbol
  _atom_site_label
  _atom_site_symmetry_multiplicity
  _atom_site_fract_x
  _atom_site_fract_y
  _atom_site_fract_z
  _atom_site_occupancy
  H   H1        1.0  0.50300  0.00547  0.00274  1.0000
  H   H2        1.0  0.99700  0.50000  0.00274  1.0000
  H   H3        1.0  0.50300  0.50000  0.00274  1.0000
  H   H4        1.0  0.75300  0.00000  0.24700  1.0000
  H   H5        1.0  0.24700  0.00000  0.24700  1.0000
  H   H6        1.0  0.24700  0.49500  0.24700  1.0000
  H   H7        1.0  0.99700  0.50000  0.49700  1.0000
  H   H8        1.0  0.50300  0.50000  0.49700  1.0000
  H   H9        1.0  0.99700  0.99500  0.49700  1.0000
  H   H10       1.0  0.50000  0.00000  0.50000  1.0000
  H   H11       1.0  0.25000  0.50000  0.75000  1.0000
  H   H12       1.0  0.24700  0.00000  0.75300  1.0000
  H   H13       1.0  0.75300  0.00000  0.75300  1.0000
  H   H14       1.0  0.75300  0.50500  0.75300  1.0000
  Th  Th1       1.0  0.00000  0.00000  0.00000  1.0000
  Th  Th2       1.0  0.75000  0.50000  0.25000  1.0000
  Zr  Zr1       1.0  0.37500  0.75000  0.12500  1.0000
  Zr  Zr2       1.0  0.37500  0.25000  0.62500  1.0000
  Zr  Zr3       1.0  0.87500  0.25000  0.62500  1.0000
  Zr  Zr4       1.0  0.37500  0.75000  0.62500  1.0000
