data_image0
_chemical_formula_structural       H12N2O4P2
_chemical_formula_sum              "H12 N2 O4 P2"
_cell_length_a       3.87523
_cell_length_b       6.79718
_cell_length_c       6.79718
_cell_angle_alpha    114.353
_cell_angle_beta     90
_cell_angle_gamma    90

_space_group_name_H-M_alt    "P 1"
_space_group_IT_number       1

loop_
  _space_group_symop_operation_xyz
  'x, y, z'

loop_
  _atom_site_type_symbol
  _atom_site_label
  _atom_site_symmetry_multiplicity
  _atom_site_fract_x
  _atom_site_fract_y
  _atom_site_fract_z
  _atom_site_occupancy
  H   H1        1.0  0.27700  0.59900  0.09890  1.0000
  H   H2        1.0  0.34600  0.22000  0.11400  1.0000
  H   H3        1.0  0.65400  0.11400  0.22000  1.0000
  H   H4        1.0  0.65400  0.38600  0.28000  1.0000
  H   H5        1.0  0.34600  0.28000  0.38600  1.0000
  H   H6        1.0  0.27700  0.90100  0.40100  1.0000
  H   H7        1.0  0.72300  0.09890  0.59900  1.0000
  H   H8        1.0  0.65400  0.72000  0.61400  1.0000
  H   H9        1.0  0.34600  0.61400  0.72000  1.0000
  H   H10       1.0  0.34600  0.88600  0.78000  1.0000
  H   H11       1.0  0.65400  0.78000  0.88600  1.0000
  H   H12       1.0  0.72300  0.40100  0.90100  1.0000
  N   N1        1.0  0.50000  0.25000  0.25000  1.0000
  N   N2        1.0  0.50000  0.75000  0.75000  1.0000
  O   O1        1.0  0.85300  0.86500  0.13500  1.0000
  O   O2        1.0  0.85300  0.63500  0.36500  1.0000
  O   O3        1.0  0.14700  0.36500  0.63500  1.0000
  O   O4        1.0  0.14700  0.13500  0.86500  1.0000
  P   P1        1.0  0.05160  0.75000  0.25000  1.0000
  P   P2        1.0  0.94800  0.25000  0.75000  1.0000
