data_image0
_chemical_formula_structural       Al11Mg17Sc
_chemical_formula_sum              "Al11 Mg17 Sc1"
_cell_length_a       9.06306
_cell_length_b       9.2409
_cell_length_c       9.17563
_cell_angle_alpha    110.035
_cell_angle_beta     109.254
_cell_angle_gamma    109.021

_space_group_name_H-M_alt    "P 1"
_space_group_IT_number       1

loop_
  _space_group_symop_operation_xyz
  'x, y, z'

loop_
  _atom_site_type_symbol
  _atom_site_label
  _atom_site_symmetry_multiplicity
  _atom_site_fract_x
  _atom_site_fract_y
  _atom_site_fract_z
  _atom_site_occupancy
  Al  Al1       1.0  0.63500  0.82200  0.00000  1.0000
  Al  Al2       1.0  0.36200  0.36700  0.18200  1.0000
  Al  Al3       1.0  0.81000  0.18500  0.18500  1.0000
  Al  Al4       1.0  0.19900  0.82500  0.18900  1.0000
  Al  Al5       1.0  0.36900  0.18200  0.36300  1.0000
  Al  Al6       1.0  0.17500  0.36300  0.36600  1.0000
  Al  Al7       1.0  0.81000  0.99800  0.63400  1.0000
  Al  Al8       1.0  0.00589  0.81900  0.63700  1.0000
  Al  Al9       1.0  0.00991  0.63600  0.81100  1.0000
  Al  Al10      1.0  0.62500  0.00003  0.81500  1.0000
  Al  Al11      1.0  0.18100  0.18600  0.81800  1.0000
  Mg  Mg1       1.0  0.59600  0.31500  0.00000  1.0000
  Mg  Mg2       1.0  0.32300  0.59600  0.00000  1.0000
  Mg  Mg3       1.0  0.35500  0.00262  0.00000  1.0000
  Mg  Mg4       1.0  0.99800  0.00036  0.00000  1.0000
  Mg  Mg5       1.0  0.99100  0.34900  0.00000  1.0000
  Mg  Mg6       1.0  0.68900  0.68400  0.28900  1.0000
  Mg  Mg7       1.0  0.59700  0.99700  0.31600  1.0000
  Mg  Mg8       1.0  0.00215  0.60100  0.32200  1.0000
  Mg  Mg9       1.0  0.99900  0.00012  0.34100  1.0000
  Mg  Mg10      1.0  0.40100  0.71400  0.40000  1.0000
  Mg  Mg11      1.0  0.71500  0.40000  0.40200  1.0000
  Mg  Mg12      1.0  0.31300  0.99800  0.59800  1.0000
  Mg  Mg13      1.0  0.00070  0.31400  0.60000  1.0000
  Mg  Mg14      1.0  0.65800  0.65900  0.65900  1.0000
  Mg  Mg15      1.0  0.68000  0.27900  0.67800  1.0000
  Mg  Mg16      1.0  0.28100  0.68100  0.68400  1.0000
  Mg  Mg17      1.0  0.40000  0.39500  0.71100  1.0000
  Sc  Sc1       1.0  0.82100  0.63300  0.00000  1.0000
