data_image0
_chemical_formula_structural       Ir4Li8Mg4
_chemical_formula_sum              "Ir4 Li8 Mg4"
_cell_length_a       6.15826
_cell_length_b       6.15826
_cell_length_c       6.15826
_cell_angle_alpha    90
_cell_angle_beta     90
_cell_angle_gamma    90

_space_group_name_H-M_alt    "P 1"
_space_group_IT_number       1

loop_
  _space_group_symop_operation_xyz
  'x, y, z'

loop_
  _atom_site_type_symbol
  _atom_site_label
  _atom_site_symmetry_multiplicity
  _atom_site_fract_x
  _atom_site_fract_y
  _atom_site_fract_z
  _atom_site_occupancy
  Ir  Ir1       1.0  0.74700  0.25300  0.25300  1.0000
  Ir  Ir2       1.0  0.25300  0.74700  0.25300  1.0000
  Ir  Ir3       1.0  0.25300  0.25300  0.74700  1.0000
  Ir  Ir4       1.0  0.74700  0.74700  0.74700  1.0000
  Li  Li1       1.0  0.50000  0.50000  0.00000  1.0000
  Li  Li2       1.0  0.26900  0.26900  0.26900  1.0000
  Li  Li3       1.0  0.73100  0.73100  0.26900  1.0000
  Li  Li4       1.0  0.50000  0.00000  0.50000  1.0000
  Li  Li5       1.0  0.00000  0.50000  0.50000  1.0000
  Li  Li6       1.0  0.50000  0.50000  0.50000  1.0000
  Li  Li7       1.0  0.73100  0.26900  0.73100  1.0000
  Li  Li8       1.0  0.26900  0.73100  0.73100  1.0000
  Mg  Mg1       1.0  0.00000  0.00000  0.00000  1.0000
  Mg  Mg2       1.0  0.50000  0.00000  0.00000  1.0000
  Mg  Mg3       1.0  0.00000  0.50000  0.00000  1.0000
  Mg  Mg4       1.0  0.00000  0.00000  0.50000  1.0000
