data_image0
_chemical_formula_structural       F8Fe3H4O2
_chemical_formula_sum              "F8 Fe3 H4 O2"
_cell_length_a       5.15606
_cell_length_b       5.15606
_cell_length_c       7.1472
_cell_angle_alpha    109.107
_cell_angle_beta     70.8935
_cell_angle_gamma    89.5681

_space_group_name_H-M_alt    "P 1"
_space_group_IT_number       1

loop_
  _space_group_symop_operation_xyz
  'x, y, z'

loop_
  _atom_site_type_symbol
  _atom_site_label
  _atom_site_symmetry_multiplicity
  _atom_site_fract_x
  _atom_site_fract_y
  _atom_site_fract_z
  _atom_site_occupancy
  F   F1        1.0  0.08820  0.35200  0.20100  1.0000
  F   F2        1.0  0.64800  0.91200  0.20100  1.0000
  F   F3        1.0  0.34800  0.65200  0.44700  1.0000
  F   F4        1.0  0.17100  0.17100  0.50000  1.0000
  F   F5        1.0  0.82900  0.82900  0.50000  1.0000
  F   F6        1.0  0.65200  0.34800  0.55300  1.0000
  F   F7        1.0  0.35200  0.08820  0.79900  1.0000
  F   F8        1.0  0.91200  0.64800  0.79900  1.0000
  Fe  Fe1       1.0  0.00000  0.00000  0.00000  1.0000
  Fe  Fe2       1.0  0.00000  0.50000  0.50000  1.0000
  Fe  Fe3       1.0  0.50000  0.00000  0.50000  1.0000
  H   H1        1.0  0.19300  0.59100  0.09460  1.0000
  H   H2        1.0  0.40900  0.80700  0.09460  1.0000
  H   H3        1.0  0.59100  0.19300  0.90500  1.0000
  H   H4        1.0  0.80700  0.40900  0.90500  1.0000
  O   O1        1.0  0.26300  0.73700  0.03690  1.0000
  O   O2        1.0  0.73700  0.26300  0.96300  1.0000
