data_image0
_chemical_formula_structural       Al11CsMg17
_chemical_formula_sum              "Al11 Cs1 Mg17"
_cell_length_a       9.81624
_cell_length_b       10.0111
_cell_length_c       8.98694
_cell_angle_alpha    112.199
_cell_angle_beta     111.311
_cell_angle_gamma    109.15

_space_group_name_H-M_alt    "P 1"
_space_group_IT_number       1

loop_
  _space_group_symop_operation_xyz
  'x, y, z'

loop_
  _atom_site_type_symbol
  _atom_site_label
  _atom_site_symmetry_multiplicity
  _atom_site_fract_x
  _atom_site_fract_y
  _atom_site_fract_z
  _atom_site_occupancy
  Al  Al1       1.0  0.70700  0.85300  0.00000  1.0000
  Al  Al2       1.0  0.36000  0.37800  0.19600  1.0000
  Al  Al3       1.0  0.82400  0.19900  0.19800  1.0000
  Al  Al4       1.0  0.28100  0.89600  0.21200  1.0000
  Al  Al5       1.0  0.18400  0.37600  0.38800  1.0000
  Al  Al6       1.0  0.36600  0.22300  0.39400  1.0000
  Al  Al7       1.0  0.97200  0.82900  0.60600  1.0000
  Al  Al8       1.0  0.79700  0.98900  0.61200  1.0000
  Al  Al9       1.0  0.06830  0.68400  0.78800  1.0000
  Al  Al10      1.0  0.62600  0.00135  0.80200  1.0000
  Al  Al11      1.0  0.16500  0.18200  0.80400  1.0000
  Cs  Cs1       1.0  0.86700  0.59900  0.00000  1.0000
  Mg  Mg1       1.0  0.58300  0.29600  0.00000  1.0000
  Mg  Mg2       1.0  0.28000  0.58100  0.00000  1.0000
  Mg  Mg3       1.0  0.01800  0.00524  0.00000  1.0000
  Mg  Mg4       1.0  0.34300  0.03480  0.00000  1.0000
  Mg  Mg5       1.0  0.64400  0.65800  0.24900  1.0000
  Mg  Mg6       1.0  0.60800  0.96500  0.25500  1.0000
  Mg  Mg7       1.0  0.01700  0.04730  0.38100  1.0000
  Mg  Mg8       1.0  0.35300  0.70400  0.38700  1.0000
  Mg  Mg9       1.0  0.00871  0.56400  0.39600  1.0000
  Mg  Mg10      1.0  0.69300  0.38400  0.41300  1.0000
  Mg  Mg11      1.0  0.28000  0.97100  0.58700  1.0000
  Mg  Mg12      1.0  0.61300  0.16900  0.60400  1.0000
  Mg  Mg13      1.0  0.96600  0.31800  0.61300  1.0000
  Mg  Mg14      1.0  0.63600  0.66700  0.61900  1.0000
  Mg  Mg15      1.0  0.35300  0.70900  0.74500  1.0000
  Mg  Mg16      1.0  0.39500  0.41000  0.75100  1.0000
  Mg  Mg17      1.0  0.99300  0.30800  0.00000  1.0000
