data_image0
_chemical_formula_structural       CdCl4CuH8O4
_chemical_formula_sum              "Cd1 Cl4 Cu1 H8 O4"
_cell_length_a       3.85928
_cell_length_b       6.99021
_cell_length_c       8.62611
_cell_angle_alpha    87.8573
_cell_angle_beta     82.5076
_cell_angle_gamma    75.0705

_space_group_name_H-M_alt    "P 1"
_space_group_IT_number       1

loop_
  _space_group_symop_operation_xyz
  'x, y, z'

loop_
  _atom_site_type_symbol
  _atom_site_label
  _atom_site_symmetry_multiplicity
  _atom_site_fract_x
  _atom_site_fract_y
  _atom_site_fract_z
  _atom_site_occupancy
  Cd  Cd1       1.0  0.00000  0.00000  0.50000  1.0000
  Cl  Cl1       1.0  0.06360  0.94400  0.19500  1.0000
  Cl  Cl2       1.0  0.37200  0.26700  0.47300  1.0000
  Cl  Cl3       1.0  0.62800  0.73300  0.52700  1.0000
  Cl  Cl4       1.0  0.93600  0.05610  0.80500  1.0000
  Cu  Cu1       1.0  0.50000  0.00000  0.00000  1.0000
  H   H1        1.0  0.65700  0.64000  0.05770  1.0000
  H   H2        1.0  0.14700  0.33900  0.11500  1.0000
  H   H3        1.0  0.61200  0.41200  0.24700  1.0000
  H   H4        1.0  0.77900  0.57300  0.30400  1.0000
  H   H5        1.0  0.22100  0.42700  0.69600  1.0000
  H   H6        1.0  0.38800  0.58800  0.75300  1.0000
  H   H7        1.0  0.85300  0.66100  0.88500  1.0000
  H   H8        1.0  0.34300  0.36000  0.94200  1.0000
  O   O1        1.0  0.37400  0.28300  0.04300  1.0000
  O   O2        1.0  0.77400  0.49700  0.21000  1.0000
  O   O3        1.0  0.22600  0.50300  0.79000  1.0000
  O   O4        1.0  0.62600  0.71700  0.95700  1.0000
