data_image0
_chemical_formula_structural       Al8K8Li31O31
_chemical_formula_sum              "Al8 K8 Li31 O31"
_cell_length_a       5.5164
_cell_length_b       15.062
_cell_length_c       11.0102
_cell_angle_alpha    89.6078
_cell_angle_beta     109.447
_cell_angle_gamma    90.5302

_space_group_name_H-M_alt    "P 1"
_space_group_IT_number       1

loop_
  _space_group_symop_operation_xyz
  'x, y, z'

loop_
  _atom_site_type_symbol
  _atom_site_label
  _atom_site_symmetry_multiplicity
  _atom_site_fract_x
  _atom_site_fract_y
  _atom_site_fract_z
  _atom_site_occupancy
  Al  Al1       1.0  0.80900  0.77400  0.12200  1.0000
  Al  Al2       1.0  0.37100  0.48300  0.20700  1.0000
  Al  Al3       1.0  0.61700  0.98500  0.29500  1.0000
  Al  Al4       1.0  0.19900  0.27400  0.37700  1.0000
  Al  Al5       1.0  0.80900  0.72700  0.62200  1.0000
  Al  Al6       1.0  0.38700  0.01520  0.70200  1.0000
  Al  Al7       1.0  0.61000  0.51500  0.79300  1.0000
  Al  Al8       1.0  0.19800  0.23000  0.88100  1.0000
  K   K1        1.0  0.04540  0.07340  0.15700  1.0000
  K   K2        1.0  0.60900  0.20000  0.22700  1.0000
  K   K3        1.0  0.40400  0.70100  0.27400  1.0000
  K   K4        1.0  0.95400  0.56500  0.34200  1.0000
  K   K5        1.0  0.02240  0.42700  0.65400  1.0000
  K   K6        1.0  0.60200  0.29300  0.72900  1.0000
  K   K7        1.0  0.40800  0.80300  0.77500  1.0000
  K   K8        1.0  0.97200  0.93800  0.84600  1.0000
  Li  Li1       1.0  0.52000  0.65600  0.00908  1.0000
  Li  Li2       1.0  0.87300  0.24300  0.01940  1.0000
  Li  Li3       1.0  0.63300  0.93100  0.02230  1.0000
  Li  Li4       1.0  0.04980  0.57800  0.04750  1.0000
  Li  Li5       1.0  0.67800  0.47700  0.08910  1.0000
  Li  Li6       1.0  0.25600  0.32700  0.11200  1.0000
  Li  Li7       1.0  0.32900  0.88200  0.12900  1.0000
  Li  Li8       1.0  0.91200  0.37200  0.22100  1.0000
  Li  Li9       1.0  0.09040  0.87800  0.27100  1.0000
  Li  Li10      1.0  0.67700  0.38100  0.37100  1.0000
  Li  Li11      1.0  0.78700  0.83900  0.37300  1.0000
  Li  Li12      1.0  0.31100  0.98400  0.42200  1.0000
  Li  Li13      1.0  0.94200  0.07680  0.45600  1.0000
  Li  Li14      1.0  0.37000  0.42700  0.47700  1.0000
  Li  Li15      1.0  0.10400  0.73700  0.47800  1.0000
  Li  Li16      1.0  0.48400  0.15600  0.49500  1.0000
  Li  Li17      1.0  0.52300  0.84500  0.50300  1.0000
  Li  Li18      1.0  0.90500  0.26400  0.52000  1.0000
  Li  Li19      1.0  0.61900  0.57500  0.52100  1.0000
  Li  Li20      1.0  0.06120  0.92400  0.54200  1.0000
  Li  Li21      1.0  0.69300  0.01860  0.57700  1.0000
  Li  Li22      1.0  0.21900  0.16100  0.62500  1.0000
  Li  Li23      1.0  0.31800  0.61800  0.62800  1.0000
  Li  Li24      1.0  0.92100  0.12500  0.72900  1.0000
  Li  Li25      1.0  0.08070  0.62300  0.77200  1.0000
  Li  Li26      1.0  0.67700  0.11700  0.87100  1.0000
  Li  Li27      1.0  0.77900  0.66200  0.87500  1.0000
  Li  Li28      1.0  0.29600  0.52100  0.92700  1.0000
  Li  Li29      1.0  0.96100  0.42500  0.96600  1.0000
  Li  Li30      1.0  0.37800  0.07650  0.97700  1.0000
  Li  Li31      1.0  0.10200  0.76500  0.97900  1.0000
  O   O1        1.0  0.89400  0.68200  0.04900  1.0000
  O   O2        1.0  0.46900  0.78700  0.05080  1.0000
  O   O3        1.0  0.96300  0.86900  0.07980  1.0000
  O   O4        1.0  0.42800  0.56400  0.09930  1.0000
  O   O5        1.0  0.49800  0.00540  0.13000  1.0000
  O   O6        1.0  0.03270  0.46800  0.13900  1.0000
  O   O7        1.0  0.55500  0.39200  0.18600  1.0000
  O   O8        1.0  0.08400  0.26100  0.20600  1.0000
  O   O9        1.0  0.93400  0.76000  0.29200  1.0000
  O   O10       1.0  0.45000  0.88900  0.32400  1.0000
  O   O11       1.0  0.95200  0.96400  0.35900  1.0000
  O   O12       1.0  0.48700  0.51000  0.37000  1.0000
  O   O13       1.0  0.56400  0.06700  0.39800  1.0000
  O   O14       1.0  0.03980  0.36700  0.41700  1.0000
  O   O15       1.0  0.10500  0.18100  0.44800  1.0000
  O   O16       1.0  0.53700  0.29000  0.45400  1.0000
  O   O17       1.0  0.90000  0.81900  0.54900  1.0000
  O   O18       1.0  0.47000  0.71000  0.55100  1.0000
  O   O19       1.0  0.96000  0.63100  0.58300  1.0000
  O   O20       1.0  0.43900  0.93400  0.59900  1.0000
  O   O21       1.0  0.48700  0.49400  0.63000  1.0000
  O   O22       1.0  0.05210  0.03660  0.63900  1.0000
  O   O23       1.0  0.55700  0.11100  0.67400  1.0000
  O   O24       1.0  0.08300  0.24200  0.70900  1.0000
  O   O25       1.0  0.93300  0.73800  0.79200  1.0000
  O   O26       1.0  0.44100  0.60500  0.82900  1.0000
  O   O27       1.0  0.94100  0.53400  0.86300  1.0000
  O   O28       1.0  0.50100  0.99200  0.86600  1.0000
  O   O29       1.0  0.03620  0.13300  0.91700  1.0000
  O   O30       1.0  0.06790  0.32000  0.93900  1.0000
  O   O31       1.0  0.52700  0.20200  0.95400  1.0000
