data_image0
_chemical_formula_structural       Al11Mg17Rb
_chemical_formula_sum              "Al11 Mg17 Rb1"
_cell_length_a       9.72359
_cell_length_b       9.92977
_cell_length_c       8.97205
_cell_angle_alpha    111.959
_cell_angle_beta     111.017
_cell_angle_gamma    109.336

_space_group_name_H-M_alt    "P 1"
_space_group_IT_number       1

loop_
  _space_group_symop_operation_xyz
  'x, y, z'

loop_
  _atom_site_type_symbol
  _atom_site_label
  _atom_site_symmetry_multiplicity
  _atom_site_fract_x
  _atom_site_fract_y
  _atom_site_fract_z
  _atom_site_occupancy
  Al  Al1       1.0  0.36500  0.38400  0.19400  1.0000
  Al  Al2       1.0  0.82400  0.18800  0.19500  1.0000
  Al  Al3       1.0  0.27600  0.89900  0.21900  1.0000
  Al  Al4       1.0  0.18200  0.37500  0.38400  1.0000
  Al  Al5       1.0  0.36700  0.22600  0.39000  1.0000
  Al  Al6       1.0  0.97700  0.83600  0.61000  1.0000
  Al  Al7       1.0  0.79800  0.99100  0.61600  1.0000
  Al  Al8       1.0  0.05700  0.68000  0.78100  1.0000
  Al  Al9       1.0  0.62900  0.99300  0.80500  1.0000
  Al  Al10      1.0  0.17100  0.19000  0.80600  1.0000
  Al  Al11      1.0  0.68500  0.82700  1.00000  1.0000
  Mg  Mg1       1.0  0.00731  0.00065  0.00000  1.0000
  Mg  Mg2       1.0  0.33800  0.03510  0.00000  1.0000
  Mg  Mg3       1.0  0.65500  0.66400  0.24800  1.0000
  Mg  Mg4       1.0  0.60700  0.97500  0.26700  1.0000
  Mg  Mg5       1.0  0.01260  0.03730  0.37800  1.0000
  Mg  Mg6       1.0  0.99800  0.56000  0.38100  1.0000
  Mg  Mg7       1.0  0.35900  0.70700  0.38700  1.0000
  Mg  Mg8       1.0  0.69300  0.38100  0.41000  1.0000
  Mg  Mg9       1.0  0.28300  0.97100  0.59000  1.0000
  Mg  Mg10      1.0  0.97300  0.32100  0.61300  1.0000
  Mg  Mg11      1.0  0.61700  0.17900  0.61900  1.0000
  Mg  Mg12      1.0  0.63500  0.65900  0.62200  1.0000
  Mg  Mg13      1.0  0.33900  0.70800  0.73300  1.0000
  Mg  Mg14      1.0  0.40700  0.41600  0.75200  1.0000
  Mg  Mg15      1.0  0.99200  0.31000  0.00000  1.0000
  Mg  Mg16      1.0  0.28700  0.59100  0.00000  1.0000
  Mg  Mg17      1.0  0.59300  0.29400  0.00000  1.0000
  Rb  Rb1       1.0  0.87300  0.60300  0.00000  1.0000
