data_image0
_chemical_formula_structural       Cl4H8Li4O4
_chemical_formula_sum              "Cl4 H8 Li4 O4"
_cell_length_a       5.35838
_cell_length_b       5.35838
_cell_length_c       7.56436
_cell_angle_alpha    90
_cell_angle_beta     90
_cell_angle_gamma    89.2901

_space_group_name_H-M_alt    "P 1"
_space_group_IT_number       1

loop_
  _space_group_symop_operation_xyz
  'x, y, z'

loop_
  _atom_site_type_symbol
  _atom_site_label
  _atom_site_symmetry_multiplicity
  _atom_site_fract_x
  _atom_site_fract_y
  _atom_site_fract_z
  _atom_site_occupancy
  Cl  Cl1       1.0  0.78800  0.26900  0.25000  1.0000
  Cl  Cl2       1.0  0.26900  0.78800  0.25000  1.0000
  Cl  Cl3       1.0  0.73100  0.21200  0.75000  1.0000
  Cl  Cl4       1.0  0.21200  0.73100  0.75000  1.0000
  H   H1        1.0  0.78600  0.58100  0.07250  1.0000
  H   H2        1.0  0.58100  0.78600  0.07250  1.0000
  H   H3        1.0  0.78600  0.58100  0.42700  1.0000
  H   H4        1.0  0.58100  0.78600  0.42700  1.0000
  H   H5        1.0  0.41900  0.21400  0.57300  1.0000
  H   H6        1.0  0.21400  0.41900  0.57300  1.0000
  H   H7        1.0  0.41900  0.21400  0.92700  1.0000
  H   H8        1.0  0.21400  0.41900  0.92700  1.0000
  Li  Li1       1.0  0.00000  0.00000  0.00000  1.0000
  Li  Li2       1.0  0.32100  0.32100  0.25000  1.0000
  Li  Li3       1.0  0.00000  0.00000  0.50000  1.0000
  Li  Li4       1.0  0.67900  0.67900  0.75000  1.0000
  O   O1        1.0  0.26500  0.26500  0.99200  1.0000
  O   O2        1.0  0.73500  0.73500  0.00788  1.0000
  O   O3        1.0  0.73500  0.73500  0.49200  1.0000
  O   O4        1.0  0.26500  0.26500  0.50800  1.0000
