data_image0
_chemical_formula_structural       Al11Mg17Ti
_chemical_formula_sum              "Al11 Mg17 Ti1"
_cell_length_a       9.05033
_cell_length_b       9.13363
_cell_length_c       9.14469
_cell_angle_alpha    109.795
_cell_angle_beta     109.428
_cell_angle_gamma    108.955

_space_group_name_H-M_alt    "P 1"
_space_group_IT_number       1

loop_
  _space_group_symop_operation_xyz
  'x, y, z'

loop_
  _atom_site_type_symbol
  _atom_site_label
  _atom_site_symmetry_multiplicity
  _atom_site_fract_x
  _atom_site_fract_y
  _atom_site_fract_z
  _atom_site_occupancy
  Al  Al1       1.0  0.63900  0.81300  0.00000  1.0000
  Al  Al2       1.0  0.36200  0.36700  0.18100  1.0000
  Al  Al3       1.0  0.81000  0.18100  0.18500  1.0000
  Al  Al4       1.0  0.18700  0.82000  0.18600  1.0000
  Al  Al5       1.0  0.37000  0.18200  0.36400  1.0000
  Al  Al6       1.0  0.17600  0.36300  0.36700  1.0000
  Al  Al7       1.0  0.80900  0.99700  0.63300  1.0000
  Al  Al8       1.0  0.00541  0.81700  0.63600  1.0000
  Al  Al9       1.0  0.00075  0.63400  0.81400  1.0000
  Al  Al10      1.0  0.62500  0.99700  0.81500  1.0000
  Al  Al11      1.0  0.18100  0.18600  0.81900  1.0000
  Mg  Mg1       1.0  0.31900  0.60000  0.00000  1.0000
  Mg  Mg2       1.0  0.60700  0.32100  0.00000  1.0000
  Mg  Mg3       1.0  0.99800  0.99500  0.00000  1.0000
  Mg  Mg4       1.0  0.35700  0.00602  0.00000  1.0000
  Mg  Mg5       1.0  0.98900  0.35200  1.00000  1.0000
  Mg  Mg6       1.0  0.68700  0.68200  0.27900  1.0000
  Mg  Mg7       1.0  0.00012  0.60600  0.31700  1.0000
  Mg  Mg8       1.0  0.59400  0.99800  0.31700  1.0000
  Mg  Mg9       1.0  0.99700  0.99200  0.33600  1.0000
  Mg  Mg10      1.0  0.71500  0.40000  0.39900  1.0000
  Mg  Mg11      1.0  0.40300  0.71500  0.40200  1.0000
  Mg  Mg12      1.0  0.00068  0.31300  0.59800  1.0000
  Mg  Mg13      1.0  0.31600  0.00092  0.60100  1.0000
  Mg  Mg14      1.0  0.66100  0.65700  0.66400  1.0000
  Mg  Mg15      1.0  0.27700  0.68100  0.68300  1.0000
  Mg  Mg16      1.0  0.68300  0.28900  0.68300  1.0000
  Mg  Mg17      1.0  0.40800  0.40200  0.72100  1.0000
  Ti  Ti1       1.0  0.82500  0.63600  0.00000  1.0000
