data_image0
_chemical_formula_structural       AlH6K3
_chemical_formula_sum              "Al1 H6 K3"
_cell_length_a       5.70148
_cell_length_b       5.70148
_cell_length_c       6.09023
_cell_angle_alpha    117.91
_cell_angle_beta     117.91
_cell_angle_gamma    90

_space_group_name_H-M_alt    "P 1"
_space_group_IT_number       1

loop_
  _space_group_symop_operation_xyz
  'x, y, z'

loop_
  _atom_site_type_symbol
  _atom_site_label
  _atom_site_symmetry_multiplicity
  _atom_site_fract_x
  _atom_site_fract_y
  _atom_site_fract_z
  _atom_site_occupancy
  Al  Al1       1.0  0.00000  0.00000  0.00000  1.0000
  H   H1        1.0  0.30100  0.00000  0.00000  1.0000
  H   H2        1.0  0.69900  0.00000  0.00000  1.0000
  H   H3        1.0  0.00000  0.30100  0.00000  1.0000
  H   H4        1.0  0.00000  0.69900  0.00000  1.0000
  H   H5        1.0  0.21000  0.21000  0.42000  1.0000
  H   H6        1.0  0.79000  0.79000  0.58000  1.0000
  K   K1        1.0  0.50000  0.50000  0.00000  1.0000
  K   K2        1.0  0.75000  0.25000  0.50000  1.0000
  K   K3        1.0  0.25000  0.75000  0.50000  1.0000
