data_image0
_chemical_formula_structural       CaH2O2
_chemical_formula_sum              "Ca1 H2 O2"
_cell_length_a       3.54632
_cell_length_b       3.5463
_cell_length_c       4.88683
_cell_angle_alpha    90
_cell_angle_beta     90.0032
_cell_angle_gamma    120

_space_group_name_H-M_alt    "P 1"
_space_group_IT_number       1

loop_
  _space_group_symop_operation_xyz
  'x, y, z'

loop_
  _atom_site_type_symbol
  _atom_site_label
  _atom_site_symmetry_multiplicity
  _atom_site_fract_x
  _atom_site_fract_y
  _atom_site_fract_z
  _atom_site_occupancy
  Ca  Ca1       1.0  0.00000  0.00000  0.00000  1.0000
  H   H1        1.0  0.33300  0.66700  0.43300  1.0000
  H   H2        1.0  0.66700  0.33300  0.56700  1.0000
  O   O1        1.0  0.33300  0.66700  0.23400  1.0000
  O   O2        1.0  0.66700  0.33300  0.76600  1.0000
