data_image0
_chemical_formula_structural       H4K2Mn2O10P2
_chemical_formula_sum              "H4 K2 Mn2 O10 P2"
_cell_length_a       5.6409
_cell_length_b       8.2195
_cell_length_c       4.83864
_cell_angle_alpha    90
_cell_angle_beta     90
_cell_angle_gamma    90

_space_group_name_H-M_alt    "P 1"
_space_group_IT_number       1

loop_
  _space_group_symop_operation_xyz
  'x, y, z'

loop_
  _atom_site_type_symbol
  _atom_site_label
  _atom_site_symmetry_multiplicity
  _atom_site_fract_x
  _atom_site_fract_y
  _atom_site_fract_z
  _atom_site_occupancy
  H   H1        1.0  0.36100  0.20700  0.07010  1.0000
  H   H2        1.0  0.63900  0.20700  0.07010  1.0000
  H   H3        1.0  0.13900  0.79300  0.57000  1.0000
  H   H4        1.0  0.86100  0.79300  0.57000  1.0000
  K   K1        1.0  0.00000  0.53900  0.13100  1.0000
  K   K2        1.0  0.50000  0.46100  0.63100  1.0000
  Mn  Mn1       1.0  0.00000  0.98000  0.01430  1.0000
  Mn  Mn2       1.0  0.50000  0.02010  0.51400  1.0000
  O   O1        1.0  0.50000  0.59200  0.13600  1.0000
  O   O2        1.0  0.50000  0.21900  0.19300  1.0000
  O   O3        1.0  0.27900  0.85800  0.22900  1.0000
  O   O4        1.0  0.72100  0.85800  0.22900  1.0000
  O   O5        1.0  0.00000  0.18800  0.27400  1.0000
  O   O6        1.0  0.00000  0.40800  0.63600  1.0000
  O   O7        1.0  0.00000  0.78100  0.69300  1.0000
  O   O8        1.0  0.22100  0.14200  0.72900  1.0000
  O   O9        1.0  0.77900  0.14200  0.72900  1.0000
  O   O10       1.0  0.50000  0.81200  0.77400  1.0000
  P   P1        1.0  0.50000  0.77500  0.08560  1.0000
  P   P2        1.0  0.00000  0.22500  0.58600  1.0000
