data_image0
_chemical_formula_structural       Al8K8Li31O32
_chemical_formula_sum              "Al8 K8 Li31 O32"
_cell_length_a       5.52469
_cell_length_b       15.0667
_cell_length_c       10.9732
_cell_angle_alpha    89.8701
_cell_angle_beta     109.693
_cell_angle_gamma    89.9632

_space_group_name_H-M_alt    "P 1"
_space_group_IT_number       1

loop_
  _space_group_symop_operation_xyz
  'x, y, z'

loop_
  _atom_site_type_symbol
  _atom_site_label
  _atom_site_symmetry_multiplicity
  _atom_site_fract_x
  _atom_site_fract_y
  _atom_site_fract_z
  _atom_site_occupancy
  Al  Al1       1.0  0.80700  0.77500  0.12100  1.0000
  Al  Al2       1.0  0.40000  0.48300  0.20100  1.0000
  Al  Al3       1.0  0.61400  0.98500  0.29600  1.0000
  Al  Al4       1.0  0.18700  0.27500  0.37700  1.0000
  Al  Al5       1.0  0.81400  0.72600  0.62300  1.0000
  Al  Al6       1.0  0.38600  0.01550  0.70400  1.0000
  Al  Al7       1.0  0.61300  0.51300  0.79400  1.0000
  Al  Al8       1.0  0.19000  0.22800  0.88000  1.0000
  K   K1        1.0  0.03510  0.06790  0.15800  1.0000
  K   K2        1.0  0.58800  0.20200  0.22500  1.0000
  K   K3        1.0  0.40900  0.70100  0.27500  1.0000
  K   K4        1.0  0.95100  0.56900  0.32000  1.0000
  K   K5        1.0  0.04770  0.43100  0.66600  1.0000
  K   K6        1.0  0.59100  0.29900  0.72300  1.0000
  K   K7        1.0  0.41100  0.79700  0.77400  1.0000
  K   K8        1.0  0.96500  0.93200  0.84100  1.0000
  Li  Li1       1.0  0.48300  0.34900  0.00000  1.0000
  Li  Li2       1.0  0.52200  0.65400  0.00410  1.0000
  Li  Li3       1.0  0.89100  0.23600  0.02070  1.0000
  Li  Li4       1.0  0.62600  0.92900  0.02160  1.0000
  Li  Li5       1.0  0.04170  0.57200  0.04680  1.0000
  Li  Li6       1.0  0.21000  0.34000  0.12800  1.0000
  Li  Li7       1.0  0.32700  0.88300  0.12900  1.0000
  Li  Li8       1.0  0.89800  0.38200  0.21900  1.0000
  Li  Li9       1.0  0.09010  0.87700  0.27300  1.0000
  Li  Li10      1.0  0.67500  0.38100  0.37200  1.0000
  Li  Li11      1.0  0.78700  0.83900  0.37500  1.0000
  Li  Li12      1.0  0.31000  0.98300  0.42300  1.0000
  Li  Li13      1.0  0.93700  0.07780  0.45700  1.0000
  Li  Li14      1.0  0.36800  0.43300  0.47400  1.0000
  Li  Li15      1.0  0.10500  0.73400  0.47900  1.0000
  Li  Li16      1.0  0.47600  0.15700  0.49500  1.0000
  Li  Li17      1.0  0.52300  0.84400  0.50500  1.0000
  Li  Li18      1.0  0.64300  0.57000  0.52000  1.0000
  Li  Li19      1.0  0.89600  0.26500  0.52100  1.0000
  Li  Li20      1.0  0.06340  0.92400  0.54300  1.0000
  Li  Li21      1.0  0.69100  0.01800  0.57700  1.0000
  Li  Li22      1.0  0.33200  0.61800  0.62700  1.0000
  Li  Li23      1.0  0.21400  0.16200  0.62700  1.0000
  Li  Li24      1.0  0.91100  0.12400  0.72800  1.0000
  Li  Li25      1.0  0.09440  0.62000  0.77600  1.0000
  Li  Li26      1.0  0.67100  0.11900  0.87100  1.0000
  Li  Li27      1.0  0.79000  0.65800  0.87500  1.0000
  Li  Li28      1.0  0.33100  0.51100  0.93800  1.0000
  Li  Li29      1.0  0.91300  0.42300  0.96600  1.0000
  Li  Li30      1.0  0.37200  0.07320  0.97800  1.0000
  Li  Li31      1.0  0.10700  0.76200  0.98000  1.0000
  O   O1        1.0  0.47000  0.79100  0.04770  1.0000
  O   O2        1.0  0.89700  0.68100  0.05070  1.0000
  O   O3        1.0  0.96400  0.86900  0.08070  1.0000
  O   O4        1.0  0.42600  0.57300  0.10400  1.0000
  O   O5        1.0  0.49400  0.00560  0.13100  1.0000
  O   O6        1.0  0.06640  0.46100  0.14400  1.0000
  O   O7        1.0  0.54800  0.38300  0.18000  1.0000
  O   O8        1.0  0.05940  0.25900  0.20700  1.0000
  O   O9        1.0  0.93300  0.76000  0.29200  1.0000
  O   O10       1.0  0.44900  0.88900  0.32500  1.0000
  O   O11       1.0  0.95100  0.96500  0.36000  1.0000
  O   O12       1.0  0.52000  0.50500  0.36800  1.0000
  O   O13       1.0  0.56000  0.06680  0.39900  1.0000
  O   O14       1.0  0.03820  0.36900  0.42000  1.0000
  O   O15       1.0  0.52700  0.28800  0.45000  1.0000
  O   O16       1.0  0.09830  0.18200  0.45000  1.0000
  O   O17       1.0  0.47500  0.71300  0.54900  1.0000
  O   O18       1.0  0.90400  0.81900  0.55200  1.0000
  O   O19       1.0  0.96900  0.63300  0.58100  1.0000
  O   O20       1.0  0.44200  0.93400  0.60200  1.0000
  O   O21       1.0  0.50100  0.49800  0.62700  1.0000
  O   O22       1.0  0.05020  0.03690  0.64000  1.0000
  O   O23       1.0  0.55100  0.11100  0.67500  1.0000
  O   O24       1.0  0.06500  0.24100  0.70800  1.0000
  O   O25       1.0  0.93700  0.73900  0.79400  1.0000
  O   O26       1.0  0.45200  0.61000  0.82500  1.0000
  O   O27       1.0  0.94900  0.53400  0.86300  1.0000
  O   O28       1.0  0.50500  0.99600  0.87000  1.0000
  O   O29       1.0  0.53800  0.42600  0.88000  1.0000
  O   O30       1.0  0.03450  0.13400  0.92000  1.0000
  O   O31       1.0  0.09420  0.32000  0.95100  1.0000
  O   O32       1.0  0.52700  0.21000  0.95200  1.0000
