data_image0
_chemical_formula_structural       B5Ca2ClH2O10
_chemical_formula_sum              "B5 Ca2 Cl1 H2 O10"
_cell_length_a       6.41155
_cell_length_b       6.53562
_cell_length_c       6.26007
_cell_angle_alpha    61.5101
_cell_angle_beta     118.622
_cell_angle_gamma    106.018

_space_group_name_H-M_alt    "P 1"
_space_group_IT_number       1

loop_
  _space_group_symop_operation_xyz
  'x, y, z'

loop_
  _atom_site_type_symbol
  _atom_site_label
  _atom_site_symmetry_multiplicity
  _atom_site_fract_x
  _atom_site_fract_y
  _atom_site_fract_z
  _atom_site_occupancy
  B   B1        1.0  0.55200  0.02300  0.07080  1.0000
  B   B2        1.0  0.47100  0.87000  0.46900  1.0000
  B   B3        1.0  0.88300  0.00400  0.48400  1.0000
  B   B4        1.0  0.33200  0.09220  0.60000  1.0000
  B   B5        1.0  0.44900  0.42200  0.71400  1.0000
  Ca  Ca1       1.0  0.00000  0.00099  0.99700  1.0000
  Ca  Ca2       1.0  0.45200  0.55000  0.10700  1.0000
  Cl  Cl1       1.0  0.97800  0.47600  0.80900  1.0000
  H   H1        1.0  0.93300  0.48600  0.17900  1.0000
  H   H2        1.0  0.97500  0.53600  0.42300  1.0000
  O   O1        1.0  0.41800  0.84900  0.22400  1.0000
  O   O2        1.0  0.88800  0.58400  0.22800  1.0000
  O   O3        1.0  0.81400  0.00911  0.23900  1.0000
  O   O4        1.0  0.30400  0.02980  0.39700  1.0000
  O   O5        1.0  0.39800  0.35200  0.51800  1.0000
  O   O6        1.0  0.72100  0.96300  0.58400  1.0000
  O   O7        1.0  0.11000  0.05470  0.63900  1.0000
  O   O8        1.0  0.44200  0.64300  0.67400  1.0000
  O   O9        1.0  0.51400  0.96500  0.86000  1.0000
  O   O10       1.0  0.48700  0.26300  0.97300  1.0000
