data_image0
_chemical_formula_structural       Al11Mg17W
_chemical_formula_sum              "Al11 Mg17 W1"
_cell_length_a       9.09435
_cell_length_b       9.04565
_cell_length_c       9.09095
_cell_angle_alpha    109.473
_cell_angle_beta     109.689
_cell_angle_gamma    109.158

_space_group_name_H-M_alt    "P 1"
_space_group_IT_number       1

loop_
  _space_group_symop_operation_xyz
  'x, y, z'

loop_
  _atom_site_type_symbol
  _atom_site_label
  _atom_site_symmetry_multiplicity
  _atom_site_fract_x
  _atom_site_fract_y
  _atom_site_fract_z
  _atom_site_occupancy
  Al  Al1       1.0  0.64000  0.81000  0.00000  1.0000
  Al  Al2       1.0  0.36300  0.36800  0.18100  1.0000
  Al  Al3       1.0  0.17800  0.81400  0.18400  1.0000
  Al  Al4       1.0  0.81300  0.18200  0.18600  1.0000
  Al  Al5       1.0  0.37000  0.17900  0.36400  1.0000
  Al  Al6       1.0  0.17800  0.36300  0.36600  1.0000
  Al  Al7       1.0  0.81200  0.99700  0.63400  1.0000
  Al  Al8       1.0  0.00552  0.81500  0.63600  1.0000
  Al  Al9       1.0  0.62700  0.99600  0.81400  1.0000
  Al  Al10      1.0  0.99400  0.63000  0.81600  1.0000
  Al  Al11      1.0  0.18200  0.18700  0.81900  1.0000
  Mg  Mg1       1.0  0.99000  0.35700  0.00000  1.0000
  Mg  Mg2       1.0  0.61200  0.32400  0.00000  1.0000
  Mg  Mg3       1.0  0.99500  0.99100  0.00000  1.0000
  Mg  Mg4       1.0  0.35400  0.00591  0.00000  1.0000
  Mg  Mg5       1.0  0.31700  0.60500  0.00000  1.0000
  Mg  Mg6       1.0  0.68500  0.68000  0.27000  1.0000
  Mg  Mg7       1.0  0.99600  0.60600  0.31300  1.0000
  Mg  Mg8       1.0  0.59400  0.99900  0.31900  1.0000
  Mg  Mg9       1.0  0.99600  0.98800  0.33300  1.0000
  Mg  Mg10      1.0  0.71500  0.39800  0.39800  1.0000
  Mg  Mg11      1.0  0.40300  0.71500  0.40200  1.0000
  Mg  Mg12      1.0  0.00167  0.31300  0.59800  1.0000
  Mg  Mg13      1.0  0.31700  0.00064  0.60200  1.0000
  Mg  Mg14      1.0  0.66300  0.65500  0.66700  1.0000
  Mg  Mg15      1.0  0.27600  0.68100  0.68100  1.0000
  Mg  Mg16      1.0  0.68300  0.29300  0.68700  1.0000
  Mg  Mg17      1.0  0.41500  0.40900  0.73000  1.0000
  W   W1        1.0  0.82300  0.64000  0.00000  1.0000
