data_image0
_chemical_formula_structural       H4K2Ni2O10P2
_chemical_formula_sum              "H4 K2 Ni2 O10 P2"
_cell_length_a       5.49624
_cell_length_b       8.09683
_cell_length_c       4.69051
_cell_angle_alpha    90
_cell_angle_beta     90
_cell_angle_gamma    90

_space_group_name_H-M_alt    "P 1"
_space_group_IT_number       1

loop_
  _space_group_symop_operation_xyz
  'x, y, z'

loop_
  _atom_site_type_symbol
  _atom_site_label
  _atom_site_symmetry_multiplicity
  _atom_site_fract_x
  _atom_site_fract_y
  _atom_site_fract_z
  _atom_site_occupancy
  H   H1        1.0  0.35600  0.19600  0.08630  1.0000
  H   H2        1.0  0.64400  0.19600  0.08630  1.0000
  H   H3        1.0  0.14400  0.80400  0.58600  1.0000
  H   H4        1.0  0.85600  0.80400  0.58600  1.0000
  K   K1        1.0  0.00000  0.54400  0.13700  1.0000
  K   K2        1.0  0.50000  0.45600  0.63700  1.0000
  Ni  Ni1       1.0  0.00000  0.98300  0.00085  1.0000
  Ni  Ni2       1.0  0.50000  0.01670  0.50100  1.0000
  O   O1        1.0  0.50000  0.60200  0.14100  1.0000
  O   O2        1.0  0.50000  0.21300  0.21000  1.0000
  O   O3        1.0  0.27500  0.87500  0.22300  1.0000
  O   O4        1.0  0.72500  0.87500  0.22300  1.0000
  O   O5        1.0  0.00000  0.18500  0.25200  1.0000
  O   O6        1.0  0.00000  0.39800  0.64100  1.0000
  O   O7        1.0  0.00000  0.78700  0.71000  1.0000
  O   O8        1.0  0.22500  0.12500  0.72300  1.0000
  O   O9        1.0  0.77500  0.12500  0.72300  1.0000
  O   O10       1.0  0.50000  0.81500  0.75200  1.0000
  P   P1        1.0  0.50000  0.78700  0.07640  1.0000
  P   P2        1.0  0.00000  0.21300  0.57600  1.0000
