data_image0
_chemical_formula_structural       B8Ca4H4
_chemical_formula_sum              "B8 Ca4 H4"
_cell_length_a       16.8704
_cell_length_b       3.15194
_cell_length_c       3.41986
_cell_angle_alpha    90
_cell_angle_beta     90
_cell_angle_gamma    90

_space_group_name_H-M_alt    "P 1"
_space_group_IT_number       1

loop_
  _space_group_symop_operation_xyz
  'x, y, z'

loop_
  _atom_site_type_symbol
  _atom_site_label
  _atom_site_symmetry_multiplicity
  _atom_site_fract_x
  _atom_site_fract_y
  _atom_site_fract_z
  _atom_site_occupancy
  B   B1        1.0  0.25100  0.75000  0.01440  1.0000
  B   B2        1.0  0.51300  0.75000  0.05730  1.0000
  B   B3        1.0  0.01260  0.75000  0.44300  1.0000
  B   B4        1.0  0.75100  0.75000  0.48600  1.0000
  B   B5        1.0  0.24900  0.25000  0.51400  1.0000
  B   B6        1.0  0.98700  0.25000  0.55700  1.0000
  B   B7        1.0  0.48700  0.25000  0.94300  1.0000
  B   B8        1.0  0.74900  0.25000  0.98600  1.0000
  Ca  Ca1       1.0  0.11600  0.25000  0.02590  1.0000
  Ca  Ca2       1.0  0.61600  0.25000  0.47400  1.0000
  Ca  Ca3       1.0  0.38400  0.75000  0.52600  1.0000
  Ca  Ca4       1.0  0.88400  0.75000  0.97400  1.0000
  H   H1        1.0  0.03660  0.75000  0.10400  1.0000
  H   H2        1.0  0.53700  0.75000  0.39600  1.0000
  H   H3        1.0  0.46300  0.25000  0.60400  1.0000
  H   H4        1.0  0.96300  0.25000  0.89600  1.0000
