data_image0
_chemical_formula_structural       MoSe2
_chemical_formula_sum              "Mo1 Se2"
_cell_length_a       3.33045
_cell_length_b       3.33038
_cell_length_c       6.87991
_cell_angle_alpha    104.01
_cell_angle_beta     90
_cell_angle_gamma    120.001

_space_group_name_H-M_alt    "P 1"
_space_group_IT_number       1

loop_
  _space_group_symop_operation_xyz
  'x, y, z'

loop_
  _atom_site_type_symbol
  _atom_site_label
  _atom_site_symmetry_multiplicity
  _atom_site_fract_x
  _atom_site_fract_y
  _atom_site_fract_z
  _atom_site_occupancy
  Mo  Mo1       1.0  0.66700  0.33400  0.00030  1.0000
  Se  Se1       1.0  0.41800  0.83500  0.25300  1.0000
  Se  Se2       1.0  0.24900  0.49800  0.74800  1.0000
