data_image0
_chemical_formula_structural       Ge4H16
_chemical_formula_sum              "Ge4 H16"
_cell_length_a       7.0614
_cell_length_b       7.69005
_cell_length_c       4.3282
_cell_angle_alpha    90
_cell_angle_beta     90
_cell_angle_gamma    90

_space_group_name_H-M_alt    "P 1"
_space_group_IT_number       1

loop_
  _space_group_symop_operation_xyz
  'x, y, z'

loop_
  _atom_site_type_symbol
  _atom_site_label
  _atom_site_symmetry_multiplicity
  _atom_site_fract_x
  _atom_site_fract_y
  _atom_site_fract_z
  _atom_site_occupancy
  Ge  Ge1       1.0  0.50900  0.85600  0.15100  1.0000
  Ge  Ge2       1.0  0.49100  0.35600  0.34900  1.0000
  Ge  Ge3       1.0  0.99100  0.14400  0.65100  1.0000
  Ge  Ge4       1.0  0.00898  0.64400  0.84900  1.0000
  H   H1        1.0  0.04260  0.80700  0.04440  1.0000
  H   H2        1.0  0.94300  0.49700  0.06390  1.0000
  H   H3        1.0  0.64300  0.32000  0.10500  1.0000
  H   H4        1.0  0.30500  0.40800  0.19000  1.0000
  H   H5        1.0  0.69500  0.90800  0.31000  1.0000
  H   H6        1.0  0.35700  0.82000  0.39500  1.0000
  H   H7        1.0  0.05690  0.99700  0.43600  1.0000
  H   H8        1.0  0.95700  0.30700  0.45600  1.0000
  H   H9        1.0  0.45700  0.19300  0.54400  1.0000
  H   H10       1.0  0.55700  0.50300  0.56400  1.0000
  H   H11       1.0  0.85700  0.68000  0.60500  1.0000
  H   H12       1.0  0.19500  0.59200  0.69000  1.0000
  H   H13       1.0  0.80500  0.09200  0.81000  1.0000
  H   H14       1.0  0.14300  0.18000  0.89500  1.0000
  H   H15       1.0  0.44300  0.00304  0.93600  1.0000
  H   H16       1.0  0.54300  0.69300  0.95600  1.0000
