data_image0
_chemical_formula_structural       As2K2Li4
_chemical_formula_sum              "As2 K2 Li4"
_cell_length_a       4.43078
_cell_length_b       6.66669
_cell_length_c       6.19743
_cell_angle_alpha    90
_cell_angle_beta     90
_cell_angle_gamma    90

_space_group_name_H-M_alt    "P 1"
_space_group_IT_number       1

loop_
  _space_group_symop_operation_xyz
  'x, y, z'

loop_
  _atom_site_type_symbol
  _atom_site_label
  _atom_site_symmetry_multiplicity
  _atom_site_fract_x
  _atom_site_fract_y
  _atom_site_fract_z
  _atom_site_occupancy
  As  As1       1.0  0.25000  0.75000  0.33700  1.0000
  As  As2       1.0  0.75000  0.25000  0.66300  1.0000
  K   K1        1.0  0.25000  0.25000  0.10200  1.0000
  K   K2        1.0  0.75000  0.75000  0.89800  1.0000
  Li  Li1       1.0  0.75000  0.55400  0.40100  1.0000
  Li  Li2       1.0  0.75000  0.94600  0.40100  1.0000
  Li  Li3       1.0  0.25000  0.05390  0.59900  1.0000
  Li  Li4       1.0  0.25000  0.44600  0.59900  1.0000
