data_image0
_chemical_formula_structural       H4I4O12
_chemical_formula_sum              "H4 I4 O12"
_cell_length_a       5.35274
_cell_length_b       5.71268
_cell_length_c       7.51023
_cell_angle_alpha    90
_cell_angle_beta     90
_cell_angle_gamma    90

_space_group_name_H-M_alt    "P 1"
_space_group_IT_number       1

loop_
  _space_group_symop_operation_xyz
  'x, y, z'

loop_
  _atom_site_type_symbol
  _atom_site_label
  _atom_site_symmetry_multiplicity
  _atom_site_fract_x
  _atom_site_fract_y
  _atom_site_fract_z
  _atom_site_occupancy
  H   H1        1.0  0.23800  0.32800  0.13300  1.0000
  H   H2        1.0  0.76200  0.82800  0.36700  1.0000
  H   H3        1.0  0.26200  0.67200  0.63300  1.0000
  H   H4        1.0  0.73800  0.17200  0.86700  1.0000
  I   I1        1.0  0.21500  0.90300  0.16300  1.0000
  I   I2        1.0  0.78500  0.40300  0.33700  1.0000
  I   I3        1.0  0.28500  0.09660  0.66300  1.0000
  I   I4        1.0  0.71500  0.59700  0.83700  1.0000
  O   O1        1.0  0.59300  0.66600  0.05710  1.0000
  O   O2        1.0  0.34300  0.19800  0.07870  1.0000
  O   O3        1.0  0.07790  0.52400  0.24000  1.0000
  O   O4        1.0  0.92200  0.02440  0.26000  1.0000
  O   O5        1.0  0.65700  0.69800  0.42100  1.0000
  O   O6        1.0  0.40700  0.16600  0.44300  1.0000
  O   O7        1.0  0.90700  0.33400  0.55700  1.0000
  O   O8        1.0  0.15700  0.80200  0.57900  1.0000
  O   O9        1.0  0.42200  0.47600  0.74000  1.0000
  O   O10       1.0  0.57800  0.97600  0.76000  1.0000
  O   O11       1.0  0.84300  0.30200  0.92100  1.0000
  O   O12       1.0  0.09330  0.83400  0.94300  1.0000
