data_image0
_chemical_formula_structural       Al11Mg17Nd
_chemical_formula_sum              "Al11 Mg17 Nd1"
_cell_length_a       9.22974
_cell_length_b       9.79403
_cell_length_c       9.03777
_cell_angle_alpha    109.442
_cell_angle_beta     106.789
_cell_angle_gamma    114.16

_space_group_name_H-M_alt    "P 1"
_space_group_IT_number       1

loop_
  _space_group_symop_operation_xyz
  'x, y, z'

loop_
  _atom_site_type_symbol
  _atom_site_label
  _atom_site_symmetry_multiplicity
  _atom_site_fract_x
  _atom_site_fract_y
  _atom_site_fract_z
  _atom_site_occupancy
  Al  Al1       1.0  0.64600  0.86200  1.00000  1.0000
  Al  Al2       1.0  0.22700  0.78600  0.18000  1.0000
  Al  Al3       1.0  0.36500  0.36000  0.18700  1.0000
  Al  Al4       1.0  0.80500  0.21200  0.18900  1.0000
  Al  Al5       1.0  0.31800  0.12300  0.32400  1.0000
  Al  Al6       1.0  0.17500  0.37100  0.36600  1.0000
  Al  Al7       1.0  0.80900  0.00454  0.63400  1.0000
  Al  Al8       1.0  0.99500  0.79900  0.67600  1.0000
  Al  Al9       1.0  0.61600  0.02280  0.81100  1.0000
  Al  Al10      1.0  0.17800  0.17200  0.81300  1.0000
  Al  Al11      1.0  0.04650  0.60600  0.82000  1.0000
  Mg  Mg1       1.0  0.58900  0.32500  0.00000  1.0000
  Mg  Mg2       1.0  0.00686  0.37200  0.00000  1.0000
  Mg  Mg3       1.0  0.36900  0.58100  0.00000  1.0000
  Mg  Mg4       1.0  0.98800  0.04190  1.00000  1.0000
  Mg  Mg5       1.0  0.35300  0.99800  0.00000  1.0000
  Mg  Mg6       1.0  0.60600  1.00000  0.31700  1.0000
  Mg  Mg7       1.0  0.71400  0.68800  0.32300  1.0000
  Mg  Mg8       1.0  0.99500  0.59200  0.32600  1.0000
  Mg  Mg9       1.0  0.98500  0.02450  0.35300  1.0000
  Mg  Mg10      1.0  0.40300  0.70900  0.39700  1.0000
  Mg  Mg11      1.0  0.70300  0.40000  0.42100  1.0000
  Mg  Mg12      1.0  0.28200  0.97800  0.57900  1.0000
  Mg  Mg13      1.0  0.00592  0.31200  0.60300  1.0000
  Mg  Mg14      1.0  0.63200  0.67100  0.64700  1.0000
  Mg  Mg15      1.0  0.66900  0.26700  0.67400  1.0000
  Mg  Mg16      1.0  0.39100  0.36500  0.67700  1.0000
  Mg  Mg17      1.0  0.29000  0.68300  0.68300  1.0000
  Nd  Nd1       1.0  0.83900  0.67600  1.00000  1.0000
