data_image0
_chemical_formula_structural       F10H4N2Te2
_chemical_formula_sum              "F10 H4 N2 Te2"
_cell_length_a       4.79842
_cell_length_b       8.33831
_cell_length_c       4.85286
_cell_angle_alpha    90
_cell_angle_beta     111.287
_cell_angle_gamma    90

_space_group_name_H-M_alt    "P 1"
_space_group_IT_number       1

loop_
  _space_group_symop_operation_xyz
  'x, y, z'

loop_
  _atom_site_type_symbol
  _atom_site_label
  _atom_site_symmetry_multiplicity
  _atom_site_fract_x
  _atom_site_fract_y
  _atom_site_fract_z
  _atom_site_occupancy
  F   F1        1.0  0.27300  0.86300  0.00767  1.0000
  F   F2        1.0  0.26200  0.51400  0.01070  1.0000
  F   F3        1.0  0.75700  0.70900  0.01230  1.0000
  F   F4        1.0  0.25900  0.35600  0.46900  1.0000
  F   F5        1.0  0.74400  0.52400  0.47800  1.0000
  F   F6        1.0  0.25600  0.02360  0.52200  1.0000
  F   F7        1.0  0.74100  0.85600  0.53100  1.0000
  F   F8        1.0  0.24300  0.20900  0.98800  1.0000
  F   F9        1.0  0.73800  0.01430  0.98900  1.0000
  F   F10       1.0  0.72700  0.36300  0.99200  1.0000
  H   H1        1.0  0.18600  0.72300  0.29700  1.0000
  H   H2        1.0  0.93200  0.16700  0.43500  1.0000
  H   H3        1.0  0.06810  0.66700  0.56500  1.0000
  H   H4        1.0  0.81400  0.22300  0.70300  1.0000
  N   N1        1.0  0.74500  0.18300  0.48900  1.0000
  N   N2        1.0  0.25500  0.68300  0.51100  1.0000
  Te  Te1       1.0  0.50900  0.35500  0.24800  1.0000
  Te  Te2       1.0  0.49100  0.85500  0.75200  1.0000
