data_image0
_chemical_formula_structural       Li12Ni2O8
_chemical_formula_sum              "Li12 Ni2 O8"
_cell_length_a       6.46737
_cell_length_b       6.5752
_cell_length_c       4.61757
_cell_angle_alpha    90
_cell_angle_beta     90
_cell_angle_gamma    90

_space_group_name_H-M_alt    "P 1"
_space_group_IT_number       1

loop_
  _space_group_symop_operation_xyz
  'x, y, z'

loop_
  _atom_site_type_symbol
  _atom_site_label
  _atom_site_symmetry_multiplicity
  _atom_site_fract_x
  _atom_site_fract_y
  _atom_site_fract_z
  _atom_site_occupancy
  Li  Li1       1.0  0.25000  0.25000  0.20000  1.0000
  Li  Li2       1.0  0.96800  0.03130  0.24800  1.0000
  Li  Li3       1.0  0.96800  0.46900  0.24800  1.0000
  Li  Li4       1.0  0.53200  0.03130  0.24800  1.0000
  Li  Li5       1.0  0.53200  0.46900  0.24800  1.0000
  Li  Li6       1.0  0.75000  0.75000  0.30000  1.0000
  Li  Li7       1.0  0.25000  0.25000  0.70000  1.0000
  Li  Li8       1.0  0.46800  0.53100  0.75200  1.0000
  Li  Li9       1.0  0.46800  0.96900  0.75200  1.0000
  Li  Li10      1.0  0.03180  0.53100  0.75200  1.0000
  Li  Li11      1.0  0.03180  0.96900  0.75200  1.0000
  Li  Li12      1.0  0.75000  0.75000  0.80000  1.0000
  Ni  Ni1       1.0  0.25000  0.75000  0.26300  1.0000
  Ni  Ni2       1.0  0.75000  0.25000  0.73700  1.0000
  O   O1        1.0  0.99000  0.75000  0.03860  1.0000
  O   O2        1.0  0.51000  0.75000  0.03860  1.0000
  O   O3        1.0  0.25000  0.01560  0.46000  1.0000
  O   O4        1.0  0.25000  0.48400  0.46000  1.0000
  O   O5        1.0  0.75000  0.51600  0.54000  1.0000
  O   O6        1.0  0.75000  0.98400  0.54000  1.0000
  O   O7        1.0  0.49000  0.25000  0.96100  1.0000
  O   O8        1.0  0.00993  0.25000  0.96100  1.0000
