data_image0
_chemical_formula_structural       Al11Mg17Sr
_chemical_formula_sum              "Al11 Mg17 Sr1"
_cell_length_a       9.47188
_cell_length_b       9.95805
_cell_length_c       8.98709
_cell_angle_alpha    112.615
_cell_angle_beta     110.414
_cell_angle_gamma    108.76

_space_group_name_H-M_alt    "P 1"
_space_group_IT_number       1

loop_
  _space_group_symop_operation_xyz
  'x, y, z'

loop_
  _atom_site_type_symbol
  _atom_site_label
  _atom_site_symmetry_multiplicity
  _atom_site_fract_x
  _atom_site_fract_y
  _atom_site_fract_z
  _atom_site_occupancy
  Al  Al1       1.0  0.67600  0.81600  0.00000  1.0000
  Al  Al2       1.0  0.36700  0.38200  0.19200  1.0000
  Al  Al3       1.0  0.81700  0.17800  0.19300  1.0000
  Al  Al4       1.0  0.27300  0.91000  0.23300  1.0000
  Al  Al5       1.0  0.17700  0.37100  0.38000  1.0000
  Al  Al6       1.0  0.37400  0.23400  0.39400  1.0000
  Al  Al7       1.0  0.98000  0.84000  0.60600  1.0000
  Al  Al8       1.0  0.79800  0.99200  0.62000  1.0000
  Al  Al9       1.0  0.03980  0.67600  0.76700  1.0000
  Al  Al10      1.0  0.62400  0.98500  0.80700  1.0000
  Al  Al11      1.0  0.17500  0.18900  0.80800  1.0000
  Mg  Mg1       1.0  0.28400  0.60800  0.00000  1.0000
  Mg  Mg2       1.0  0.65600  0.66400  0.24600  1.0000
  Mg  Mg3       1.0  0.60900  0.97800  0.28100  1.0000
  Mg  Mg4       1.0  0.98900  0.55600  0.36600  1.0000
  Mg  Mg5       1.0  0.01610  0.03090  0.37300  1.0000
  Mg  Mg6       1.0  0.36100  0.70400  0.38200  1.0000
  Mg  Mg7       1.0  0.69400  0.37600  0.40700  1.0000
  Mg  Mg8       1.0  0.28700  0.96900  0.59300  1.0000
  Mg  Mg9       1.0  0.97900  0.32200  0.61800  1.0000
  Mg  Mg10      1.0  0.64300  0.65800  0.62700  1.0000
  Mg  Mg11      1.0  0.62300  0.19000  0.63400  1.0000
  Mg  Mg12      1.0  0.32800  0.69700  0.71900  1.0000
  Mg  Mg13      1.0  0.41000  0.41700  0.75400  1.0000
  Mg  Mg14      1.0  0.60200  0.29900  0.00000  1.0000
  Mg  Mg15      1.0  0.00793  0.00113  0.00000  1.0000
  Mg  Mg16      1.0  0.34600  0.02910  0.00000  1.0000
  Mg  Mg17      1.0  0.98500  0.31400  0.00000  1.0000
  Sr  Sr1       1.0  0.87900  0.61300  0.00000  1.0000
