data_image0
_chemical_formula_structural       Al11FMg17
_chemical_formula_sum              "Al11 F1 Mg17"
_cell_length_a       9.16715
_cell_length_b       9.13439
_cell_length_c       9.00333
_cell_angle_alpha    109.668
_cell_angle_beta     109.817
_cell_angle_gamma    109.547

_space_group_name_H-M_alt    "P 1"
_space_group_IT_number       1

loop_
  _space_group_symop_operation_xyz
  'x, y, z'

loop_
  _atom_site_type_symbol
  _atom_site_label
  _atom_site_symmetry_multiplicity
  _atom_site_fract_x
  _atom_site_fract_y
  _atom_site_fract_z
  _atom_site_occupancy
  Al  Al1       1.0  0.64400  0.80500  0.00058  1.0000
  Al  Al2       1.0  0.80900  0.17800  0.18300  1.0000
  Al  Al3       1.0  0.37000  0.37100  0.18400  1.0000
  Al  Al4       1.0  0.20000  0.84300  0.18700  1.0000
  Al  Al5       1.0  0.17100  0.36500  0.36000  1.0000
  Al  Al6       1.0  0.38000  0.20000  0.37800  1.0000
  Al  Al7       1.0  0.00171  0.82100  0.62100  1.0000
  Al  Al8       1.0  0.81100  0.00501  0.64000  1.0000
  Al  Al9       1.0  0.01280  0.65600  0.81300  1.0000
  Al  Al10      1.0  0.18700  0.18600  0.81600  1.0000
  Al  Al11      1.0  0.62600  0.99500  0.81700  1.0000
  F   F1        1.0  0.82200  0.45000  0.00000  1.0000
  Mg  Mg1       1.0  0.58200  0.32000  0.00010  1.0000
  Mg  Mg2       1.0  0.31800  0.61500  0.00051  1.0000
  Mg  Mg3       1.0  0.98800  0.61900  0.28500  1.0000
  Mg  Mg4       1.0  0.67400  0.69500  0.29000  1.0000
  Mg  Mg5       1.0  0.59800  0.01160  0.32700  1.0000
  Mg  Mg6       1.0  0.00000  0.00162  0.34700  1.0000
  Mg  Mg7       1.0  0.38500  0.71100  0.39200  1.0000
  Mg  Mg8       1.0  0.72600  0.41200  0.40100  1.0000
  Mg  Mg9       1.0  0.32600  0.01130  0.59900  1.0000
  Mg  Mg10      1.0  0.99400  0.31900  0.60900  1.0000
  Mg  Mg11      1.0  0.65400  0.65600  0.65400  1.0000
  Mg  Mg12      1.0  0.27100  0.68400  0.67300  1.0000
  Mg  Mg13      1.0  0.38400  0.40600  0.71100  1.0000
  Mg  Mg14      1.0  0.70300  0.33300  0.71400  1.0000
  Mg  Mg15      1.0  0.35400  0.00718  0.99900  1.0000
  Mg  Mg16      1.0  0.00039  0.99200  0.99900  1.0000
  Mg  Mg17      1.0  0.00941  0.33100  0.00000  1.0000
