data_image0
_chemical_formula_structural       Li4Na4Se4
_chemical_formula_sum              "Li4 Na4 Se4"
_cell_length_a       7.13411
_cell_length_b       4.23625
_cell_length_c       7.67968
_cell_angle_alpha    90
_cell_angle_beta     90
_cell_angle_gamma    90

_space_group_name_H-M_alt    "P 1"
_space_group_IT_number       1

loop_
  _space_group_symop_operation_xyz
  'x, y, z'

loop_
  _atom_site_type_symbol
  _atom_site_label
  _atom_site_symmetry_multiplicity
  _atom_site_fract_x
  _atom_site_fract_y
  _atom_site_fract_z
  _atom_site_occupancy
  Li  Li1       1.0  0.64400  0.25000  0.07190  1.0000
  Li  Li2       1.0  0.14400  0.25000  0.42800  1.0000
  Li  Li3       1.0  0.85600  0.75000  0.57200  1.0000
  Li  Li4       1.0  0.35600  0.75000  0.92800  1.0000
  Na  Na1       1.0  0.98600  0.75000  0.18500  1.0000
  Na  Na2       1.0  0.48600  0.75000  0.31500  1.0000
  Na  Na3       1.0  0.51400  0.25000  0.68500  1.0000
  Na  Na4       1.0  0.01370  0.25000  0.81500  1.0000
  Se  Se1       1.0  0.27800  0.25000  0.10700  1.0000
  Se  Se2       1.0  0.77800  0.25000  0.39300  1.0000
  Se  Se3       1.0  0.22200  0.75000  0.60700  1.0000
  Se  Se4       1.0  0.72200  0.75000  0.89300  1.0000
