data_image0
_chemical_formula_structural       Br3Li7O2
_chemical_formula_sum              "Br3 Li7 O2"
_cell_length_a       3.96626
_cell_length_b       3.96626
_cell_length_c       11.0865
_cell_angle_alpha    100.304
_cell_angle_beta     100.304
_cell_angle_gamma    90

_space_group_name_H-M_alt    "P 1"
_space_group_IT_number       1

loop_
  _space_group_symop_operation_xyz
  'x, y, z'

loop_
  _atom_site_type_symbol
  _atom_site_label
  _atom_site_symmetry_multiplicity
  _atom_site_fract_x
  _atom_site_fract_y
  _atom_site_fract_z
  _atom_site_occupancy
  Br  Br1       1.0  0.50000  0.50000  0.00000  1.0000
  Br  Br2       1.0  0.69000  0.69000  0.38000  1.0000
  Br  Br3       1.0  0.31000  0.31000  0.62000  1.0000
  Li  Li1       1.0  0.00000  0.00000  0.00000  1.0000
  Li  Li2       1.0  0.59400  0.09380  0.18800  1.0000
  Li  Li3       1.0  0.09380  0.59400  0.18800  1.0000
  Li  Li4       1.0  0.18200  0.18200  0.36500  1.0000
  Li  Li5       1.0  0.81800  0.81800  0.63500  1.0000
  Li  Li6       1.0  0.90600  0.40600  0.81200  1.0000
  Li  Li7       1.0  0.40600  0.90600  0.81200  1.0000
  O   O1        1.0  0.09280  0.09280  0.18600  1.0000
  O   O2        1.0  0.90700  0.90700  0.81400  1.0000
