data_image0
_chemical_formula_structural       Al11LaMg17
_chemical_formula_sum              "Al11 La1 Mg17"
_cell_length_a       9.1132
_cell_length_b       9.70899
_cell_length_c       9.18153
_cell_angle_alpha    111.367
_cell_angle_beta     108.732
_cell_angle_gamma    109.344

_space_group_name_H-M_alt    "P 1"
_space_group_IT_number       1

loop_
  _space_group_symop_operation_xyz
  'x, y, z'

loop_
  _atom_site_type_symbol
  _atom_site_label
  _atom_site_symmetry_multiplicity
  _atom_site_fract_x
  _atom_site_fract_y
  _atom_site_fract_z
  _atom_site_occupancy
  Al  Al1       1.0  0.64700  0.85000  0.00000  1.0000
  Al  Al2       1.0  0.24000  0.83400  0.18500  1.0000
  Al  Al3       1.0  0.36500  0.36700  0.18600  1.0000
  Al  Al4       1.0  0.80300  0.19800  0.19200  1.0000
  Al  Al5       1.0  0.34800  0.16700  0.34500  1.0000
  Al  Al6       1.0  0.17000  0.36000  0.35900  1.0000
  Al  Al7       1.0  0.81100  0.00105  0.64100  1.0000
  Al  Al8       1.0  0.00334  0.82300  0.65500  1.0000
  Al  Al9       1.0  0.61000  0.00558  0.80800  1.0000
  Al  Al10      1.0  0.17900  0.18200  0.81400  1.0000
  Al  Al11      1.0  0.05530  0.64900  0.81500  1.0000
  La  La1       1.0  0.83200  0.64000  0.00000  1.0000
  Mg  Mg1       1.0  0.99800  0.01810  0.00000  1.0000
  Mg  Mg2       1.0  0.35300  0.59100  0.00000  1.0000
  Mg  Mg3       1.0  0.36700  0.00700  0.00000  1.0000
  Mg  Mg4       1.0  0.00031  0.35200  0.00000  1.0000
  Mg  Mg5       1.0  0.58200  0.31500  0.00000  1.0000
  Mg  Mg6       1.0  0.69900  0.68600  0.31200  1.0000
  Mg  Mg7       1.0  0.61500  0.99300  0.31700  1.0000
  Mg  Mg8       1.0  0.98600  0.57400  0.33400  1.0000
  Mg  Mg9       1.0  0.99300  0.02600  0.35100  1.0000
  Mg  Mg10      1.0  0.38100  0.70300  0.38300  1.0000
  Mg  Mg11      1.0  0.71100  0.40400  0.43300  1.0000
  Mg  Mg12      1.0  0.27800  0.97100  0.56700  1.0000
  Mg  Mg13      1.0  0.99800  0.32000  0.61700  1.0000
  Mg  Mg14      1.0  0.64200  0.67500  0.64900  1.0000
  Mg  Mg15      1.0  0.65100  0.23900  0.66600  1.0000
  Mg  Mg16      1.0  0.29700  0.67600  0.68300  1.0000
  Mg  Mg17      1.0  0.38600  0.37400  0.68800  1.0000
