data_image0
_chemical_formula_structural       AgAl11Mg17
_chemical_formula_sum              "Ag1 Al11 Mg17"
_cell_length_a       9.11403
_cell_length_b       9.10755
_cell_length_c       9.07616
_cell_angle_alpha    109.503
_cell_angle_beta     109.532
_cell_angle_gamma    109.533

_space_group_name_H-M_alt    "P 1"
_space_group_IT_number       1

loop_
  _space_group_symop_operation_xyz
  'x, y, z'

loop_
  _atom_site_type_symbol
  _atom_site_label
  _atom_site_symmetry_multiplicity
  _atom_site_fract_x
  _atom_site_fract_y
  _atom_site_fract_z
  _atom_site_occupancy
  Ag  Ag1       1.0  0.81000  0.63100  0.00000  1.0000
  Al  Al1       1.0  0.63300  0.81300  0.00000  1.0000
  Al  Al2       1.0  0.36700  0.36800  0.18200  1.0000
  Al  Al3       1.0  0.18400  0.81800  0.18400  1.0000
  Al  Al4       1.0  0.81800  0.18500  0.18500  1.0000
  Al  Al5       1.0  0.18100  0.36600  0.36600  1.0000
  Al  Al6       1.0  0.36700  0.18000  0.36600  1.0000
  Al  Al7       1.0  0.00106  0.81400  0.63400  1.0000
  Al  Al8       1.0  0.81500  0.00014  0.63400  1.0000
  Al  Al9       1.0  0.63300  0.00000  0.81500  1.0000
  Al  Al10      1.0  1.00000  0.63300  0.81600  1.0000
  Al  Al11      1.0  0.18600  0.18600  0.81800  1.0000
  Mg  Mg1       1.0  0.34600  0.00106  1.00000  1.0000
  Mg  Mg2       1.0  0.60400  0.31800  0.00000  1.0000
  Mg  Mg3       1.0  0.00030  0.34600  0.00000  1.0000
  Mg  Mg4       1.0  0.31600  0.60300  0.00000  1.0000
  Mg  Mg5       1.0  0.00000  0.99800  0.00000  1.0000
  Mg  Mg6       1.0  0.68400  0.68300  0.28300  1.0000
  Mg  Mg7       1.0  0.99800  0.60300  0.31400  1.0000
  Mg  Mg8       1.0  0.60100  0.99900  0.31600  1.0000
  Mg  Mg9       1.0  0.99900  0.99800  0.34300  1.0000
  Mg  Mg10      1.0  0.39800  0.71400  0.39800  1.0000
  Mg  Mg11      1.0  0.71500  0.39800  0.39800  1.0000
  Mg  Mg12      1.0  0.31600  0.00000  0.60200  1.0000
  Mg  Mg13      1.0  0.00040  0.31600  0.60200  1.0000
  Mg  Mg14      1.0  0.65600  0.65500  0.65700  1.0000
  Mg  Mg15      1.0  0.28500  0.68300  0.68400  1.0000
  Mg  Mg16      1.0  0.68500  0.28900  0.68600  1.0000
  Mg  Mg17      1.0  0.40100  0.40000  0.71700  1.0000
