data_image0
_chemical_formula_structural       B4H4Li4
_chemical_formula_sum              "B4 H4 Li4"
_cell_length_a       5.69761
_cell_length_b       3.06809
_cell_length_c       6.41131
_cell_angle_alpha    90
_cell_angle_beta     90
_cell_angle_gamma    90

_space_group_name_H-M_alt    "P 1"
_space_group_IT_number       1

loop_
  _space_group_symop_operation_xyz
  'x, y, z'

loop_
  _atom_site_type_symbol
  _atom_site_label
  _atom_site_symmetry_multiplicity
  _atom_site_fract_x
  _atom_site_fract_y
  _atom_site_fract_z
  _atom_site_occupancy
  B   B1        1.0  0.05390  0.75000  0.01100  1.0000
  B   B2        1.0  0.55400  0.75000  0.48900  1.0000
  B   B3        1.0  0.44600  0.25000  0.51100  1.0000
  B   B4        1.0  0.94600  0.25000  0.98900  1.0000
  H   H1        1.0  0.27800  0.75000  0.01650  1.0000
  H   H2        1.0  0.77800  0.75000  0.48300  1.0000
  H   H3        1.0  0.22200  0.25000  0.51700  1.0000
  H   H4        1.0  0.72200  0.25000  0.98300  1.0000
  Li  Li1       1.0  0.27400  0.25000  0.19700  1.0000
  Li  Li2       1.0  0.77400  0.25000  0.30300  1.0000
  Li  Li3       1.0  0.22600  0.75000  0.69700  1.0000
  Li  Li4       1.0  0.72600  0.75000  0.80300  1.0000
