data_image0
_chemical_formula_structural       H2Li2S2
_chemical_formula_sum              "H2 Li2 S2"
_cell_length_a       3.88016
_cell_length_b       3.88016
_cell_length_c       6.04822
_cell_angle_alpha    90
_cell_angle_beta     90
_cell_angle_gamma    88.902

_space_group_name_H-M_alt    "P 1"
_space_group_IT_number       1

loop_
  _space_group_symop_operation_xyz
  'x, y, z'

loop_
  _atom_site_type_symbol
  _atom_site_label
  _atom_site_symmetry_multiplicity
  _atom_site_fract_x
  _atom_site_fract_y
  _atom_site_fract_z
  _atom_site_occupancy
  H   H1        1.0  0.01640  0.12900  0.25000  1.0000
  H   H2        1.0  0.87100  0.98400  0.75000  1.0000
  Li  Li1       1.0  0.49800  0.50200  0.00000  1.0000
  Li  Li2       1.0  0.49800  0.50200  0.50000  1.0000
  S   S1        1.0  0.00091  0.47900  0.25000  1.0000
  S   S2        1.0  0.52100  0.99900  0.75000  1.0000
