data_image0
_chemical_formula_structural       Au6Li2Na4
_chemical_formula_sum              "Au6 Li2 Na4"
_cell_length_a       5.61819
_cell_length_b       5.61816
_cell_length_c       8.64865
_cell_angle_alpha    90
_cell_angle_beta     90
_cell_angle_gamma    120

_space_group_name_H-M_alt    "P 1"
_space_group_IT_number       1

loop_
  _space_group_symop_operation_xyz
  'x, y, z'

loop_
  _atom_site_type_symbol
  _atom_site_label
  _atom_site_symmetry_multiplicity
  _atom_site_fract_x
  _atom_site_fract_y
  _atom_site_fract_z
  _atom_site_occupancy
  Au  Au1       1.0  0.16800  0.33600  0.25000  1.0000
  Au  Au2       1.0  0.16800  0.83200  0.25000  1.0000
  Au  Au3       1.0  0.66400  0.83200  0.25000  1.0000
  Au  Au4       1.0  0.33600  0.16800  0.75000  1.0000
  Au  Au5       1.0  0.83200  0.16800  0.75000  1.0000
  Au  Au6       1.0  0.83200  0.66400  0.75000  1.0000
  Li  Li1       1.0  0.00000  0.00000  0.00000  1.0000
  Li  Li2       1.0  0.00000  0.00000  0.50000  1.0000
  Na  Na1       1.0  0.66700  0.33300  0.06870  1.0000
  Na  Na2       1.0  0.66700  0.33300  0.43100  1.0000
  Na  Na3       1.0  0.33300  0.66700  0.56900  1.0000
  Na  Na4       1.0  0.33300  0.66700  0.93100  1.0000
