data_image0
_chemical_formula_structural       C2Li4O6
_chemical_formula_sum              "C2 Li4 O6"
_cell_length_a       4.85879
_cell_length_b       4.85879
_cell_length_c       6.03203
_cell_angle_alpha    110.571
_cell_angle_beta     110.571
_cell_angle_gamma    61.6624

_space_group_name_H-M_alt    "P 1"
_space_group_IT_number       1

loop_
  _space_group_symop_operation_xyz
  'x, y, z'

loop_
  _atom_site_type_symbol
  _atom_site_label
  _atom_site_symmetry_multiplicity
  _atom_site_fract_x
  _atom_site_fract_y
  _atom_site_fract_z
  _atom_site_occupancy
  C   C1        1.0  0.93600  0.06430  0.25000  1.0000
  C   C2        1.0  0.06430  0.93600  0.75000  1.0000
  Li  Li1       1.0  0.25200  0.35600  0.16500  1.0000
  Li  Li2       1.0  0.64400  0.74800  0.33500  1.0000
  Li  Li3       1.0  0.35600  0.25200  0.66500  1.0000
  Li  Li4       1.0  0.74800  0.64400  0.83500  1.0000
  O   O1        1.0  0.92000  0.78600  0.18700  1.0000
  O   O2        1.0  0.67800  0.32200  0.25000  1.0000
  O   O3        1.0  0.21400  0.07980  0.31300  1.0000
  O   O4        1.0  0.78600  0.92000  0.68700  1.0000
  O   O5        1.0  0.32200  0.67800  0.75000  1.0000
  O   O6        1.0  0.07980  0.21400  0.81300  1.0000
