data_image0
_chemical_formula_structural       Li8N4Sr2
_chemical_formula_sum              "Li8 N4 Sr2"
_cell_length_a       3.80069
_cell_length_b       3.80069
_cell_length_c       13.7026
_cell_angle_alpha    97.9717
_cell_angle_beta     97.9717
_cell_angle_gamma    90

_space_group_name_H-M_alt    "P 1"
_space_group_IT_number       1

loop_
  _space_group_symop_operation_xyz
  'x, y, z'

loop_
  _atom_site_type_symbol
  _atom_site_label
  _atom_site_symmetry_multiplicity
  _atom_site_fract_x
  _atom_site_fract_y
  _atom_site_fract_z
  _atom_site_occupancy
  Li  Li1       1.0  0.02100  0.77100  0.04200  1.0000
  Li  Li2       1.0  0.55400  0.30400  0.10700  1.0000
  Li  Li3       1.0  0.69600  0.44600  0.39300  1.0000
  Li  Li4       1.0  0.22900  0.97900  0.45800  1.0000
  Li  Li5       1.0  0.77100  0.02100  0.54200  1.0000
  Li  Li6       1.0  0.30400  0.55400  0.60700  1.0000
  Li  Li7       1.0  0.44600  0.69600  0.89300  1.0000
  Li  Li8       1.0  0.97900  0.22900  0.95800  1.0000
  N   N1        1.0  0.05720  0.30700  0.11400  1.0000
  N   N2        1.0  0.69300  0.94300  0.38600  1.0000
  N   N3        1.0  0.30700  0.05720  0.61400  1.0000
  N   N4        1.0  0.94300  0.69300  0.88600  1.0000
  Sr  Sr1       1.0  0.12500  0.87500  0.25000  1.0000
  Sr  Sr2       1.0  0.87500  0.12500  0.75000  1.0000
