data_image0
_chemical_formula_structural       Li4O6Re2
_chemical_formula_sum              "Li4 O6 Re2"
_cell_length_a       4.93455
_cell_length_b       4.93455
_cell_length_c       5.72577
_cell_angle_alpha    115.525
_cell_angle_beta     115.525
_cell_angle_gamma    60

_space_group_name_H-M_alt    "P 1"
_space_group_IT_number       1

loop_
  _space_group_symop_operation_xyz
  'x, y, z'

loop_
  _atom_site_type_symbol
  _atom_site_label
  _atom_site_symmetry_multiplicity
  _atom_site_fract_x
  _atom_site_fract_y
  _atom_site_fract_z
  _atom_site_occupancy
  Li  Li1       1.0  0.67600  0.67600  0.02750  1.0000
  Li  Li2       1.0  0.82600  0.82600  0.47700  1.0000
  Li  Li3       1.0  0.17600  0.17600  0.52800  1.0000
  Li  Li4       1.0  0.32600  0.32600  0.97700  1.0000
  O   O1        1.0  0.39800  0.10300  0.25200  1.0000
  O   O2        1.0  0.75100  0.39800  0.25200  1.0000
  O   O3        1.0  0.10300  0.75100  0.25200  1.0000
  O   O4        1.0  0.89800  0.25100  0.75200  1.0000
  O   O5        1.0  0.25100  0.60300  0.75200  1.0000
  O   O6        1.0  0.60300  0.89800  0.75200  1.0000
  Re  Re1       1.0  0.00050  0.00050  0.00150  1.0000
  Re  Re2       1.0  0.50000  0.50000  0.50200  1.0000
