data_image0
_chemical_formula_structural       Li4S6U2
_chemical_formula_sum              "Li4 S6 U2"
_cell_length_a       6.45909
_cell_length_b       6.64287
_cell_length_c       6.64287
_cell_angle_alpha    120.074
_cell_angle_beta     99.8711
_cell_angle_gamma    99.8711

_space_group_name_H-M_alt    "P 1"
_space_group_IT_number       1

loop_
  _space_group_symop_operation_xyz
  'x, y, z'

loop_
  _atom_site_type_symbol
  _atom_site_label
  _atom_site_symmetry_multiplicity
  _atom_site_fract_x
  _atom_site_fract_y
  _atom_site_fract_z
  _atom_site_occupancy
  Li  Li1       1.0  0.00000  0.00000  0.00000  1.0000
  Li  Li2       1.0  0.50000  0.83400  0.16600  1.0000
  Li  Li3       1.0  0.50000  0.50000  0.50000  1.0000
  Li  Li4       1.0  0.50000  0.16600  0.83400  1.0000
  S   S1        1.0  0.25000  0.42000  0.08280  1.0000
  S   S2        1.0  0.74800  0.25300  0.25300  1.0000
  S   S3        1.0  0.25000  0.08280  0.42000  1.0000
  S   S4        1.0  0.75000  0.91700  0.58000  1.0000
  S   S5        1.0  0.25200  0.74700  0.74700  1.0000
  S   S6        1.0  0.75000  0.58000  0.91700  1.0000
  U   U1        1.0  0.00000  0.66700  0.33300  1.0000
  U   U2        1.0  0.00000  0.33300  0.66700  1.0000
