data_image0
_chemical_formula_structural       Fe2Li6N4
_chemical_formula_sum              "Fe2 Li6 N4"
_cell_length_a       4.63821
_cell_length_b       4.77552
_cell_length_c       5.78188
_cell_angle_alpha    114.392
_cell_angle_beta     113.647
_cell_angle_gamma    90

_space_group_name_H-M_alt    "P 1"
_space_group_IT_number       1

loop_
  _space_group_symop_operation_xyz
  'x, y, z'

loop_
  _atom_site_type_symbol
  _atom_site_label
  _atom_site_symmetry_multiplicity
  _atom_site_fract_x
  _atom_site_fract_y
  _atom_site_fract_z
  _atom_site_occupancy
  Fe  Fe1       1.0  0.25000  0.00000  0.00000  1.0000
  Fe  Fe2       1.0  0.75000  0.00000  0.00000  1.0000
  Li  Li1       1.0  0.25000  0.50000  0.00000  1.0000
  Li  Li2       1.0  0.75000  0.50000  0.00000  1.0000
  Li  Li3       1.0  0.49200  0.74200  0.48400  1.0000
  Li  Li4       1.0  0.99200  0.74200  0.48400  1.0000
  Li  Li5       1.0  0.00806  0.25800  0.51600  1.0000
  Li  Li6       1.0  0.50800  0.25800  0.51600  1.0000
  N   N1        1.0  0.11400  0.33500  0.22800  1.0000
  N   N2        1.0  0.61400  0.89300  0.22800  1.0000
  N   N3        1.0  0.38600  0.10700  0.77200  1.0000
  N   N4        1.0  0.88600  0.66500  0.77200  1.0000
