data_image0
_chemical_formula_structural       Al11CeMg17
_chemical_formula_sum              "Al11 Ce1 Mg17"
_cell_length_a       9.25171
_cell_length_b       9.85043
_cell_length_c       9.04945
_cell_angle_alpha    109.459
_cell_angle_beta     106.642
_cell_angle_gamma    114.394

_space_group_name_H-M_alt    "P 1"
_space_group_IT_number       1

loop_
  _space_group_symop_operation_xyz
  'x, y, z'

loop_
  _atom_site_type_symbol
  _atom_site_label
  _atom_site_symmetry_multiplicity
  _atom_site_fract_x
  _atom_site_fract_y
  _atom_site_fract_z
  _atom_site_occupancy
  Al  Al1       1.0  0.23000  0.78700  0.18000  1.0000
  Al  Al2       1.0  0.36500  0.35900  0.18700  1.0000
  Al  Al3       1.0  0.80400  0.21300  0.19000  1.0000
  Al  Al4       1.0  0.31600  0.12100  0.32200  1.0000
  Al  Al5       1.0  0.17400  0.37100  0.36600  1.0000
  Al  Al6       1.0  0.80900  0.00508  0.63400  1.0000
  Al  Al7       1.0  0.99500  0.79900  0.67800  1.0000
  Al  Al8       1.0  0.61400  0.02330  0.81000  1.0000
  Al  Al9       1.0  0.17800  0.17200  0.81300  1.0000
  Al  Al10      1.0  0.05020  0.60600  0.82000  1.0000
  Al  Al11      1.0  0.64600  0.86500  0.00000  1.0000
  Ce  Ce1       1.0  0.83900  0.67600  0.00000  1.0000
  Mg  Mg1       1.0  0.58700  0.32400  0.00000  1.0000
  Mg  Mg2       1.0  0.00889  0.37300  0.00000  1.0000
  Mg  Mg3       1.0  0.60800  0.00073  0.31800  1.0000
  Mg  Mg4       1.0  0.71500  0.68800  0.32600  1.0000
  Mg  Mg5       1.0  0.99400  0.59000  0.32700  1.0000
  Mg  Mg6       1.0  0.98400  0.02660  0.35400  1.0000
  Mg  Mg7       1.0  0.40300  0.70800  0.39500  1.0000
  Mg  Mg8       1.0  0.70300  0.40000  0.42500  1.0000
  Mg  Mg9       1.0  0.27800  0.97600  0.57500  1.0000
  Mg  Mg10      1.0  0.00721  0.31300  0.60500  1.0000
  Mg  Mg11      1.0  0.63000  0.67300  0.64600  1.0000
  Mg  Mg12      1.0  0.66700  0.26300  0.67300  1.0000
  Mg  Mg13      1.0  0.38900  0.36200  0.67400  1.0000
  Mg  Mg14      1.0  0.29100  0.68300  0.68200  1.0000
  Mg  Mg15      1.0  0.98800  0.04320  0.00000  1.0000
  Mg  Mg16      1.0  0.37200  0.58100  1.00000  1.0000
  Mg  Mg17      1.0  0.35400  0.99900  0.00000  1.0000
