data_image0
_chemical_formula_structural       Ge2Li4O6
_chemical_formula_sum              "Ge2 Li4 O6"
_cell_length_a       4.83986
_cell_length_b       5.44629
_cell_length_c       5.51048
_cell_angle_alpha    119.615
_cell_angle_beta     90
_cell_angle_gamma    90

_space_group_name_H-M_alt    "P 1"
_space_group_IT_number       1

loop_
  _space_group_symop_operation_xyz
  'x, y, z'

loop_
  _atom_site_type_symbol
  _atom_site_label
  _atom_site_symmetry_multiplicity
  _atom_site_fract_x
  _atom_site_fract_y
  _atom_site_fract_z
  _atom_site_occupancy
  Ge  Ge1       1.0  0.99700  0.18000  0.00000  1.0000
  Ge  Ge2       1.0  0.49700  0.82000  0.00000  1.0000
  Li  Li1       1.0  0.49100  0.51400  0.34800  1.0000
  Li  Li2       1.0  0.99100  0.83400  0.34800  1.0000
  Li  Li3       1.0  0.49100  0.16600  0.65200  1.0000
  Li  Li4       1.0  0.99100  0.48600  0.65200  1.0000
  O   O1        1.0  0.62100  0.13900  0.00000  1.0000
  O   O2        1.0  0.12100  0.86100  0.00000  1.0000
  O   O3        1.0  0.09140  0.47400  0.30900  1.0000
  O   O4        1.0  0.59100  0.83500  0.30900  1.0000
  O   O5        1.0  0.09140  0.16500  0.69100  1.0000
  O   O6        1.0  0.59100  0.52600  0.69100  1.0000
