data_image0
_chemical_formula_structural       Au4Li4S4
_chemical_formula_sum              "Au4 Li4 S4"
_cell_length_a       6.37269
_cell_length_b       6.37269
_cell_length_c       7.23404
_cell_angle_alpha    116.281
_cell_angle_beta     115.992
_cell_angle_gamma    89.9938

_space_group_name_H-M_alt    "P 1"
_space_group_IT_number       1

loop_
  _space_group_symop_operation_xyz
  'x, y, z'

loop_
  _atom_site_type_symbol
  _atom_site_label
  _atom_site_symmetry_multiplicity
  _atom_site_fract_x
  _atom_site_fract_y
  _atom_site_fract_z
  _atom_site_occupancy
  Au  Au1       1.0  0.00000  0.00000  0.00000  1.0000
  Au  Au2       1.0  0.00000  0.50000  0.00000  1.0000
  Au  Au3       1.0  0.50000  0.00000  0.50000  1.0000
  Au  Au4       1.0  0.00000  0.00000  0.50000  1.0000
  Li  Li1       1.0  0.52000  0.77300  0.04560  1.0000
  Li  Li2       1.0  0.22800  0.47400  0.45400  1.0000
  Li  Li3       1.0  0.77200  0.52600  0.54600  1.0000
  Li  Li4       1.0  0.48000  0.22700  0.95400  1.0000
  S   S1        1.0  0.41400  0.58400  0.25000  1.0000
  S   S2        1.0  0.83500  0.16400  0.25000  1.0000
  S   S3        1.0  0.16500  0.83600  0.75000  1.0000
  S   S4        1.0  0.58600  0.41600  0.75000  1.0000
