data_image0
_chemical_formula_structural       Au2Li6S4
_chemical_formula_sum              "Au2 Li6 S4"
_cell_length_a       5.74633
_cell_length_b       6.29757
_cell_length_c       7.04929
_cell_angle_alpha    116.531
_cell_angle_beta     114.053
_cell_angle_gamma    90

_space_group_name_H-M_alt    "P 1"
_space_group_IT_number       1

loop_
  _space_group_symop_operation_xyz
  'x, y, z'

loop_
  _atom_site_type_symbol
  _atom_site_label
  _atom_site_symmetry_multiplicity
  _atom_site_fract_x
  _atom_site_fract_y
  _atom_site_fract_z
  _atom_site_occupancy
  Au  Au1       1.0  0.00000  0.00000  0.00000  1.0000
  Au  Au2       1.0  0.00000  0.50000  0.00000  1.0000
  Li  Li1       1.0  0.50000  0.25000  0.00000  1.0000
  Li  Li2       1.0  0.50000  0.75000  0.00000  1.0000
  Li  Li3       1.0  0.22600  0.47600  0.45200  1.0000
  Li  Li4       1.0  0.22600  0.97600  0.45200  1.0000
  Li  Li5       1.0  0.77400  0.02390  0.54800  1.0000
  Li  Li6       1.0  0.77400  0.52400  0.54800  1.0000
  S   S1        1.0  0.84500  0.14300  0.28500  1.0000
  S   S2        1.0  0.44000  0.64300  0.28500  1.0000
  S   S3        1.0  0.56000  0.35700  0.71500  1.0000
  S   S4        1.0  0.15500  0.85700  0.71500  1.0000
