data_image0
_chemical_formula_structural       C4Li4N4
_chemical_formula_sum              "C4 Li4 N4"
_cell_length_a       8.73327
_cell_length_b       3.63033
_cell_length_c       6.43313
_cell_angle_alpha    90
_cell_angle_beta     90
_cell_angle_gamma    90

_space_group_name_H-M_alt    "P 1"
_space_group_IT_number       1

loop_
  _space_group_symop_operation_xyz
  'x, y, z'

loop_
  _atom_site_type_symbol
  _atom_site_label
  _atom_site_symmetry_multiplicity
  _atom_site_fract_x
  _atom_site_fract_y
  _atom_site_fract_z
  _atom_site_occupancy
  C   C1        1.0  0.69300  0.25000  0.23600  1.0000
  C   C2        1.0  0.19300  0.25000  0.26400  1.0000
  C   C3        1.0  0.80700  0.75000  0.73600  1.0000
  C   C4        1.0  0.30700  0.75000  0.76400  1.0000
  Li  Li1       1.0  0.87500  0.25000  0.02360  1.0000
  Li  Li2       1.0  0.37500  0.25000  0.47600  1.0000
  Li  Li3       1.0  0.62500  0.75000  0.52400  1.0000
  Li  Li4       1.0  0.12500  0.75000  0.97600  1.0000
  N   N1        1.0  0.09260  0.25000  0.14100  1.0000
  N   N2        1.0  0.59300  0.25000  0.35900  1.0000
  N   N3        1.0  0.40700  0.75000  0.64100  1.0000
  N   N4        1.0  0.90700  0.75000  0.85900  1.0000
