data_image0
_chemical_formula_structural       Li2Ru2Sn8
_chemical_formula_sum              "Li2 Ru2 Sn8"
_cell_length_a       6.69455
_cell_length_b       6.69455
_cell_length_c       7.36168
_cell_angle_alpha    117.045
_cell_angle_beta     117.045
_cell_angle_gamma    90

_space_group_name_H-M_alt    "P 1"
_space_group_IT_number       1

loop_
  _space_group_symop_operation_xyz
  'x, y, z'

loop_
  _atom_site_type_symbol
  _atom_site_label
  _atom_site_symmetry_multiplicity
  _atom_site_fract_x
  _atom_site_fract_y
  _atom_site_fract_z
  _atom_site_occupancy
  Li  Li1       1.0  0.00000  0.00000  0.00000  1.0000
  Li  Li2       1.0  0.50000  0.50000  0.00000  1.0000
  Ru  Ru1       1.0  0.25000  0.25000  0.50000  1.0000
  Ru  Ru2       1.0  0.75000  0.75000  0.50000  1.0000
  Sn  Sn1       1.0  0.79700  0.29700  0.27300  1.0000
  Sn  Sn2       1.0  0.29700  0.47600  0.27300  1.0000
  Sn  Sn3       1.0  0.97600  0.79700  0.27300  1.0000
  Sn  Sn4       1.0  0.47600  0.97600  0.27300  1.0000
  Sn  Sn5       1.0  0.52400  0.02360  0.72700  1.0000
  Sn  Sn6       1.0  0.02360  0.20300  0.72700  1.0000
  Sn  Sn7       1.0  0.70300  0.52400  0.72700  1.0000
  Sn  Sn8       1.0  0.20300  0.70300  0.72700  1.0000
