data_image0
_chemical_formula_structural       HV2
_chemical_formula_sum              "H1 V2"
_cell_length_a       2.65809
_cell_length_b       2.65809
_cell_length_c       4.40495
_cell_angle_alpha    96.0548
_cell_angle_beta     96.0548
_cell_angle_gamma    67.0073

_space_group_name_H-M_alt    "P 1"
_space_group_IT_number       1

loop_
  _space_group_symop_operation_xyz
  'x, y, z'

loop_
  _atom_site_type_symbol
  _atom_site_label
  _atom_site_symmetry_multiplicity
  _atom_site_fract_x
  _atom_site_fract_y
  _atom_site_fract_z
  _atom_site_occupancy
  H   H1        1.0  0.75000  0.75000  0.25000  1.0000
  V   V1        1.0  0.02050  0.02050  0.97900  1.0000
  V   V2        1.0  0.47900  0.47900  0.52100  1.0000
