data_image0
_chemical_formula_structural       Ge4Li4Yb5
_chemical_formula_sum              "Ge4 Li4 Yb5"
_cell_length_a       4.01368
_cell_length_b       8.69519
_cell_length_c       8.69519
_cell_angle_alpha    93.0535
_cell_angle_beta     103.344
_cell_angle_gamma    76.6559

_space_group_name_H-M_alt    "P 1"
_space_group_IT_number       1

loop_
  _space_group_symop_operation_xyz
  'x, y, z'

loop_
  _atom_site_type_symbol
  _atom_site_label
  _atom_site_symmetry_multiplicity
  _atom_site_fract_x
  _atom_site_fract_y
  _atom_site_fract_z
  _atom_site_occupancy
  Ge  Ge1       1.0  0.44200  0.31100  0.19500  1.0000
  Ge  Ge2       1.0  0.75300  0.80500  0.31100  1.0000
  Ge  Ge3       1.0  0.24700  0.19500  0.68900  1.0000
  Ge  Ge4       1.0  0.55800  0.68900  0.80500  1.0000
  Li  Li1       1.0  0.92400  0.47500  0.32300  1.0000
  Li  Li2       1.0  0.39900  0.67700  0.47500  1.0000
  Li  Li3       1.0  0.60100  0.32300  0.52500  1.0000
  Li  Li4       1.0  0.07600  0.52500  0.67700  1.0000
  Yb  Yb1       1.0  0.50000  0.00000  0.00000  1.0000
  Yb  Yb2       1.0  0.21300  0.65600  0.08210  1.0000
  Yb  Yb3       1.0  0.13100  0.08210  0.34400  1.0000
  Yb  Yb4       1.0  0.86900  0.91800  0.65600  1.0000
  Yb  Yb5       1.0  0.78700  0.34400  0.91800  1.0000
