data_image0
_chemical_formula_structural       Ca4Li4N4
_chemical_formula_sum              "Ca4 Li4 N4"
_cell_length_a       8.43216
_cell_length_b       3.65049
_cell_length_c       5.5127
_cell_angle_alpha    90
_cell_angle_beta     90
_cell_angle_gamma    90

_space_group_name_H-M_alt    "P 1"
_space_group_IT_number       1

loop_
  _space_group_symop_operation_xyz
  'x, y, z'

loop_
  _atom_site_type_symbol
  _atom_site_label
  _atom_site_symmetry_multiplicity
  _atom_site_fract_x
  _atom_site_fract_y
  _atom_site_fract_z
  _atom_site_occupancy
  Ca  Ca1       1.0  0.15600  0.25000  0.02660  1.0000
  Ca  Ca2       1.0  0.65600  0.25000  0.47300  1.0000
  Ca  Ca3       1.0  0.34400  0.75000  0.52700  1.0000
  Ca  Ca4       1.0  0.84400  0.75000  0.97300  1.0000
  Li  Li1       1.0  0.45200  0.75000  0.07420  1.0000
  Li  Li2       1.0  0.95200  0.75000  0.42600  1.0000
  Li  Li3       1.0  0.04750  0.25000  0.57400  1.0000
  Li  Li4       1.0  0.54800  0.25000  0.92600  1.0000
  N   N1        1.0  0.40700  0.25000  0.24100  1.0000
  N   N2        1.0  0.90700  0.25000  0.25900  1.0000
  N   N3        1.0  0.09270  0.75000  0.74100  1.0000
  N   N4        1.0  0.59300  0.75000  0.75900  1.0000
