data_image0
_chemical_formula_structural       B4Li4Rh6
_chemical_formula_sum              "B4 Li4 Rh6"
_cell_length_a       5.80647
_cell_length_b       9.50422
_cell_length_c       2.84073
_cell_angle_alpha    90
_cell_angle_beta     90
_cell_angle_gamma    90

_space_group_name_H-M_alt    "P 1"
_space_group_IT_number       1

loop_
  _space_group_symop_operation_xyz
  'x, y, z'

loop_
  _atom_site_type_symbol
  _atom_site_label
  _atom_site_symmetry_multiplicity
  _atom_site_fract_x
  _atom_site_fract_y
  _atom_site_fract_z
  _atom_site_occupancy
  B   B1        1.0  0.06220  0.16900  0.50000  1.0000
  B   B2        1.0  0.56200  0.33100  0.50000  1.0000
  B   B3        1.0  0.43800  0.66900  0.50000  1.0000
  B   B4        1.0  0.93800  0.83100  0.50000  1.0000
  Li  Li1       1.0  0.66000  0.07410  0.50000  1.0000
  Li  Li2       1.0  0.16000  0.42600  0.50000  1.0000
  Li  Li3       1.0  0.84000  0.57400  0.50000  1.0000
  Li  Li4       1.0  0.34000  0.92600  0.50000  1.0000
  Rh  Rh1       1.0  0.00000  0.00000  0.00000  1.0000
  Rh  Rh2       1.0  0.33500  0.22000  0.00000  1.0000
  Rh  Rh3       1.0  0.83500  0.28000  0.00000  1.0000
  Rh  Rh4       1.0  0.50000  0.50000  0.00000  1.0000
  Rh  Rh5       1.0  0.16500  0.72000  0.00000  1.0000
  Rh  Rh6       1.0  0.66500  0.78000  0.00000  1.0000
