data_image0
_chemical_formula_structural       Ba3Li4Sn8
_chemical_formula_sum              "Ba3 Li4 Sn8"
_cell_length_a       6.76398
_cell_length_b       6.85589
_cell_length_c       9.92555
_cell_angle_alpha    98.2335
_cell_angle_beta     109.922
_cell_angle_gamma    90

_space_group_name_H-M_alt    "P 1"
_space_group_IT_number       1

loop_
  _space_group_symop_operation_xyz
  'x, y, z'

loop_
  _atom_site_type_symbol
  _atom_site_label
  _atom_site_symmetry_multiplicity
  _atom_site_fract_x
  _atom_site_fract_y
  _atom_site_fract_z
  _atom_site_occupancy
  Ba  Ba1       1.0  0.00000  0.00000  0.00000  1.0000
  Ba  Ba2       1.0  0.67800  0.31200  0.35600  1.0000
  Ba  Ba3       1.0  0.32200  0.68800  0.64400  1.0000
  Li  Li1       1.0  0.21400  0.50000  0.00000  1.0000
  Li  Li2       1.0  0.78600  0.50000  0.00000  1.0000
  Li  Li3       1.0  0.21200  0.12900  0.42300  1.0000
  Li  Li4       1.0  0.78800  0.87100  0.57700  1.0000
  Sn  Sn1       1.0  0.51500  0.79600  0.03040  1.0000
  Sn  Sn2       1.0  0.12900  0.45100  0.25700  1.0000
  Sn  Sn3       1.0  0.41600  0.80400  0.30200  1.0000
  Sn  Sn4       1.0  0.88600  0.80400  0.30200  1.0000
  Sn  Sn5       1.0  0.11400  0.19600  0.69800  1.0000
  Sn  Sn6       1.0  0.58400  0.19600  0.69800  1.0000
  Sn  Sn7       1.0  0.87100  0.54900  0.74300  1.0000
  Sn  Sn8       1.0  0.48500  0.20400  0.97000  1.0000
