data_image0
_chemical_formula_structural       Al11Mg17Pm
_chemical_formula_sum              "Al11 Mg17 Pm1"
_cell_length_a       9.08514
_cell_length_b       9.5549
_cell_length_c       9.18065
_cell_angle_alpha    110.468
_cell_angle_beta     108.378
_cell_angle_gamma    110.18

_space_group_name_H-M_alt    "P 1"
_space_group_IT_number       1

loop_
  _space_group_symop_operation_xyz
  'x, y, z'

loop_
  _atom_site_type_symbol
  _atom_site_label
  _atom_site_symmetry_multiplicity
  _atom_site_fract_x
  _atom_site_fract_y
  _atom_site_fract_z
  _atom_site_occupancy
  Al  Al1       1.0  0.64000  0.85100  0.00000  1.0000
  Al  Al2       1.0  0.22100  0.81200  0.18300  1.0000
  Al  Al3       1.0  0.36300  0.36400  0.18400  1.0000
  Al  Al4       1.0  0.80600  0.20100  0.18900  1.0000
  Al  Al5       1.0  0.34900  0.15900  0.34300  1.0000
  Al  Al6       1.0  0.17200  0.36300  0.36200  1.0000
  Al  Al7       1.0  0.81100  0.00111  0.63800  1.0000
  Al  Al8       1.0  0.00528  0.81600  0.65700  1.0000
  Al  Al9       1.0  0.61700  0.01200  0.81100  1.0000
  Al  Al10      1.0  0.17900  0.18000  0.81600  1.0000
  Al  Al11      1.0  0.03740  0.62900  0.81700  1.0000
  Mg  Mg1       1.0  0.00250  0.36200  0.00000  1.0000
  Mg  Mg2       1.0  0.35400  0.58800  0.00000  1.0000
  Mg  Mg3       1.0  0.99500  0.01930  1.00000  1.0000
  Mg  Mg4       1.0  0.58300  0.31600  0.00000  1.0000
  Mg  Mg5       1.0  0.35900  0.00000  0.00000  1.0000
  Mg  Mg6       1.0  0.70200  0.68800  0.31400  1.0000
  Mg  Mg7       1.0  0.60600  0.99500  0.31800  1.0000
  Mg  Mg8       1.0  0.99500  0.58900  0.32800  1.0000
  Mg  Mg9       1.0  0.99300  0.01730  0.34700  1.0000
  Mg  Mg10      1.0  0.39600  0.70900  0.39500  1.0000
  Mg  Mg11      1.0  0.71300  0.40400  0.42200  1.0000
  Mg  Mg12      1.0  0.29100  0.98200  0.57800  1.0000
  Mg  Mg13      1.0  0.00104  0.31400  0.60500  1.0000
  Mg  Mg14      1.0  0.64600  0.67000  0.65300  1.0000
  Mg  Mg15      1.0  0.66700  0.26200  0.67200  1.0000
  Mg  Mg16      1.0  0.28800  0.67700  0.68200  1.0000
  Mg  Mg17      1.0  0.38800  0.37400  0.68600  1.0000
  Pm  Pm1       1.0  0.82000  0.64400  0.00000  1.0000
