data_image0
_chemical_formula_structural       CeLi8O6
_chemical_formula_sum              "Ce1 Li8 O6"
_cell_length_a       5.6511
_cell_length_b       5.6511
_cell_length_c       6.37508
_cell_angle_alpha    63.6906
_cell_angle_beta     116.309
_cell_angle_gamma    120

_space_group_name_H-M_alt    "P 1"
_space_group_IT_number       1

loop_
  _space_group_symop_operation_xyz
  'x, y, z'

loop_
  _atom_site_type_symbol
  _atom_site_label
  _atom_site_symmetry_multiplicity
  _atom_site_fract_x
  _atom_site_fract_y
  _atom_site_fract_z
  _atom_site_occupancy
  Ce  Ce1       1.0  0.00000  0.00000  0.00000  1.0000
  Li  Li1       1.0  0.36200  0.63800  0.08690  1.0000
  Li  Li2       1.0  0.10000  0.22100  0.37400  1.0000
  Li  Li3       1.0  0.49500  0.90000  0.37400  1.0000
  Li  Li4       1.0  0.77900  0.50500  0.37400  1.0000
  Li  Li5       1.0  0.22100  0.49500  0.62600  1.0000
  Li  Li6       1.0  0.50500  0.10000  0.62600  1.0000
  Li  Li7       1.0  0.90000  0.77900  0.62600  1.0000
  Li  Li8       1.0  0.63800  0.36200  0.91300  1.0000
  O   O1        1.0  0.10800  0.59200  0.26800  1.0000
  O   O2        1.0  0.40800  0.24900  0.26800  1.0000
  O   O3        1.0  0.75100  0.89200  0.26800  1.0000
  O   O4        1.0  0.24900  0.10800  0.73200  1.0000
  O   O5        1.0  0.59200  0.75100  0.73200  1.0000
  O   O6        1.0  0.89200  0.40800  0.73200  1.0000
