data_image0
_chemical_formula_structural       BrLi10N3
_chemical_formula_sum              "Br1 Li10 N3"
_cell_length_a       7.37459
_cell_length_b       7.37447
_cell_length_c       3.84744
_cell_angle_alpha    90
_cell_angle_beta     90
_cell_angle_gamma    120.001

_space_group_name_H-M_alt    "P 1"
_space_group_IT_number       1

loop_
  _space_group_symop_operation_xyz
  'x, y, z'

loop_
  _atom_site_type_symbol
  _atom_site_label
  _atom_site_symmetry_multiplicity
  _atom_site_fract_x
  _atom_site_fract_y
  _atom_site_fract_z
  _atom_site_occupancy
  Br  Br1       1.0  0.00000  0.00000  0.50000  1.0000
  Li  Li1       1.0  0.44300  0.22100  0.00000  1.0000
  Li  Li2       1.0  0.77900  0.22100  0.00000  1.0000
  Li  Li3       1.0  0.16600  0.33300  0.00000  1.0000
  Li  Li4       1.0  0.77900  0.55700  0.00000  1.0000
  Li  Li5       1.0  0.33300  0.66700  0.00000  1.0000
  Li  Li6       1.0  0.16600  0.83400  0.00000  1.0000
  Li  Li7       1.0  0.66700  0.83400  0.00000  1.0000
  Li  Li8       1.0  0.49200  0.98400  0.50000  1.0000
  Li  Li9       1.0  0.01550  0.50800  0.50000  1.0000
  Li  Li10      1.0  0.49200  0.50800  0.50000  1.0000
  N   N1        1.0  0.01730  0.50900  0.00000  1.0000
  N   N2        1.0  0.49100  0.50900  0.00000  1.0000
  N   N3        1.0  0.49100  0.98300  0.00000  1.0000
