data_image0
_chemical_formula_structural       Li3O8Ti4
_chemical_formula_sum              "Li3 O8 Ti4"
_cell_length_a       4.94059
_cell_length_b       4.89514
_cell_length_c       5.71686
_cell_angle_alpha    90
_cell_angle_beta     90
_cell_angle_gamma    89.4736

_space_group_name_H-M_alt    "P 1"
_space_group_IT_number       1

loop_
  _space_group_symop_operation_xyz
  'x, y, z'

loop_
  _atom_site_type_symbol
  _atom_site_label
  _atom_site_symmetry_multiplicity
  _atom_site_fract_x
  _atom_site_fract_y
  _atom_site_fract_z
  _atom_site_occupancy
  Li  Li1       1.0  0.50000  0.00000  0.02120  1.0000
  Li  Li2       1.0  0.00000  0.50000  0.26000  1.0000
  Li  Li3       1.0  0.00000  0.50000  0.77300  1.0000
  O   O1        1.0  0.26700  0.32300  0.01550  1.0000
  O   O2        1.0  0.73300  0.67700  0.01550  1.0000
  O   O3        1.0  0.77000  0.18100  0.26000  1.0000
  O   O4        1.0  0.23000  0.81900  0.26000  1.0000
  O   O5        1.0  0.25100  0.32900  0.51500  1.0000
  O   O6        1.0  0.74900  0.67100  0.51500  1.0000
  O   O7        1.0  0.77000  0.18100  0.77100  1.0000
  O   O8        1.0  0.23000  0.81900  0.77100  1.0000
  Ti  Ti1       1.0  0.00000  0.00000  0.01490  1.0000
  Ti  Ti2       1.0  0.50000  0.50000  0.27900  1.0000
  Ti  Ti3       1.0  0.00000  0.00000  0.51600  1.0000
  Ti  Ti4       1.0  0.50000  0.50000  0.75200  1.0000
