data_image0
_chemical_formula_structural       Eu4Li2Si6
_chemical_formula_sum              "Eu4 Li2 Si6"
_cell_length_a       4.56284
_cell_length_b       7.77159
_cell_length_c       8.02122
_cell_angle_alpha    103.802
_cell_angle_beta     106.524
_cell_angle_gamma    90

_space_group_name_H-M_alt    "P 1"
_space_group_IT_number       1

loop_
  _space_group_symop_operation_xyz
  'x, y, z'

loop_
  _atom_site_type_symbol
  _atom_site_label
  _atom_site_symmetry_multiplicity
  _atom_site_fract_x
  _atom_site_fract_y
  _atom_site_fract_z
  _atom_site_occupancy
  Eu  Eu1       1.0  0.61400  0.42900  0.22700  1.0000
  Eu  Eu2       1.0  0.62500  0.93700  0.25100  1.0000
  Eu  Eu3       1.0  0.37500  0.06260  0.74900  1.0000
  Eu  Eu4       1.0  0.38600  0.57100  0.77300  1.0000
  Li  Li1       1.0  0.21300  0.28000  0.42700  1.0000
  Li  Li2       1.0  0.78700  0.72000  0.57300  1.0000
  Si  Si1       1.0  0.04420  0.14600  0.08840  1.0000
  Si  Si2       1.0  0.04680  0.64900  0.09350  1.0000
  Si  Si3       1.0  0.20300  0.70800  0.40700  1.0000
  Si  Si4       1.0  0.79700  0.29200  0.59300  1.0000
  Si  Si5       1.0  0.95300  0.35100  0.90600  1.0000
  Si  Si6       1.0  0.95600  0.85400  0.91200  1.0000
