data_image0
_chemical_formula_structural       Li6N6Th3
_chemical_formula_sum              "Li6 N6 Th3"
_cell_length_a       6.3766
_cell_length_b       6.37659
_cell_length_c       5.50899
_cell_angle_alpha    89.9999
_cell_angle_beta     89.9999
_cell_angle_gamma    120

_space_group_name_H-M_alt    "P 1"
_space_group_IT_number       1

loop_
  _space_group_symop_operation_xyz
  'x, y, z'

loop_
  _atom_site_type_symbol
  _atom_site_label
  _atom_site_symmetry_multiplicity
  _atom_site_fract_x
  _atom_site_fract_y
  _atom_site_fract_z
  _atom_site_occupancy
  Li  Li1       1.0  0.01820  0.67500  0.40400  1.0000
  Li  Li2       1.0  0.65700  0.98200  0.40400  1.0000
  Li  Li3       1.0  0.32500  0.34300  0.40400  1.0000
  Li  Li4       1.0  0.67500  0.65700  0.59600  1.0000
  Li  Li5       1.0  0.34300  0.01820  0.59600  1.0000
  Li  Li6       1.0  0.98200  0.32500  0.59600  1.0000
  N   N1        1.0  0.33200  0.99600  0.22800  1.0000
  N   N2        1.0  0.66400  0.66800  0.22800  1.0000
  N   N3        1.0  0.00386  0.33600  0.22800  1.0000
  N   N4        1.0  0.99600  0.66400  0.77200  1.0000
  N   N5        1.0  0.33600  0.33200  0.77200  1.0000
  N   N6        1.0  0.66800  0.00386  0.77200  1.0000
  Th  Th1       1.0  0.33300  0.66700  0.99000  1.0000
  Th  Th2       1.0  0.00000  0.00000  0.00000  1.0000
  Th  Th3       1.0  0.66700  0.33300  0.01010  1.0000
