data_image0
_chemical_formula_structural       Au2I8Li2
_chemical_formula_sum              "Au2 I8 Li2"
_cell_length_a       15.2824
_cell_length_b       4.42835
_cell_length_c       7.1945
_cell_angle_alpha    90
_cell_angle_beta     120.212
_cell_angle_gamma    90

_space_group_name_H-M_alt    "P 1"
_space_group_IT_number       1

loop_
  _space_group_symop_operation_xyz
  'x, y, z'

loop_
  _atom_site_type_symbol
  _atom_site_label
  _atom_site_symmetry_multiplicity
  _atom_site_fract_x
  _atom_site_fract_y
  _atom_site_fract_z
  _atom_site_occupancy
  Au  Au1       1.0  0.00000  0.00000  0.00000  1.0000
  Au  Au2       1.0  0.50000  0.50000  0.00000  1.0000
  I   I1        1.0  0.35900  0.83500  0.02680  1.0000
  I   I2        1.0  0.85900  0.66500  0.02680  1.0000
  I   I3        1.0  0.11400  0.99200  0.42900  1.0000
  I   I4        1.0  0.61400  0.50800  0.42900  1.0000
  I   I5        1.0  0.38600  0.49200  0.57100  1.0000
  I   I6        1.0  0.88600  0.00777  0.57100  1.0000
  I   I7        1.0  0.14100  0.33500  0.97300  1.0000
  I   I8        1.0  0.64100  0.16500  0.97300  1.0000
  Li  Li1       1.0  0.50000  0.00000  0.50000  1.0000
  Li  Li2       1.0  0.00000  0.50000  0.50000  1.0000
