data_image0
_chemical_formula_structural       Li4O8Pr4
_chemical_formula_sum              "Li4 O8 Pr4"
_cell_length_a       5.80063
_cell_length_b       6.14085
_cell_length_c       5.74112
_cell_angle_alpha    90
_cell_angle_beta     103.01
_cell_angle_gamma    90

_space_group_name_H-M_alt    "P 1"
_space_group_IT_number       1

loop_
  _space_group_symop_operation_xyz
  'x, y, z'

loop_
  _atom_site_type_symbol
  _atom_site_label
  _atom_site_symmetry_multiplicity
  _atom_site_fract_x
  _atom_site_fract_y
  _atom_site_fract_z
  _atom_site_occupancy
  Li  Li1       1.0  0.65500  0.14000  0.16300  1.0000
  Li  Li2       1.0  0.34500  0.64000  0.33700  1.0000
  Li  Li3       1.0  0.65500  0.36000  0.66300  1.0000
  Li  Li4       1.0  0.34500  0.86000  0.83700  1.0000
  O   O1        1.0  0.08930  0.76200  0.01600  1.0000
  O   O2        1.0  0.42900  0.37000  0.21500  1.0000
  O   O3        1.0  0.57100  0.87000  0.28500  1.0000
  O   O4        1.0  0.91100  0.26200  0.48400  1.0000
  O   O5        1.0  0.08930  0.73800  0.51600  1.0000
  O   O6        1.0  0.42900  0.13000  0.71500  1.0000
  O   O7        1.0  0.57100  0.63000  0.78500  1.0000
  O   O8        1.0  0.91100  0.23800  0.98400  1.0000
  Pr  Pr1       1.0  0.80000  0.56800  0.19500  1.0000
  Pr  Pr2       1.0  0.20000  0.06830  0.30500  1.0000
  Pr  Pr3       1.0  0.80000  0.93200  0.69500  1.0000
  Pr  Pr4       1.0  0.20000  0.43200  0.80500  1.0000
