data_image0
_chemical_formula_structural       Al11Mg17N
_chemical_formula_sum              "Al11 Mg17 N1"
_cell_length_a       8.86121
_cell_length_b       9.05276
_cell_length_c       9.24191
_cell_angle_alpha    109.904
_cell_angle_beta     109.078
_cell_angle_gamma    108.148

_space_group_name_H-M_alt    "P 1"
_space_group_IT_number       1

loop_
  _space_group_symop_operation_xyz
  'x, y, z'

loop_
  _atom_site_type_symbol
  _atom_site_label
  _atom_site_symmetry_multiplicity
  _atom_site_fract_x
  _atom_site_fract_y
  _atom_site_fract_z
  _atom_site_occupancy
  Al  Al1       1.0  0.35900  0.36100  0.17800  1.0000
  Al  Al2       1.0  0.80200  0.17800  0.17800  1.0000
  Al  Al3       1.0  0.16500  0.81900  0.18400  1.0000
  Al  Al4       1.0  0.16800  0.36500  0.36200  1.0000
  Al  Al5       1.0  0.36000  0.17600  0.36500  1.0000
  Al  Al6       1.0  0.99500  0.81100  0.63500  1.0000
  Al  Al7       1.0  0.80700  0.00369  0.63800  1.0000
  Al  Al8       1.0  0.98100  0.63500  0.81600  1.0000
  Al  Al9       1.0  0.62300  0.99900  0.82200  1.0000
  Al  Al10      1.0  0.18100  0.18200  0.82200  1.0000
  Al  Al11      1.0  0.73300  0.65300  0.00000  1.0000
  Mg  Mg1       1.0  0.99000  0.01340  0.00000  1.0000
  Mg  Mg2       1.0  0.33300  0.61800  0.00000  1.0000
  Mg  Mg3       1.0  0.68000  0.68700  0.30200  1.0000
  Mg  Mg4       1.0  0.98600  0.59600  0.31500  1.0000
  Mg  Mg5       1.0  0.59900  0.00173  0.32000  1.0000
  Mg  Mg6       1.0  0.98600  0.00929  0.35600  1.0000
  Mg  Mg7       1.0  0.37800  0.70600  0.38100  1.0000
  Mg  Mg8       1.0  0.71100  0.40100  0.40700  1.0000
  Mg  Mg9       1.0  0.30400  0.99300  0.59300  1.0000
  Mg  Mg10      1.0  0.99700  0.32600  0.61900  1.0000
  Mg  Mg11      1.0  0.63000  0.65400  0.64400  1.0000
  Mg  Mg12      1.0  0.28000  0.68200  0.68000  1.0000
  Mg  Mg13      1.0  0.67100  0.28100  0.68500  1.0000
  Mg  Mg14      1.0  0.37800  0.38500  0.69800  1.0000
  Mg  Mg15      1.0  0.59700  0.32500  0.00000  1.0000
  Mg  Mg16      1.0  0.35700  0.00191  0.00000  1.0000
  Mg  Mg17      1.0  0.00064  0.36300  0.00000  1.0000
  N   N1        1.0  0.94800  0.77500  0.00000  1.0000
