data_image0
_chemical_formula_structural       Ce4Ge6Li4
_chemical_formula_sum              "Ce4 Ge6 Li4"
_cell_length_a       9.73456
_cell_length_b       4.50172
_cell_length_c       6.99265
_cell_angle_alpha    90
_cell_angle_beta     90
_cell_angle_gamma    103.369

_space_group_name_H-M_alt    "P 1"
_space_group_IT_number       1

loop_
  _space_group_symop_operation_xyz
  'x, y, z'

loop_
  _atom_site_type_symbol
  _atom_site_label
  _atom_site_symmetry_multiplicity
  _atom_site_fract_x
  _atom_site_fract_y
  _atom_site_fract_z
  _atom_site_occupancy
  Ce  Ce1       1.0  0.31700  0.15800  0.25000  1.0000
  Ce  Ce2       1.0  0.89600  0.94800  0.25000  1.0000
  Ce  Ce3       1.0  0.10400  0.05180  0.75000  1.0000
  Ce  Ce4       1.0  0.68300  0.84200  0.75000  1.0000
  Ge  Ge1       1.0  0.12300  0.56100  0.06830  1.0000
  Ge  Ge2       1.0  0.56000  0.78000  0.25000  1.0000
  Ge  Ge3       1.0  0.12300  0.56100  0.43200  1.0000
  Ge  Ge4       1.0  0.87700  0.43900  0.56800  1.0000
  Ge  Ge5       1.0  0.44000  0.22000  0.75000  1.0000
  Ge  Ge6       1.0  0.87700  0.43900  0.93200  1.0000
  Li  Li1       1.0  0.61800  0.30900  0.05980  1.0000
  Li  Li2       1.0  0.61800  0.30900  0.44000  1.0000
  Li  Li3       1.0  0.38200  0.69100  0.56000  1.0000
  Li  Li4       1.0  0.38200  0.69100  0.94000  1.0000
