data_image0
_chemical_formula_structural       Cr3LiO8
_chemical_formula_sum              "Cr3 Li1 O8"
_cell_length_a       4.92743
_cell_length_b       4.92743
_cell_length_c       6.09516
_cell_angle_alpha    90.8909
_cell_angle_beta     90.8909
_cell_angle_gamma    67.3374

_space_group_name_H-M_alt    "P 1"
_space_group_IT_number       1

loop_
  _space_group_symop_operation_xyz
  'x, y, z'

loop_
  _atom_site_type_symbol
  _atom_site_label
  _atom_site_symmetry_multiplicity
  _atom_site_fract_x
  _atom_site_fract_y
  _atom_site_fract_z
  _atom_site_occupancy
  Cr  Cr1       1.0  0.36000  0.36000  0.25400  1.0000
  Cr  Cr2       1.0  1.00000  0.00000  0.50000  1.0000
  Cr  Cr3       1.0  0.64000  0.64000  0.74600  1.0000
  Li  Li1       1.0  0.00000  0.00000  0.00000  1.0000
  O   O1        1.0  0.25500  0.25500  0.03010  1.0000
  O   O2        1.0  0.73400  0.22500  0.26100  1.0000
  O   O3        1.0  0.22500  0.73400  0.26100  1.0000
  O   O4        1.0  0.23800  0.23800  0.46700  1.0000
  O   O5        1.0  0.76200  0.76200  0.53300  1.0000
  O   O6        1.0  0.77500  0.26600  0.73900  1.0000
  O   O7        1.0  0.26600  0.77500  0.73900  1.0000
  O   O8        1.0  0.74500  0.74500  0.97000  1.0000
