data_image0
_chemical_formula_structural       H8Li4Mg2
_chemical_formula_sum              "H8 Li4 Mg2"
_cell_length_a       4.7587
_cell_length_b       9.02586
_cell_length_c       2.85649
_cell_angle_alpha    90
_cell_angle_beta     90
_cell_angle_gamma    90

_space_group_name_H-M_alt    "P 1"
_space_group_IT_number       1

loop_
  _space_group_symop_operation_xyz
  'x, y, z'

loop_
  _atom_site_type_symbol
  _atom_site_label
  _atom_site_symmetry_multiplicity
  _atom_site_fract_x
  _atom_site_fract_y
  _atom_site_fract_z
  _atom_site_occupancy
  H   H1        1.0  0.22000  0.18000  0.00000  1.0000
  H   H2        1.0  0.72000  0.32000  0.00000  1.0000
  H   H3        1.0  0.28000  0.68000  0.00000  1.0000
  H   H4        1.0  0.78000  0.82000  0.00000  1.0000
  H   H5        1.0  0.78800  0.08630  0.50000  1.0000
  H   H6        1.0  0.28800  0.41400  0.50000  1.0000
  H   H7        1.0  0.71200  0.58600  0.50000  1.0000
  H   H8        1.0  0.21200  0.91400  0.50000  1.0000
  Li  Li1       1.0  0.48200  0.20900  0.50000  1.0000
  Li  Li2       1.0  0.98200  0.29100  0.50000  1.0000
  Li  Li3       1.0  0.01840  0.70900  0.50000  1.0000
  Li  Li4       1.0  0.51800  0.79100  0.50000  1.0000
  Mg  Mg1       1.0  0.00000  0.00000  0.00000  1.0000
  Mg  Mg2       1.0  0.50000  0.50000  0.00000  1.0000
