data_image0
_chemical_formula_structural       H8Li4N4
_chemical_formula_sum              "H8 Li4 N4"
_cell_length_a       4.94928
_cell_length_b       4.94928
_cell_length_c       6.03534
_cell_angle_alpha    114.206
_cell_angle_beta     114.206
_cell_angle_gamma    90

_space_group_name_H-M_alt    "P 1"
_space_group_IT_number       1

loop_
  _space_group_symop_operation_xyz
  'x, y, z'

loop_
  _atom_site_type_symbol
  _atom_site_label
  _atom_site_symmetry_multiplicity
  _atom_site_fract_x
  _atom_site_fract_y
  _atom_site_fract_z
  _atom_site_occupancy
  H   H1        1.0  0.53400  0.48100  0.24800  1.0000
  H   H2        1.0  0.71400  0.76700  0.24800  1.0000
  H   H3        1.0  0.96100  0.07360  0.40600  1.0000
  H   H4        1.0  0.44500  0.33200  0.40600  1.0000
  H   H5        1.0  0.66800  0.03920  0.59400  1.0000
  H   H6        1.0  0.92600  0.55500  0.59400  1.0000
  H   H7        1.0  0.51900  0.28600  0.75200  1.0000
  H   H8        1.0  0.23300  0.46600  0.75200  1.0000
  Li  Li1       1.0  0.00000  0.00000  0.00000  1.0000
  Li  Li2       1.0  0.50000  0.00008  0.00016  1.0000
  Li  Li3       1.0  0.25000  0.75000  0.50000  1.0000
  Li  Li4       1.0  0.00000  0.50000  0.00000  1.0000
  N   N1        1.0  0.35100  0.36600  0.23500  1.0000
  N   N2        1.0  0.88400  0.86900  0.23500  1.0000
  N   N3        1.0  0.63400  0.11600  0.76500  1.0000
  N   N4        1.0  0.13100  0.64900  0.76500  1.0000
