data_image0
_chemical_formula_structural       Li2Mn2O8
_chemical_formula_sum              "Li2 Mn2 O8"
_cell_length_a       4.88996
_cell_length_b       4.88996
_cell_length_c       6.16958
_cell_angle_alpha    90
_cell_angle_beta     90
_cell_angle_gamma    113.086

_space_group_name_H-M_alt    "P 1"
_space_group_IT_number       1

loop_
  _space_group_symop_operation_xyz
  'x, y, z'

loop_
  _atom_site_type_symbol
  _atom_site_label
  _atom_site_symmetry_multiplicity
  _atom_site_fract_x
  _atom_site_fract_y
  _atom_site_fract_z
  _atom_site_occupancy
  Li  Li1       1.0  0.00000  0.00000  0.00000  1.0000
  Li  Li2       1.0  0.00000  0.00000  0.50000  1.0000
  Mn  Mn1       1.0  0.36000  0.64000  0.25000  1.0000
  Mn  Mn2       1.0  0.64000  0.36000  0.75000  1.0000
  O   O1        1.0  0.24800  0.75200  0.03670  1.0000
  O   O2        1.0  0.22900  0.27800  0.25000  1.0000
  O   O3        1.0  0.72200  0.77100  0.25000  1.0000
  O   O4        1.0  0.24800  0.75200  0.46300  1.0000
  O   O5        1.0  0.75200  0.24800  0.53700  1.0000
  O   O6        1.0  0.27800  0.22900  0.75000  1.0000
  O   O7        1.0  0.77100  0.72200  0.75000  1.0000
  O   O8        1.0  0.75200  0.24800  0.96300  1.0000
