data_image0
_chemical_formula_structural       H8Li6Rh2
_chemical_formula_sum              "H8 Li6 Rh2"
_cell_length_a       3.69862
_cell_length_b       4.74232
_cell_length_c       8.59367
_cell_angle_alpha    90
_cell_angle_beta     90
_cell_angle_gamma    67.0481

_space_group_name_H-M_alt    "P 1"
_space_group_IT_number       1

loop_
  _space_group_symop_operation_xyz
  'x, y, z'

loop_
  _atom_site_type_symbol
  _atom_site_label
  _atom_site_symmetry_multiplicity
  _atom_site_fract_x
  _atom_site_fract_y
  _atom_site_fract_z
  _atom_site_occupancy
  H   H1        1.0  0.66400  0.67100  0.10800  1.0000
  H   H2        1.0  0.94000  0.12000  0.12000  1.0000
  H   H3        1.0  0.94000  0.12000  0.38000  1.0000
  H   H4        1.0  0.66400  0.67100  0.39200  1.0000
  H   H5        1.0  0.33600  0.32900  0.60800  1.0000
  H   H6        1.0  0.06020  0.88000  0.62000  1.0000
  H   H7        1.0  0.06020  0.88000  0.88000  1.0000
  H   H8        1.0  0.33600  0.32900  0.89200  1.0000
  Li  Li1       1.0  0.16200  0.67600  0.07110  1.0000
  Li  Li2       1.0  0.48900  0.02180  0.25000  1.0000
  Li  Li3       1.0  0.16200  0.67600  0.42900  1.0000
  Li  Li4       1.0  0.83800  0.32400  0.57100  1.0000
  Li  Li5       1.0  0.51100  0.97800  0.75000  1.0000
  Li  Li6       1.0  0.83800  0.32400  0.92900  1.0000
  Rh  Rh1       1.0  0.79700  0.40500  0.25000  1.0000
  Rh  Rh2       1.0  0.20300  0.59500  0.75000  1.0000
