data_image0
_chemical_formula_structural       Al11Mg17Pa
_chemical_formula_sum              "Al11 Mg17 Pa1"
_cell_length_a       9.05615
_cell_length_b       9.51006
_cell_length_c       9.17948
_cell_angle_alpha    110.607
_cell_angle_beta     108.596
_cell_angle_gamma    109.672

_space_group_name_H-M_alt    "P 1"
_space_group_IT_number       1

loop_
  _space_group_symop_operation_xyz
  'x, y, z'

loop_
  _atom_site_type_symbol
  _atom_site_label
  _atom_site_symmetry_multiplicity
  _atom_site_fract_x
  _atom_site_fract_y
  _atom_site_fract_z
  _atom_site_occupancy
  Al  Al1       1.0  0.63900  0.84000  0.00000  1.0000
  Al  Al2       1.0  0.36300  0.36600  0.18300  1.0000
  Al  Al3       1.0  0.80700  0.19400  0.18800  1.0000
  Al  Al4       1.0  0.21700  0.82300  0.18800  1.0000
  Al  Al5       1.0  0.35600  0.17100  0.35100  1.0000
  Al  Al6       1.0  0.17300  0.36200  0.36300  1.0000
  Al  Al7       1.0  0.81000  0.99900  0.63700  1.0000
  Al  Al8       1.0  0.00512  0.82000  0.64900  1.0000
  Al  Al9       1.0  0.02870  0.63400  0.81200  1.0000
  Al  Al10      1.0  0.61900  0.00584  0.81200  1.0000
  Al  Al11      1.0  0.17900  0.18200  0.81700  1.0000
  Mg  Mg1       1.0  0.34100  0.59000  0.00000  1.0000
  Mg  Mg2       1.0  0.99500  0.35500  0.00000  1.0000
  Mg  Mg3       1.0  0.36000  0.00165  0.00000  1.0000
  Mg  Mg4       1.0  0.99600  0.01080  1.00000  1.0000
  Mg  Mg5       1.0  0.58800  0.31500  0.00000  1.0000
  Mg  Mg6       1.0  0.69600  0.68600  0.30300  1.0000
  Mg  Mg7       1.0  0.60300  0.99600  0.31800  1.0000
  Mg  Mg8       1.0  0.99700  0.59100  0.32700  1.0000
  Mg  Mg9       1.0  0.99600  0.01250  0.34800  1.0000
  Mg  Mg10      1.0  0.39600  0.71000  0.39500  1.0000
  Mg  Mg11      1.0  0.71300  0.40200  0.41400  1.0000
  Mg  Mg12      1.0  0.30000  0.98800  0.58600  1.0000
  Mg  Mg13      1.0  0.00050  0.31500  0.60500  1.0000
  Mg  Mg14      1.0  0.64800  0.66500  0.65200  1.0000
  Mg  Mg15      1.0  0.67100  0.26400  0.67300  1.0000
  Mg  Mg16      1.0  0.28500  0.67800  0.68200  1.0000
  Mg  Mg17      1.0  0.39300  0.38200  0.69700  1.0000
  Pa  Pa1       1.0  0.82400  0.64300  0.00000  1.0000
