data_image0
_chemical_formula_structural       Br6Cs4Li2
_chemical_formula_sum              "Br6 Cs4 Li2"
_cell_length_a       4.48846
_cell_length_b       8.12182
_cell_length_c       12.4993
_cell_angle_alpha    89.8879
_cell_angle_beta     79.6573
_cell_angle_gamma    89.9925

_space_group_name_H-M_alt    "P 1"
_space_group_IT_number       1

loop_
  _space_group_symop_operation_xyz
  'x, y, z'

loop_
  _atom_site_type_symbol
  _atom_site_label
  _atom_site_symmetry_multiplicity
  _atom_site_fract_x
  _atom_site_fract_y
  _atom_site_fract_z
  _atom_site_occupancy
  Br  Br1       1.0  0.41300  0.50200  0.17500  1.0000
  Br  Br2       1.0  0.41200  0.99600  0.17600  1.0000
  Br  Br3       1.0  0.79500  0.25100  0.40900  1.0000
  Br  Br4       1.0  0.20500  0.74900  0.59100  1.0000
  Br  Br5       1.0  0.58800  0.00398  0.82400  1.0000
  Br  Br6       1.0  0.58700  0.49800  0.82500  1.0000
  Cs  Cs1       1.0  0.99500  0.25000  0.01050  1.0000
  Cs  Cs2       1.0  0.82200  0.74700  0.35500  1.0000
  Cs  Cs3       1.0  0.17800  0.25300  0.64500  1.0000
  Cs  Cs4       1.0  0.00521  0.75000  0.99000  1.0000
  Li  Li1       1.0  0.35000  0.24900  0.30000  1.0000
  Li  Li2       1.0  0.65000  0.75100  0.70000  1.0000
