data_image0
_chemical_formula_structural       H4Li8N4
_chemical_formula_sum              "H4 Li8 N4"
_cell_length_a       7.64971
_cell_length_b       3.57592
_cell_length_c       4.84115
_cell_angle_alpha    90
_cell_angle_beta     90
_cell_angle_gamma    90

_space_group_name_H-M_alt    "P 1"
_space_group_IT_number       1

loop_
  _space_group_symop_operation_xyz
  'x, y, z'

loop_
  _atom_site_type_symbol
  _atom_site_label
  _atom_site_symmetry_multiplicity
  _atom_site_fract_x
  _atom_site_fract_y
  _atom_site_fract_z
  _atom_site_occupancy
  H   H1        1.0  0.92400  0.25000  0.09840  1.0000
  H   H2        1.0  0.42400  0.25000  0.40200  1.0000
  H   H3        1.0  0.57600  0.75000  0.59800  1.0000
  H   H4        1.0  0.07570  0.75000  0.90200  1.0000
  Li  Li1       1.0  0.60300  0.25000  0.03760  1.0000
  Li  Li2       1.0  0.80000  0.75000  0.08760  1.0000
  Li  Li3       1.0  0.30000  0.75000  0.41200  1.0000
  Li  Li4       1.0  0.10300  0.25000  0.46200  1.0000
  Li  Li5       1.0  0.89700  0.75000  0.53800  1.0000
  Li  Li6       1.0  0.70000  0.25000  0.58800  1.0000
  Li  Li7       1.0  0.20000  0.25000  0.91200  1.0000
  Li  Li8       1.0  0.39700  0.75000  0.96200  1.0000
  N   N1        1.0  0.35400  0.25000  0.21900  1.0000
  N   N2        1.0  0.85400  0.25000  0.28100  1.0000
  N   N3        1.0  0.14600  0.75000  0.71900  1.0000
  N   N4        1.0  0.64600  0.75000  0.78100  1.0000
