data_image0
_chemical_formula_structural       Li4O8Tb4
_chemical_formula_sum              "Li4 O8 Tb4"
_cell_length_a       5.28745
_cell_length_b       11.2151
_cell_length_c       3.38674
_cell_angle_alpha    90
_cell_angle_beta     90
_cell_angle_gamma    90

_space_group_name_H-M_alt    "P 1"
_space_group_IT_number       1

loop_
  _space_group_symop_operation_xyz
  'x, y, z'

loop_
  _atom_site_type_symbol
  _atom_site_label
  _atom_site_symmetry_multiplicity
  _atom_site_fract_x
  _atom_site_fract_y
  _atom_site_fract_z
  _atom_site_occupancy
  Li  Li1       1.0  0.40100  0.06690  0.25000  1.0000
  Li  Li2       1.0  0.09900  0.56700  0.25000  1.0000
  Li  Li3       1.0  0.90100  0.43300  0.75000  1.0000
  Li  Li4       1.0  0.59900  0.93300  0.75000  1.0000
  O   O1        1.0  0.75500  0.02490  0.25000  1.0000
  O   O2        1.0  0.18700  0.20600  0.25000  1.0000
  O   O3        1.0  0.74500  0.52500  0.25000  1.0000
  O   O4        1.0  0.31300  0.70600  0.25000  1.0000
  O   O5        1.0  0.68700  0.29400  0.75000  1.0000
  O   O6        1.0  0.25500  0.47500  0.75000  1.0000
  O   O7        1.0  0.81300  0.79400  0.75000  1.0000
  O   O8        1.0  0.24500  0.97500  0.75000  1.0000
  Tb  Tb1       1.0  0.44900  0.36000  0.25000  1.0000
  Tb  Tb2       1.0  0.05120  0.86000  0.25000  1.0000
  Tb  Tb3       1.0  0.94900  0.14000  0.75000  1.0000
  Tb  Tb4       1.0  0.55100  0.64000  0.75000  1.0000
