data_image0
_chemical_formula_structural       Li2Mo6Se6
_chemical_formula_sum              "Li2 Mo6 Se6"
_cell_length_a       8.88313
_cell_length_b       8.8829
_cell_length_c       4.5216
_cell_angle_alpha    90
_cell_angle_beta     90
_cell_angle_gamma    120

_space_group_name_H-M_alt    "P 1"
_space_group_IT_number       1

loop_
  _space_group_symop_operation_xyz
  'x, y, z'

loop_
  _atom_site_type_symbol
  _atom_site_label
  _atom_site_symmetry_multiplicity
  _atom_site_fract_x
  _atom_site_fract_y
  _atom_site_fract_z
  _atom_site_occupancy
  Li  Li1       1.0  0.33300  0.66700  0.25000  1.0000
  Li  Li2       1.0  0.66700  0.33300  0.75000  1.0000
  Mo  Mo1       1.0  0.84400  0.03010  0.25000  1.0000
  Mo  Mo2       1.0  0.18600  0.15600  0.25000  1.0000
  Mo  Mo3       1.0  0.97000  0.81400  0.25000  1.0000
  Mo  Mo4       1.0  0.03010  0.18600  0.75000  1.0000
  Mo  Mo5       1.0  0.81400  0.84400  0.75000  1.0000
  Mo  Mo6       1.0  0.15600  0.97000  0.75000  1.0000
  Se  Se1       1.0  0.05840  0.36800  0.25000  1.0000
  Se  Se2       1.0  0.63200  0.69000  0.25000  1.0000
  Se  Se3       1.0  0.31000  0.94200  0.25000  1.0000
  Se  Se4       1.0  0.69000  0.05840  0.75000  1.0000
  Se  Se5       1.0  0.36800  0.31000  0.75000  1.0000
  Se  Se6       1.0  0.94200  0.63200  0.75000  1.0000
