data_image0
_chemical_formula_structural       Eu5Li2O8
_chemical_formula_sum              "Eu5 Li2 O8"
_cell_length_a       3.49885
_cell_length_b       6.8714
_cell_length_c       8.6387
_cell_angle_alpha    95.4315
_cell_angle_beta     101.684
_cell_angle_gamma    104.75

_space_group_name_H-M_alt    "P 1"
_space_group_IT_number       1

loop_
  _space_group_symop_operation_xyz
  'x, y, z'

loop_
  _atom_site_type_symbol
  _atom_site_label
  _atom_site_symmetry_multiplicity
  _atom_site_fract_x
  _atom_site_fract_y
  _atom_site_fract_z
  _atom_site_occupancy
  Eu  Eu1       1.0  0.50000  0.00000  0.00000  1.0000
  Eu  Eu2       1.0  0.35100  0.52500  0.17700  1.0000
  Eu  Eu3       1.0  0.82300  0.21800  0.42700  1.0000
  Eu  Eu4       1.0  0.17700  0.78200  0.57300  1.0000
  Eu  Eu5       1.0  0.64900  0.47500  0.82300  1.0000
  Li  Li1       1.0  0.07250  0.88100  0.26400  1.0000
  Li  Li2       1.0  0.92800  0.11900  0.73600  1.0000
  O   O1        1.0  0.89100  0.72800  0.05490  1.0000
  O   O2        1.0  0.18600  0.16100  0.21100  1.0000
  O   O3        1.0  0.94200  0.53500  0.34800  1.0000
  O   O4        1.0  0.61900  0.86200  0.37600  1.0000
  O   O5        1.0  0.38100  0.13800  0.62400  1.0000
  O   O6        1.0  0.05840  0.46500  0.65200  1.0000
  O   O7        1.0  0.81400  0.83900  0.78900  1.0000
  O   O8        1.0  0.10900  0.27200  0.94500  1.0000
