data_image0
_chemical_formula_structural       Cs4I6Li2
_chemical_formula_sum              "Cs4 I6 Li2"
_cell_length_a       4.80138
_cell_length_b       8.6978
_cell_length_c       13.363
_cell_angle_alpha    90
_cell_angle_beta     79.6505
_cell_angle_gamma    90

_space_group_name_H-M_alt    "P 1"
_space_group_IT_number       1

loop_
  _space_group_symop_operation_xyz
  'x, y, z'

loop_
  _atom_site_type_symbol
  _atom_site_label
  _atom_site_symmetry_multiplicity
  _atom_site_fract_x
  _atom_site_fract_y
  _atom_site_fract_z
  _atom_site_occupancy
  Cs  Cs1       1.0  0.49500  0.01340  0.01050  1.0000
  Cs  Cs2       1.0  0.32400  0.50800  0.35200  1.0000
  Cs  Cs3       1.0  0.67600  0.00809  0.64800  1.0000
  Cs  Cs4       1.0  0.50500  0.51300  0.99000  1.0000
  I   I1        1.0  0.91400  0.27000  0.17100  1.0000
  I   I2        1.0  0.91200  0.76000  0.17700  1.0000
  I   I3        1.0  0.29200  0.02840  0.41600  1.0000
  I   I4        1.0  0.70800  0.52800  0.58400  1.0000
  I   I5        1.0  0.08840  0.26000  0.82300  1.0000
  I   I6        1.0  0.08560  0.77000  0.82900  1.0000
  Li  Li1       1.0  0.84900  0.01750  0.30300  1.0000
  Li  Li2       1.0  0.15100  0.51700  0.69700  1.0000
