data_image0
_chemical_formula_structural       Eu4Ge8Li4
_chemical_formula_sum              "Eu4 Ge8 Li4"
_cell_length_a       7.96167
_cell_length_b       3.9682
_cell_length_c       10.8442
_cell_angle_alpha    90
_cell_angle_beta     90
_cell_angle_gamma    90

_space_group_name_H-M_alt    "P 1"
_space_group_IT_number       1

loop_
  _space_group_symop_operation_xyz
  'x, y, z'

loop_
  _atom_site_type_symbol
  _atom_site_label
  _atom_site_symmetry_multiplicity
  _atom_site_fract_x
  _atom_site_fract_y
  _atom_site_fract_z
  _atom_site_occupancy
  Eu  Eu1       1.0  0.13600  0.25000  0.13500  1.0000
  Eu  Eu2       1.0  0.63600  0.25000  0.36500  1.0000
  Eu  Eu3       1.0  0.36400  0.75000  0.63500  1.0000
  Eu  Eu4       1.0  0.86400  0.75000  0.86500  1.0000
  Ge  Ge1       1.0  0.72600  0.25000  0.06390  1.0000
  Ge  Ge2       1.0  0.83800  0.75000  0.17800  1.0000
  Ge  Ge3       1.0  0.33800  0.75000  0.32200  1.0000
  Ge  Ge4       1.0  0.22600  0.25000  0.43600  1.0000
  Ge  Ge5       1.0  0.77400  0.75000  0.56400  1.0000
  Ge  Ge6       1.0  0.66200  0.25000  0.67800  1.0000
  Ge  Ge7       1.0  0.16200  0.25000  0.82200  1.0000
  Ge  Ge8       1.0  0.27400  0.75000  0.93600  1.0000
  Li  Li1       1.0  0.50400  0.75000  0.11200  1.0000
  Li  Li2       1.0  0.00383  0.75000  0.38800  1.0000
  Li  Li3       1.0  0.99600  0.25000  0.61200  1.0000
  Li  Li4       1.0  0.49600  0.25000  0.88800  1.0000
