data_image0
_chemical_formula_structural       Ce4Li4Si8
_chemical_formula_sum              "Ce4 Li4 Si8"
_cell_length_a       7.74883
_cell_length_b       3.89355
_cell_length_c       10.6949
_cell_angle_alpha    90
_cell_angle_beta     90
_cell_angle_gamma    90

_space_group_name_H-M_alt    "P 1"
_space_group_IT_number       1

loop_
  _space_group_symop_operation_xyz
  'x, y, z'

loop_
  _atom_site_type_symbol
  _atom_site_label
  _atom_site_symmetry_multiplicity
  _atom_site_fract_x
  _atom_site_fract_y
  _atom_site_fract_z
  _atom_site_occupancy
  Ce  Ce1       1.0  0.14000  0.25000  0.13400  1.0000
  Ce  Ce2       1.0  0.64000  0.25000  0.36600  1.0000
  Ce  Ce3       1.0  0.36000  0.75000  0.63400  1.0000
  Ce  Ce4       1.0  0.86000  0.75000  0.86600  1.0000
  Li  Li1       1.0  0.50300  0.75000  0.11100  1.0000
  Li  Li2       1.0  0.00286  0.75000  0.38900  1.0000
  Li  Li3       1.0  0.99700  0.25000  0.61100  1.0000
  Li  Li4       1.0  0.49700  0.25000  0.88900  1.0000
  Si  Si1       1.0  0.72300  0.25000  0.07270  1.0000
  Si  Si2       1.0  0.83400  0.75000  0.17700  1.0000
  Si  Si3       1.0  0.33400  0.75000  0.32300  1.0000
  Si  Si4       1.0  0.22300  0.25000  0.42700  1.0000
  Si  Si5       1.0  0.77700  0.75000  0.57300  1.0000
  Si  Si6       1.0  0.66600  0.25000  0.67700  1.0000
  Si  Si7       1.0  0.16600  0.25000  0.82300  1.0000
  Si  Si8       1.0  0.27700  0.75000  0.92700  1.0000
