data_image0
_chemical_formula_structural       Li8O8Ti2
_chemical_formula_sum              "Li8 O8 Ti2"
_cell_length_a       5.366
_cell_length_b       5.366
_cell_length_c       6.12
_cell_angle_alpha    90
_cell_angle_beta     90
_cell_angle_gamma    94.1136

_space_group_name_H-M_alt    "P 1"
_space_group_IT_number       1

loop_
  _space_group_symop_operation_xyz
  'x, y, z'

loop_
  _atom_site_type_symbol
  _atom_site_label
  _atom_site_symmetry_multiplicity
  _atom_site_fract_x
  _atom_site_fract_y
  _atom_site_fract_z
  _atom_site_occupancy
  Li  Li1       1.0  0.84200  0.15800  0.00000  1.0000
  Li  Li2       1.0  0.15800  0.84200  0.00000  1.0000
  Li  Li3       1.0  0.88100  0.58500  0.25000  1.0000
  Li  Li4       1.0  0.58500  0.88100  0.25000  1.0000
  Li  Li5       1.0  0.84200  0.15800  0.50000  1.0000
  Li  Li6       1.0  0.15800  0.84200  0.50000  1.0000
  Li  Li7       1.0  0.41500  0.11900  0.75000  1.0000
  Li  Li8       1.0  0.11900  0.41500  0.75000  1.0000
  O   O1        1.0  0.20300  0.20300  0.00000  1.0000
  O   O2        1.0  0.79700  0.79700  0.00030  1.0000
  O   O3        1.0  0.67400  0.27000  0.25000  1.0000
  O   O4        1.0  0.27000  0.67400  0.25000  1.0000
  O   O5        1.0  0.79700  0.79700  0.50000  1.0000
  O   O6        1.0  0.20300  0.20300  0.50000  1.0000
  O   O7        1.0  0.73000  0.32600  0.75000  1.0000
  O   O8        1.0  0.32600  0.73000  0.75000  1.0000
  Ti  Ti1       1.0  0.34300  0.34300  0.25000  1.0000
  Ti  Ti2       1.0  0.65700  0.65700  0.75000  1.0000
