data_image0
_chemical_formula_structural       H10Li8Rh2
_chemical_formula_sum              "H10 Li8 Rh2"
_cell_length_a       3.86914
_cell_length_b       4.87964
_cell_length_c       8.9708
_cell_angle_alpha    90
_cell_angle_beta     90
_cell_angle_gamma    66.643

_space_group_name_H-M_alt    "P 1"
_space_group_IT_number       1

loop_
  _space_group_symop_operation_xyz
  'x, y, z'

loop_
  _atom_site_type_symbol
  _atom_site_label
  _atom_site_symmetry_multiplicity
  _atom_site_fract_x
  _atom_site_fract_y
  _atom_site_fract_z
  _atom_site_occupancy
  H   H1        1.0  0.63300  0.73400  0.10300  1.0000
  H   H2        1.0  0.90800  0.18300  0.11800  1.0000
  H   H3        1.0  0.26400  0.47100  0.25000  1.0000
  H   H4        1.0  0.90800  0.18300  0.38200  1.0000
  H   H5        1.0  0.63300  0.73400  0.39700  1.0000
  H   H6        1.0  0.36700  0.26600  0.60300  1.0000
  H   H7        1.0  0.09160  0.81700  0.61800  1.0000
  H   H8        1.0  0.73600  0.52900  0.75000  1.0000
  H   H9        1.0  0.09160  0.81700  0.88200  1.0000
  H   H10       1.0  0.36700  0.26600  0.89700  1.0000
  Li  Li1       1.0  0.13100  0.73800  0.08880  1.0000
  Li  Li2       1.0  0.42200  0.15600  0.11500  1.0000
  Li  Li3       1.0  0.42200  0.15600  0.38500  1.0000
  Li  Li4       1.0  0.13100  0.73800  0.41100  1.0000
  Li  Li5       1.0  0.86900  0.26200  0.58900  1.0000
  Li  Li6       1.0  0.57800  0.84400  0.61500  1.0000
  Li  Li7       1.0  0.57800  0.84400  0.88500  1.0000
  Li  Li8       1.0  0.86900  0.26200  0.91100  1.0000
  Rh  Rh1       1.0  0.76600  0.46700  0.25000  1.0000
  Rh  Rh2       1.0  0.23400  0.53300  0.75000  1.0000
