data_image0
_chemical_formula_structural       B4Li4Se10
_chemical_formula_sum              "B4 Li4 Se10"
_cell_length_a       5.32415
_cell_length_b       6.00465
_cell_length_c       12.1337
_cell_angle_alpha    100.216
_cell_angle_beta     102.673
_cell_angle_gamma    63.6831

_space_group_name_H-M_alt    "P 1"
_space_group_IT_number       1

loop_
  _space_group_symop_operation_xyz
  'x, y, z'

loop_
  _atom_site_type_symbol
  _atom_site_label
  _atom_site_symmetry_multiplicity
  _atom_site_fract_x
  _atom_site_fract_y
  _atom_site_fract_z
  _atom_site_occupancy
  B   B1        1.0  0.58800  0.92600  0.20700  1.0000
  B   B2        1.0  0.30700  0.57400  0.29300  1.0000
  B   B3        1.0  0.69300  0.42600  0.70700  1.0000
  B   B4        1.0  0.41200  0.07360  0.79300  1.0000
  Li  Li1       1.0  0.85600  0.31800  0.06710  1.0000
  Li  Li2       1.0  0.10600  0.18200  0.43300  1.0000
  Li  Li3       1.0  0.89400  0.81800  0.56700  1.0000
  Li  Li4       1.0  0.14400  0.68200  0.93300  1.0000
  Se  Se1       1.0  0.73100  0.92900  0.06130  1.0000
  Se  Se2       1.0  0.43100  0.65300  0.16000  1.0000
  Se  Se3       1.0  0.24400  0.25000  0.25000  1.0000
  Se  Se4       1.0  0.92400  0.84700  0.34000  1.0000
  Se  Se5       1.0  0.59900  0.57100  0.43900  1.0000
  Se  Se6       1.0  0.40100  0.42900  0.56100  1.0000
  Se  Se7       1.0  0.07570  0.15300  0.66000  1.0000
  Se  Se8       1.0  0.75600  0.75000  0.75000  1.0000
  Se  Se9       1.0  0.56900  0.34700  0.84000  1.0000
  Se  Se10      1.0  0.26900  0.07070  0.93900  1.0000
