data_image0
_chemical_formula_structural       Ga4Li4Se8
_chemical_formula_sum              "Ga4 Li4 Se8"
_cell_length_a       6.92162
_cell_length_b       8.31591
_cell_length_c       6.62137
_cell_angle_alpha    90
_cell_angle_beta     90
_cell_angle_gamma    90

_space_group_name_H-M_alt    "P 1"
_space_group_IT_number       1

loop_
  _space_group_symop_operation_xyz
  'x, y, z'

loop_
  _atom_site_type_symbol
  _atom_site_label
  _atom_site_symmetry_multiplicity
  _atom_site_fract_x
  _atom_site_fract_y
  _atom_site_fract_z
  _atom_site_occupancy
  Ga  Ga1       1.0  0.92700  0.12600  0.12300  1.0000
  Ga  Ga2       1.0  0.42700  0.37400  0.12300  1.0000
  Ga  Ga3       1.0  0.57300  0.62600  0.62300  1.0000
  Ga  Ga4       1.0  0.07320  0.87400  0.62300  1.0000
  Li  Li1       1.0  0.91100  0.62200  0.11900  1.0000
  Li  Li2       1.0  0.41100  0.87800  0.11900  1.0000
  Li  Li3       1.0  0.58900  0.12200  0.61900  1.0000
  Li  Li4       1.0  0.08880  0.37800  0.61900  1.0000
  Se  Se1       1.0  0.59200  0.13300  0.00466  1.0000
  Se  Se2       1.0  0.09230  0.36700  0.00466  1.0000
  Se  Se3       1.0  0.93400  0.12100  0.49200  1.0000
  Se  Se4       1.0  0.43400  0.37900  0.49200  1.0000
  Se  Se5       1.0  0.90800  0.63300  0.50500  1.0000
  Se  Se6       1.0  0.40800  0.86700  0.50500  1.0000
  Se  Se7       1.0  0.56600  0.62100  0.99200  1.0000
  Se  Se8       1.0  0.06630  0.87900  0.99200  1.0000
