data_image0
_chemical_formula_structural       C4Li4O8
_chemical_formula_sum              "C4 Li4 O8"
_cell_length_a       3.30176
_cell_length_b       5.09189
_cell_length_c       9.10032
_cell_angle_alpha    90
_cell_angle_beta     96.4099
_cell_angle_gamma    90

_space_group_name_H-M_alt    "P 1"
_space_group_IT_number       1

loop_
  _space_group_symop_operation_xyz
  'x, y, z'

loop_
  _atom_site_type_symbol
  _atom_site_label
  _atom_site_symmetry_multiplicity
  _atom_site_fract_x
  _atom_site_fract_y
  _atom_site_fract_z
  _atom_site_occupancy
  C   C1        1.0  0.10600  0.13500  0.00849  1.0000
  C   C2        1.0  0.39400  0.63500  0.49200  1.0000
  C   C3        1.0  0.60600  0.36500  0.50800  1.0000
  C   C4        1.0  0.89400  0.86500  0.99200  1.0000
  Li  Li1       1.0  0.56000  0.48400  0.21200  1.0000
  Li  Li2       1.0  0.94000  0.98400  0.28800  1.0000
  Li  Li3       1.0  0.06010  0.01610  0.71200  1.0000
  Li  Li4       1.0  0.44000  0.51600  0.78800  1.0000
  O   O1        1.0  0.75400  0.77500  0.10400  1.0000
  O   O2        1.0  0.12700  0.24200  0.13500  1.0000
  O   O3        1.0  0.37300  0.74200  0.36500  1.0000
  O   O4        1.0  0.74600  0.27500  0.39600  1.0000
  O   O5        1.0  0.25400  0.72500  0.60400  1.0000
  O   O6        1.0  0.62700  0.25800  0.63500  1.0000
  O   O7        1.0  0.87300  0.75800  0.86500  1.0000
  O   O8        1.0  0.24600  0.22500  0.89600  1.0000
