data_image0
_chemical_formula_structural       Au6Li2Sn8
_chemical_formula_sum              "Au6 Li2 Sn8"
_cell_length_a       4.57749
_cell_length_b       4.57743
_cell_length_c       20.9577
_cell_angle_alpha    90
_cell_angle_beta     90
_cell_angle_gamma    120

_space_group_name_H-M_alt    "P 1"
_space_group_IT_number       1

loop_
  _space_group_symop_operation_xyz
  'x, y, z'

loop_
  _atom_site_type_symbol
  _atom_site_label
  _atom_site_symmetry_multiplicity
  _atom_site_fract_x
  _atom_site_fract_y
  _atom_site_fract_z
  _atom_site_occupancy
  Au  Au1       1.0  0.00000  0.00000  0.16500  1.0000
  Au  Au2       1.0  0.33300  0.66700  0.34400  1.0000
  Au  Au3       1.0  0.33300  0.66700  0.48400  1.0000
  Au  Au4       1.0  0.00000  0.00000  0.66500  1.0000
  Au  Au5       1.0  0.66700  0.33300  0.84400  1.0000
  Au  Au6       1.0  0.66700  0.33300  0.98400  1.0000
  Li  Li1       1.0  0.33300  0.66700  0.21200  1.0000
  Li  Li2       1.0  0.66700  0.33300  0.71200  1.0000
  Sn  Sn1       1.0  0.00002  0.00003  0.02910  1.0000
  Sn  Sn2       1.0  0.66700  0.33300  0.12500  1.0000
  Sn  Sn3       1.0  0.00000  0.00000  0.29600  1.0000
  Sn  Sn4       1.0  0.66700  0.33300  0.40800  1.0000
  Sn  Sn5       1.0  0.00000  0.00000  0.52900  1.0000
  Sn  Sn6       1.0  0.33300  0.66700  0.62500  1.0000
  Sn  Sn7       1.0  0.00001  0.00002  0.79600  1.0000
  Sn  Sn8       1.0  0.33300  0.66700  0.90800  1.0000
