data_image0
_chemical_formula_structural       Al4Li4Se8
_chemical_formula_sum              "Al4 Li4 Se8"
_cell_length_a       6.86189
_cell_length_b       8.32302
_cell_length_c       6.57866
_cell_angle_alpha    90
_cell_angle_beta     90
_cell_angle_gamma    90

_space_group_name_H-M_alt    "P 1"
_space_group_IT_number       1

loop_
  _space_group_symop_operation_xyz
  'x, y, z'

loop_
  _atom_site_type_symbol
  _atom_site_label
  _atom_site_symmetry_multiplicity
  _atom_site_fract_x
  _atom_site_fract_y
  _atom_site_fract_z
  _atom_site_occupancy
  Al  Al1       1.0  0.07300  0.12600  0.99900  1.0000
  Al  Al2       1.0  0.57300  0.37400  0.99900  1.0000
  Al  Al3       1.0  0.42700  0.62600  0.49900  1.0000
  Al  Al4       1.0  0.92700  0.87400  0.49900  1.0000
  Li  Li1       1.0  0.08560  0.62000  0.00312  1.0000
  Li  Li2       1.0  0.58600  0.88000  0.00312  1.0000
  Li  Li3       1.0  0.41400  0.12000  0.50300  1.0000
  Li  Li4       1.0  0.91400  0.38000  0.50300  1.0000
  Se  Se1       1.0  0.40700  0.13600  0.11500  1.0000
  Se  Se2       1.0  0.90700  0.36400  0.11500  1.0000
  Se  Se3       1.0  0.43500  0.61800  0.13200  1.0000
  Se  Se4       1.0  0.93500  0.88200  0.13200  1.0000
  Se  Se5       1.0  0.09300  0.63600  0.61500  1.0000
  Se  Se6       1.0  0.59300  0.86400  0.61500  1.0000
  Se  Se7       1.0  0.06470  0.11800  0.63200  1.0000
  Se  Se8       1.0  0.56500  0.38200  0.63200  1.0000
