data_image0
_chemical_formula_structural       Li12O8Zn2
_chemical_formula_sum              "Li12 O8 Zn2"
_cell_length_a       6.51173
_cell_length_b       6.51173
_cell_length_c       4.63572
_cell_angle_alpha    90
_cell_angle_beta     90
_cell_angle_gamma    90

_space_group_name_H-M_alt    "P 1"
_space_group_IT_number       1

loop_
  _space_group_symop_operation_xyz
  'x, y, z'

loop_
  _atom_site_type_symbol
  _atom_site_label
  _atom_site_symmetry_multiplicity
  _atom_site_fract_x
  _atom_site_fract_y
  _atom_site_fract_z
  _atom_site_occupancy
  Li  Li1       1.0  0.25000  0.25000  0.20700  1.0000
  Li  Li2       1.0  0.53200  0.03180  0.25000  1.0000
  Li  Li3       1.0  0.96800  0.03180  0.25000  1.0000
  Li  Li4       1.0  0.53200  0.46800  0.25000  1.0000
  Li  Li5       1.0  0.96800  0.46800  0.25000  1.0000
  Li  Li6       1.0  0.75000  0.75000  0.29300  1.0000
  Li  Li7       1.0  0.25000  0.25000  0.70700  1.0000
  Li  Li8       1.0  0.03180  0.53200  0.75000  1.0000
  Li  Li9       1.0  0.46800  0.53200  0.75000  1.0000
  Li  Li10      1.0  0.03180  0.96800  0.75000  1.0000
  Li  Li11      1.0  0.46800  0.96800  0.75000  1.0000
  Li  Li12      1.0  0.75000  0.75000  0.79300  1.0000
  O   O1        1.0  0.51400  0.75000  0.03260  1.0000
  O   O2        1.0  0.98600  0.75000  0.03260  1.0000
  O   O3        1.0  0.25000  0.01400  0.46700  1.0000
  O   O4        1.0  0.25000  0.48600  0.46700  1.0000
  O   O5        1.0  0.75000  0.51400  0.53300  1.0000
  O   O6        1.0  0.75000  0.98600  0.53300  1.0000
  O   O7        1.0  0.01400  0.25000  0.96700  1.0000
  O   O8        1.0  0.48600  0.25000  0.96700  1.0000
  Zn  Zn1       1.0  0.25000  0.75000  0.25000  1.0000
  Zn  Zn2       1.0  0.75000  0.25000  0.75000  1.0000
