data_image0
_chemical_formula_structural       Al4Li4S8
_chemical_formula_sum              "Al4 Li4 S8"
_cell_length_a       6.49755
_cell_length_b       7.88135
_cell_length_c       6.21266
_cell_angle_alpha    90
_cell_angle_beta     90
_cell_angle_gamma    90

_space_group_name_H-M_alt    "P 1"
_space_group_IT_number       1

loop_
  _space_group_symop_operation_xyz
  'x, y, z'

loop_
  _atom_site_type_symbol
  _atom_site_label
  _atom_site_symmetry_multiplicity
  _atom_site_fract_x
  _atom_site_fract_y
  _atom_site_fract_z
  _atom_site_occupancy
  Al  Al1       1.0  0.42600  0.62600  0.12100  1.0000
  Al  Al2       1.0  0.92600  0.87400  0.12100  1.0000
  Al  Al3       1.0  0.07380  0.12600  0.62100  1.0000
  Al  Al4       1.0  0.57400  0.37400  0.62100  1.0000
  Li  Li1       1.0  0.41700  0.12200  0.11800  1.0000
  Li  Li2       1.0  0.91700  0.37800  0.11800  1.0000
  Li  Li3       1.0  0.08280  0.62200  0.61800  1.0000
  Li  Li4       1.0  0.58300  0.87800  0.61800  1.0000
  S   S1        1.0  0.09370  0.63800  0.00955  1.0000
  S   S2        1.0  0.59400  0.86200  0.00955  1.0000
  S   S3        1.0  0.43500  0.61500  0.48700  1.0000
  S   S4        1.0  0.93500  0.88500  0.48700  1.0000
  S   S5        1.0  0.40600  0.13800  0.51000  1.0000
  S   S6        1.0  0.90600  0.36200  0.51000  1.0000
  S   S7        1.0  0.06550  0.11500  0.98700  1.0000
  S   S8        1.0  0.56500  0.38500  0.98700  1.0000
