data_image0
_chemical_formula_structural       Li8O10Te2
_chemical_formula_sum              "Li8 O10 Te2"
_cell_length_a       5.14354
_cell_length_b       7.75085
_cell_length_c       5.09889
_cell_angle_alpha    101.977
_cell_angle_beta     101.516
_cell_angle_gamma    107.858

_space_group_name_H-M_alt    "P 1"
_space_group_IT_number       1

loop_
  _space_group_symop_operation_xyz
  'x, y, z'

loop_
  _atom_site_type_symbol
  _atom_site_label
  _atom_site_symmetry_multiplicity
  _atom_site_fract_x
  _atom_site_fract_y
  _atom_site_fract_z
  _atom_site_occupancy
  Li  Li1       1.0  0.00000  0.50000  0.00000  1.0000
  Li  Li2       1.0  0.39700  0.89000  0.22700  1.0000
  Li  Li3       1.0  0.61100  0.60300  0.29600  1.0000
  Li  Li4       1.0  0.80500  0.31600  0.42700  1.0000
  Li  Li5       1.0  0.00000  1.00000  0.50000  1.0000
  Li  Li6       1.0  0.19500  0.68400  0.57300  1.0000
  Li  Li7       1.0  0.38900  0.39700  0.70400  1.0000
  Li  Li8       1.0  0.60300  0.11000  0.77300  1.0000
  O   O1        1.0  0.56800  0.33300  0.05100  1.0000
  O   O2        1.0  0.82600  0.04470  0.13400  1.0000
  O   O3        1.0  0.99100  0.75100  0.22300  1.0000
  O   O4        1.0  0.18500  0.43100  0.33800  1.0000
  O   O5        1.0  0.39100  0.15200  0.42700  1.0000
  O   O6        1.0  0.60900  0.84800  0.57300  1.0000
  O   O7        1.0  0.81500  0.56900  0.66200  1.0000
  O   O8        1.0  0.00914  0.24900  0.77700  1.0000
  O   O9        1.0  0.17400  0.95500  0.86600  1.0000
  O   O10       1.0  0.43200  0.66700  0.94900  1.0000
  Te  Te1       1.0  0.21200  0.21300  0.10900  1.0000
  Te  Te2       1.0  0.78800  0.78700  0.89100  1.0000
