data_image0
_chemical_formula_structural       Ba4Ge8Li4
_chemical_formula_sum              "Ba4 Ge8 Li4"
_cell_length_a       7.461
_cell_length_b       4.63524
_cell_length_c       11.9078
_cell_angle_alpha    90
_cell_angle_beta     90
_cell_angle_gamma    90

_space_group_name_H-M_alt    "P 1"
_space_group_IT_number       1

loop_
  _space_group_symop_operation_xyz
  'x, y, z'

loop_
  _atom_site_type_symbol
  _atom_site_label
  _atom_site_symmetry_multiplicity
  _atom_site_fract_x
  _atom_site_fract_y
  _atom_site_fract_z
  _atom_site_occupancy
  Ba  Ba1       1.0  0.86500  0.75000  0.14000  1.0000
  Ba  Ba2       1.0  0.36500  0.75000  0.36000  1.0000
  Ba  Ba3       1.0  0.63500  0.25000  0.64000  1.0000
  Ba  Ba4       1.0  0.13500  0.25000  0.86000  1.0000
  Ge  Ge1       1.0  0.20000  0.25000  0.15200  1.0000
  Ge  Ge2       1.0  0.53400  0.25000  0.16000  1.0000
  Ge  Ge3       1.0  0.03450  0.25000  0.34000  1.0000
  Ge  Ge4       1.0  0.70000  0.25000  0.34800  1.0000
  Ge  Ge5       1.0  0.30000  0.75000  0.65200  1.0000
  Ge  Ge6       1.0  0.96600  0.75000  0.66000  1.0000
  Ge  Ge7       1.0  0.46600  0.75000  0.84000  1.0000
  Ge  Ge8       1.0  0.80000  0.75000  0.84800  1.0000
  Li  Li1       1.0  0.38300  0.75000  0.06200  1.0000
  Li  Li2       1.0  0.88300  0.75000  0.43800  1.0000
  Li  Li3       1.0  0.11700  0.25000  0.56200  1.0000
  Li  Li4       1.0  0.61700  0.25000  0.93800  1.0000
