data_image0
_chemical_formula_structural       Cs4I8Li4
_chemical_formula_sum              "Cs4 I8 Li4"
_cell_length_a       4.6488
_cell_length_b       10.6222
_cell_length_c       13.6537
_cell_angle_alpha    90
_cell_angle_beta     90
_cell_angle_gamma    77.36

_space_group_name_H-M_alt    "P 1"
_space_group_IT_number       1

loop_
  _space_group_symop_operation_xyz
  'x, y, z'

loop_
  _atom_site_type_symbol
  _atom_site_label
  _atom_site_symmetry_multiplicity
  _atom_site_fract_x
  _atom_site_fract_y
  _atom_site_fract_z
  _atom_site_occupancy
  Cs  Cs1       1.0  0.34400  0.31100  0.01480  1.0000
  Cs  Cs2       1.0  0.51000  0.98100  0.23800  1.0000
  Cs  Cs3       1.0  0.65600  0.68900  0.51500  1.0000
  Cs  Cs4       1.0  0.49000  0.01940  0.73800  1.0000
  I   I1        1.0  0.69200  0.61700  0.01860  1.0000
  I   I2        1.0  0.85300  0.29300  0.24500  1.0000
  I   I3        1.0  0.16100  0.67800  0.28300  1.0000
  I   I4        1.0  0.99900  0.00261  0.49400  1.0000
  I   I5        1.0  0.30800  0.38300  0.51900  1.0000
  I   I6        1.0  0.14700  0.70700  0.74500  1.0000
  I   I7        1.0  0.83900  0.32200  0.78300  1.0000
  I   I8        1.0  0.00130  0.99700  0.99400  1.0000
  Li  Li1       1.0  0.72100  0.55700  0.21600  1.0000
  Li  Li2       1.0  0.86900  0.26100  0.45000  1.0000
  Li  Li3       1.0  0.27900  0.44300  0.71600  1.0000
  Li  Li4       1.0  0.13100  0.73900  0.95000  1.0000
