data_image0
_chemical_formula_structural       Eu4Li4O8
_chemical_formula_sum              "Eu4 Li4 O8"
_cell_length_a       11.5247
_cell_length_b       3.40563
_cell_length_c       5.36675
_cell_angle_alpha    90
_cell_angle_beta     90
_cell_angle_gamma    90

_space_group_name_H-M_alt    "P 1"
_space_group_IT_number       1

loop_
  _space_group_symop_operation_xyz
  'x, y, z'

loop_
  _atom_site_type_symbol
  _atom_site_label
  _atom_site_symmetry_multiplicity
  _atom_site_fract_x
  _atom_site_fract_y
  _atom_site_fract_z
  _atom_site_occupancy
  Eu  Eu1       1.0  0.36300  0.25000  0.06080  1.0000
  Eu  Eu2       1.0  0.86300  0.25000  0.43900  1.0000
  Eu  Eu3       1.0  0.13700  0.75000  0.56100  1.0000
  Eu  Eu4       1.0  0.63700  0.75000  0.93900  1.0000
  Li  Li1       1.0  0.06280  0.25000  0.10300  1.0000
  Li  Li2       1.0  0.56300  0.25000  0.39700  1.0000
  Li  Li3       1.0  0.43700  0.75000  0.60300  1.0000
  Li  Li4       1.0  0.93700  0.75000  0.89700  1.0000
  O   O1        1.0  0.69600  0.25000  0.20200  1.0000
  O   O2        1.0  0.98200  0.75000  0.24100  1.0000
  O   O3        1.0  0.48200  0.75000  0.25900  1.0000
  O   O4        1.0  0.19600  0.25000  0.29800  1.0000
  O   O5        1.0  0.80400  0.75000  0.70200  1.0000
  O   O6        1.0  0.51800  0.25000  0.74100  1.0000
  O   O7        1.0  0.01800  0.25000  0.75900  1.0000
  O   O8        1.0  0.30400  0.75000  0.79800  1.0000
