data_image0
_chemical_formula_structural       H12Li8Os2
_chemical_formula_sum              "H12 Li8 Os2"
_cell_length_a       5.61853
_cell_length_b       5.61853
_cell_length_c       5.61853
_cell_angle_alpha    90.1734
_cell_angle_beta     89.8266
_cell_angle_gamma    90.1734

_space_group_name_H-M_alt    "P 1"
_space_group_IT_number       1

loop_
  _space_group_symop_operation_xyz
  'x, y, z'

loop_
  _atom_site_type_symbol
  _atom_site_label
  _atom_site_symmetry_multiplicity
  _atom_site_fract_x
  _atom_site_fract_y
  _atom_site_fract_z
  _atom_site_occupancy
  H   H1        1.0  0.70300  0.06040  0.05030  1.0000
  H   H2        1.0  0.95000  0.70300  0.06040  1.0000
  H   H3        1.0  0.55000  0.56000  0.20300  1.0000
  H   H4        1.0  0.06040  0.05030  0.29700  1.0000
  H   H5        1.0  0.20300  0.45000  0.44000  1.0000
  H   H6        1.0  0.56000  0.20300  0.45000  1.0000
  H   H7        1.0  0.44000  0.79700  0.55000  1.0000
  H   H8        1.0  0.79700  0.55000  0.56000  1.0000
  H   H9        1.0  0.94000  0.95000  0.70300  1.0000
  H   H10       1.0  0.45000  0.44000  0.79700  1.0000
  H   H11       1.0  0.05030  0.29700  0.94000  1.0000
  H   H12       1.0  0.29700  0.94000  0.95000  1.0000
  Li  Li1       1.0  0.37900  0.25000  0.12100  1.0000
  Li  Li2       1.0  0.25000  0.75000  0.25000  1.0000
  Li  Li3       1.0  0.87900  0.37900  0.25000  1.0000
  Li  Li4       1.0  0.75000  0.87900  0.37900  1.0000
  Li  Li5       1.0  0.25000  0.12100  0.62100  1.0000
  Li  Li6       1.0  0.12100  0.62100  0.75000  1.0000
  Li  Li7       1.0  0.75000  0.25000  0.75000  1.0000
  Li  Li8       1.0  0.62100  0.75000  0.87900  1.0000
  Os  Os1       1.0  0.00000  0.00000  0.00000  1.0000
  Os  Os2       1.0  0.50000  0.50000  0.50000  1.0000
