data_image0
_chemical_formula_structural       Li2Pd4Sn12
_chemical_formula_sum              "Li2 Pd4 Sn12"
_cell_length_a       6.74491
_cell_length_b       6.74491
_cell_length_c       8.75972
_cell_angle_alpha    90
_cell_angle_beta     90
_cell_angle_gamma    90

_space_group_name_H-M_alt    "P 1"
_space_group_IT_number       1

loop_
  _space_group_symop_operation_xyz
  'x, y, z'

loop_
  _atom_site_type_symbol
  _atom_site_label
  _atom_site_symmetry_multiplicity
  _atom_site_fract_x
  _atom_site_fract_y
  _atom_site_fract_z
  _atom_site_occupancy
  Li  Li1       1.0  0.00000  0.00000  0.50000  1.0000
  Li  Li2       1.0  0.50000  0.50000  0.50000  1.0000
  Pd  Pd1       1.0  0.00000  0.00000  0.17900  1.0000
  Pd  Pd2       1.0  0.50000  0.50000  0.17900  1.0000
  Pd  Pd3       1.0  0.00000  0.00000  0.82100  1.0000
  Pd  Pd4       1.0  0.50000  0.50000  0.82100  1.0000
  Sn  Sn1       1.0  0.33700  0.16300  0.00000  1.0000
  Sn  Sn2       1.0  0.83700  0.33700  0.00000  1.0000
  Sn  Sn3       1.0  0.16300  0.66300  0.00000  1.0000
  Sn  Sn4       1.0  0.66300  0.83700  0.00000  1.0000
  Sn  Sn5       1.0  0.65900  0.15900  0.32100  1.0000
  Sn  Sn6       1.0  0.15900  0.34100  0.32100  1.0000
  Sn  Sn7       1.0  0.84100  0.65900  0.32100  1.0000
  Sn  Sn8       1.0  0.34100  0.84100  0.32100  1.0000
  Sn  Sn9       1.0  0.65900  0.15900  0.67900  1.0000
  Sn  Sn10      1.0  0.15900  0.34100  0.67900  1.0000
  Sn  Sn11      1.0  0.84100  0.65900  0.67900  1.0000
  Sn  Sn12      1.0  0.34100  0.84100  0.67900  1.0000
