data_image0
_chemical_formula_structural       Mg4Pt4
_chemical_formula_sum              "Mg4 Pt4"
_cell_length_a       5.06041
_cell_length_b       5.06041
_cell_length_c       5.06041
_cell_angle_alpha    90
_cell_angle_beta     90
_cell_angle_gamma    90

_space_group_name_H-M_alt    "P 1"
_space_group_IT_number       1

loop_
  _space_group_symop_operation_xyz
  'x, y, z'

loop_
  _atom_site_type_symbol
  _atom_site_label
  _atom_site_symmetry_multiplicity
  _atom_site_fract_x
  _atom_site_fract_y
  _atom_site_fract_z
  _atom_site_occupancy
  Mg  Mg1       1.0  0.34400  0.65600  0.15600  1.0000
  Mg  Mg2       1.0  0.65600  0.15600  0.34400  1.0000
  Mg  Mg3       1.0  0.15600  0.34400  0.65600  1.0000
  Mg  Mg4       1.0  0.84400  0.84400  0.84400  1.0000
  Pt  Pt1       1.0  0.14900  0.14900  0.14900  1.0000
  Pt  Pt2       1.0  0.85100  0.64900  0.35100  1.0000
  Pt  Pt3       1.0  0.35100  0.85100  0.64900  1.0000
  Pt  Pt4       1.0  0.64900  0.35100  0.85100  1.0000
