data_image0
_chemical_formula_structural       H4K2MgMo2O10
_chemical_formula_sum              "H4 K2 Mg1 Mo2 O10"
_cell_length_a       6.7862
_cell_length_b       6.15444
_cell_length_c       7.39947
_cell_angle_alpha    126.678
_cell_angle_beta     91.0676
_cell_angle_gamma    105.429

_space_group_name_H-M_alt    "P 1"
_space_group_IT_number       1

loop_
  _space_group_symop_operation_xyz
  'x, y, z'

loop_
  _atom_site_type_symbol
  _atom_site_label
  _atom_site_symmetry_multiplicity
  _atom_site_fract_x
  _atom_site_fract_y
  _atom_site_fract_z
  _atom_site_occupancy
  H   H1        1.0  0.38000  0.38100  0.10800  1.0000
  H   H2        1.0  0.69600  0.89200  0.15400  1.0000
  H   H3        1.0  0.30400  0.10800  0.84600  1.0000
  H   H4        1.0  0.62000  0.61900  0.89200  1.0000
  K   K1        1.0  0.24100  0.81600  0.30500  1.0000
  K   K2        1.0  0.75900  0.18400  0.69500  1.0000
  Mg  Mg1       1.0  0.00000  0.00000  0.00000  1.0000
  Mo  Mo1       1.0  0.74900  0.45900  0.34400  1.0000
  Mo  Mo2       1.0  0.25100  0.54100  0.65600  1.0000
  O   O1        1.0  0.75100  0.75900  0.02060  1.0000
  O   O2        1.0  0.87900  0.32800  0.10800  1.0000
  O   O3        1.0  0.57700  0.60300  0.30100  1.0000
  O   O4        1.0  0.60500  0.16000  0.33000  1.0000
  O   O5        1.0  0.07920  0.24100  0.37500  1.0000
  O   O6        1.0  0.92100  0.75900  0.62500  1.0000
  O   O7        1.0  0.39500  0.84000  0.67000  1.0000
  O   O8        1.0  0.42300  0.39700  0.69900  1.0000
  O   O9        1.0  0.12100  0.67200  0.89200  1.0000
  O   O10       1.0  0.24900  0.24100  0.97900  1.0000
