data_image0
_chemical_formula_structural       AsCa2I
_chemical_formula_sum              "As1 Ca2 I1"
_cell_length_a       4.40345
_cell_length_b       4.40345
_cell_length_c       7.8841
_cell_angle_alpha    73.7839
_cell_angle_beta     106.216
_cell_angle_gamma    120

_space_group_name_H-M_alt    "P 1"
_space_group_IT_number       1

loop_
  _space_group_symop_operation_xyz
  'x, y, z'

loop_
  _atom_site_type_symbol
  _atom_site_label
  _atom_site_symmetry_multiplicity
  _atom_site_fract_x
  _atom_site_fract_y
  _atom_site_fract_z
  _atom_site_occupancy
  As  As1       1.0  0.50000  0.50000  0.50000  1.0000
  Ca  Ca1       1.0  0.76900  0.23100  0.30600  1.0000
  Ca  Ca2       1.0  0.23100  0.76900  0.69400  1.0000
  I   I1        1.0  0.00000  0.00000  0.00000  1.0000
