data_image0
_chemical_formula_structural       Cl2Cu
_chemical_formula_sum              "Cl2 Cu1"
_cell_length_a       3.29642
_cell_length_b       3.86407
_cell_length_c       5.91122
_cell_angle_alpha    98.8474
_cell_angle_beta     106.19
_cell_angle_gamma    64.7514

_space_group_name_H-M_alt    "P 1"
_space_group_IT_number       1

loop_
  _space_group_symop_operation_xyz
  'x, y, z'

loop_
  _atom_site_type_symbol
  _atom_site_label
  _atom_site_symmetry_multiplicity
  _atom_site_fract_x
  _atom_site_fract_y
  _atom_site_fract_z
  _atom_site_occupancy
  Cl  Cl1       1.0  0.50100  0.23900  0.24000  1.0000
  Cl  Cl2       1.0  0.49900  0.76100  0.76000  1.0000
  Cu  Cu1       1.0  0.00000  0.00000  0.00000  1.0000
