data_image0
_chemical_formula_structural       CaIn2Pu
_chemical_formula_sum              "Ca1 In2 Pu1"
_cell_length_a       5.37801
_cell_length_b       5.37801
_cell_length_c       5.37801
_cell_angle_alpha    59.86
_cell_angle_beta     59.86
_cell_angle_gamma    59.86

_space_group_name_H-M_alt    "P 1"
_space_group_IT_number       1

loop_
  _space_group_symop_operation_xyz
  'x, y, z'

loop_
  _atom_site_type_symbol
  _atom_site_label
  _atom_site_symmetry_multiplicity
  _atom_site_fract_x
  _atom_site_fract_y
  _atom_site_fract_z
  _atom_site_occupancy
  Ca  Ca1       1.0  0.25000  0.25000  0.25000  1.0000
  In  In1       1.0  0.50000  0.50000  0.50000  1.0000
  In  In2       1.0  0.00007  0.00007  0.00007  1.0000
  Pu  Pu1       1.0  0.75000  0.75000  0.75000  1.0000
