data_image0
_chemical_formula_structural       Ca2In4Pt2
_chemical_formula_sum              "Ca2 In4 Pt2"
_cell_length_a       4.42927
_cell_length_b       5.69478
_cell_length_c       7.89851
_cell_angle_alpha    90
_cell_angle_beta     90
_cell_angle_gamma    67.1146

_space_group_name_H-M_alt    "P 1"
_space_group_IT_number       1

loop_
  _space_group_symop_operation_xyz
  'x, y, z'

loop_
  _atom_site_type_symbol
  _atom_site_label
  _atom_site_symmetry_multiplicity
  _atom_site_fract_x
  _atom_site_fract_y
  _atom_site_fract_z
  _atom_site_occupancy
  Ca  Ca1       1.0  0.93300  0.13400  0.25000  1.0000
  Ca  Ca2       1.0  0.06720  0.86600  0.75000  1.0000
  In  In1       1.0  0.64300  0.71300  0.05150  1.0000
  In  In2       1.0  0.64300  0.71300  0.44800  1.0000
  In  In3       1.0  0.35700  0.28700  0.55200  1.0000
  In  In4       1.0  0.35700  0.28700  0.94800  1.0000
  Pt  Pt1       1.0  0.21700  0.56600  0.25000  1.0000
  Pt  Pt2       1.0  0.78300  0.43400  0.75000  1.0000
