data_image0
_chemical_formula_structural       Ca2In4Ni2
_chemical_formula_sum              "Ca2 In4 Ni2"
_cell_length_a       4.33578
_cell_length_b       5.69428
_cell_length_c       7.62831
_cell_angle_alpha    90
_cell_angle_beta     90
_cell_angle_gamma    67.6221

_space_group_name_H-M_alt    "P 1"
_space_group_IT_number       1

loop_
  _space_group_symop_operation_xyz
  'x, y, z'

loop_
  _atom_site_type_symbol
  _atom_site_label
  _atom_site_symmetry_multiplicity
  _atom_site_fract_x
  _atom_site_fract_y
  _atom_site_fract_z
  _atom_site_occupancy
  Ca  Ca1       1.0  0.56200  0.87600  0.25000  1.0000
  Ca  Ca2       1.0  0.43800  0.12400  0.75000  1.0000
  In  In1       1.0  0.85100  0.29800  0.05250  1.0000
  In  In2       1.0  0.85100  0.29800  0.44800  1.0000
  In  In3       1.0  0.14900  0.70200  0.55200  1.0000
  In  In4       1.0  0.14900  0.70200  0.94800  1.0000
  Ni  Ni1       1.0  0.28200  0.43700  0.25000  1.0000
  Ni  Ni2       1.0  0.71800  0.56300  0.75000  1.0000
