data_image0
_chemical_formula_structural       In4Pt2Sr2
_chemical_formula_sum              "In4 Pt2 Sr2"
_cell_length_a       4.52093
_cell_length_b       5.94448
_cell_length_c       7.96338
_cell_angle_alpha    90
_cell_angle_beta     90
_cell_angle_gamma    67.65

_space_group_name_H-M_alt    "P 1"
_space_group_IT_number       1

loop_
  _space_group_symop_operation_xyz
  'x, y, z'

loop_
  _atom_site_type_symbol
  _atom_site_label
  _atom_site_symmetry_multiplicity
  _atom_site_fract_x
  _atom_site_fract_y
  _atom_site_fract_z
  _atom_site_occupancy
  In  In1       1.0  0.65100  0.69700  0.05380  1.0000
  In  In2       1.0  0.65100  0.69700  0.44600  1.0000
  In  In3       1.0  0.34900  0.30300  0.55400  1.0000
  In  In4       1.0  0.34900  0.30300  0.94600  1.0000
  Pt  Pt1       1.0  0.21900  0.56100  0.25000  1.0000
  Pt  Pt2       1.0  0.78100  0.43900  0.75000  1.0000
  Sr  Sr1       1.0  0.93800  0.12400  0.25000  1.0000
  Sr  Sr2       1.0  0.06220  0.87600  0.75000  1.0000
