data_image0
_chemical_formula_structural       Ce2In4Ir2
_chemical_formula_sum              "Ce2 In4 Ir2"
_cell_length_a       4.44692
_cell_length_b       5.7113
_cell_length_c       8.02417
_cell_angle_alpha    90
_cell_angle_beta     90
_cell_angle_gamma    67.0885

_space_group_name_H-M_alt    "P 1"
_space_group_IT_number       1

loop_
  _space_group_symop_operation_xyz
  'x, y, z'

loop_
  _atom_site_type_symbol
  _atom_site_label
  _atom_site_symmetry_multiplicity
  _atom_site_fract_x
  _atom_site_fract_y
  _atom_site_fract_z
  _atom_site_occupancy
  Ce  Ce1       1.0  0.06900  0.86200  0.25000  1.0000
  Ce  Ce2       1.0  0.93100  0.13800  0.75000  1.0000
  In  In1       1.0  0.35400  0.29200  0.05120  1.0000
  In  In2       1.0  0.35400  0.29200  0.44900  1.0000
  In  In3       1.0  0.64600  0.70800  0.55100  1.0000
  In  In4       1.0  0.64600  0.70800  0.94900  1.0000
  Ir  Ir1       1.0  0.78300  0.43400  0.25000  1.0000
  Ir  Ir2       1.0  0.21700  0.56600  0.75000  1.0000
