data_image0
_chemical_formula_structural       IO3Rb
_chemical_formula_sum              "I1 O3 Rb1"
_cell_length_a       4.47834
_cell_length_b       4.47834
_cell_length_c       4.47834
_cell_angle_alpha    89.9334
_cell_angle_beta     89.9334
_cell_angle_gamma    89.9334

_space_group_name_H-M_alt    "P 1"
_space_group_IT_number       1

loop_
  _space_group_symop_operation_xyz
  'x, y, z'

loop_
  _atom_site_type_symbol
  _atom_site_label
  _atom_site_symmetry_multiplicity
  _atom_site_fract_x
  _atom_site_fract_y
  _atom_site_fract_z
  _atom_site_occupancy
  I   I1        1.0  0.99600  0.99600  0.99600  1.0000
  O   O1        1.0  0.96200  0.96200  0.40400  1.0000
  O   O2        1.0  0.40400  0.96200  0.96200  1.0000
  O   O3        1.0  0.96200  0.40400  0.96200  1.0000
  Rb  Rb1       1.0  0.48500  0.48500  0.48500  1.0000
