data_image0
_chemical_formula_structural       O2Sm2Te
_chemical_formula_sum              "O2 Sm2 Te1"
_cell_length_a       3.9998
_cell_length_b       3.9998
_cell_length_c       6.93702
_cell_angle_alpha    106.756
_cell_angle_beta     106.756
_cell_angle_gamma    90

_space_group_name_H-M_alt    "P 1"
_space_group_IT_number       1

loop_
  _space_group_symop_operation_xyz
  'x, y, z'

loop_
  _atom_site_type_symbol
  _atom_site_label
  _atom_site_symmetry_multiplicity
  _atom_site_fract_x
  _atom_site_fract_y
  _atom_site_fract_z
  _atom_site_occupancy
  O   O1        1.0  0.75000  0.25000  0.50000  1.0000
  O   O2        1.0  0.25000  0.75000  0.50000  1.0000
  Sm  Sm1       1.0  0.66000  0.66000  0.32000  1.0000
  Sm  Sm2       1.0  0.34000  0.34000  0.68000  1.0000
  Te  Te1       1.0  0.00000  0.00000  0.00000  1.0000
