data_image0
_chemical_formula_structural       ErMg3
_chemical_formula_sum              "Er1 Mg3"
_cell_length_a       3.26684
_cell_length_b       6.35506
_cell_length_c       5.74221
_cell_angle_alpha    63.1419
_cell_angle_beta     90
_cell_angle_gamma    75.1063

_space_group_name_H-M_alt    "P 1"
_space_group_IT_number       1

loop_
  _space_group_symop_operation_xyz
  'x, y, z'

loop_
  _atom_site_type_symbol
  _atom_site_label
  _atom_site_symmetry_multiplicity
  _atom_site_fract_x
  _atom_site_fract_y
  _atom_site_fract_z
  _atom_site_occupancy
  Er  Er1       1.0  0.75000  0.50000  0.08790  1.0000
  Mg  Mg1       1.0  0.99500  0.01030  0.99400  1.0000
  Mg  Mg2       1.0  0.50500  0.99000  0.50400  1.0000
  Mg  Mg3       1.0  0.25000  0.50000  0.58100  1.0000
