data_image0
_chemical_formula_structural       Mg5Se
_chemical_formula_sum              "Mg5 Se1"
_cell_length_a       3.65914
_cell_length_b       7.68454
_cell_length_c       4.94634
_cell_angle_alpha    90
_cell_angle_beta     90
_cell_angle_gamma    76.2265

_space_group_name_H-M_alt    "P 1"
_space_group_IT_number       1

loop_
  _space_group_symop_operation_xyz
  'x, y, z'

loop_
  _atom_site_type_symbol
  _atom_site_label
  _atom_site_symmetry_multiplicity
  _atom_site_fract_x
  _atom_site_fract_y
  _atom_site_fract_z
  _atom_site_occupancy
  Mg  Mg1       1.0  0.99500  0.01040  0.00000  1.0000
  Mg  Mg2       1.0  0.32300  0.35400  0.00000  1.0000
  Mg  Mg3       1.0  0.65700  0.68700  0.00000  1.0000
  Mg  Mg4       1.0  0.45900  0.08290  0.50000  1.0000
  Mg  Mg5       1.0  0.13300  0.73500  0.50000  1.0000
  Se  Se1       1.0  0.76700  0.46500  0.50000  1.0000
