data_image0
_chemical_formula_structural       Ho4Mg8
_chemical_formula_sum              "Ho4 Mg8"
_cell_length_a       6.03306
_cell_length_b       6.03305
_cell_length_c       9.76911
_cell_angle_alpha    90
_cell_angle_beta     90
_cell_angle_gamma    120

_space_group_name_H-M_alt    "P 1"
_space_group_IT_number       1

loop_
  _space_group_symop_operation_xyz
  'x, y, z'

loop_
  _atom_site_type_symbol
  _atom_site_label
  _atom_site_symmetry_multiplicity
  _atom_site_fract_x
  _atom_site_fract_y
  _atom_site_fract_z
  _atom_site_occupancy
  Ho  Ho1       1.0  0.66700  0.33300  0.06310  1.0000
  Ho  Ho2       1.0  0.66700  0.33300  0.43700  1.0000
  Ho  Ho3       1.0  0.33300  0.66700  0.56300  1.0000
  Ho  Ho4       1.0  0.33300  0.66700  0.93700  1.0000
  Mg  Mg1       1.0  0.00000  0.00000  0.00000  1.0000
  Mg  Mg2       1.0  0.17100  0.34100  0.25000  1.0000
  Mg  Mg3       1.0  0.17100  0.82900  0.25000  1.0000
  Mg  Mg4       1.0  0.65900  0.82900  0.25000  1.0000
  Mg  Mg5       1.0  0.00000  0.00000  0.50000  1.0000
  Mg  Mg6       1.0  0.34100  0.17100  0.75000  1.0000
  Mg  Mg7       1.0  0.82900  0.17100  0.75000  1.0000
  Mg  Mg8       1.0  0.82900  0.65900  0.75000  1.0000
