data_image0
_chemical_formula_structural       Gd2Mg4
_chemical_formula_sum              "Gd2 Mg4"
_cell_length_a       6.05591
_cell_length_b       6.05591
_cell_length_c       6.05591
_cell_angle_alpha    120
_cell_angle_beta     90
_cell_angle_gamma    120

_space_group_name_H-M_alt    "P 1"
_space_group_IT_number       1

loop_
  _space_group_symop_operation_xyz
  'x, y, z'

loop_
  _atom_site_type_symbol
  _atom_site_label
  _atom_site_symmetry_multiplicity
  _atom_site_fract_x
  _atom_site_fract_y
  _atom_site_fract_z
  _atom_site_occupancy
  Gd  Gd1       1.0  0.00000  0.00000  0.00000  1.0000
  Gd  Gd2       1.0  0.75000  0.50000  0.25000  1.0000
  Mg  Mg1       1.0  0.37500  0.75000  0.12500  1.0000
  Mg  Mg2       1.0  0.37500  0.25000  0.62500  1.0000
  Mg  Mg3       1.0  0.37500  0.75000  0.62500  1.0000
  Mg  Mg4       1.0  0.87500  0.25000  0.62500  1.0000
