data_image0
_chemical_formula_structural       F6H8N2Sn
_chemical_formula_sum              "F6 H8 N2 Sn1"
_cell_length_a       5.79948
_cell_length_b       5.79949
_cell_length_c       4.60486
_cell_angle_alpha    89.9997
_cell_angle_beta     90.0012
_cell_angle_gamma    120

_space_group_name_H-M_alt    "P 1"
_space_group_IT_number       1

loop_
  _space_group_symop_operation_xyz
  'x, y, z'

loop_
  _atom_site_type_symbol
  _atom_site_label
  _atom_site_symmetry_multiplicity
  _atom_site_fract_x
  _atom_site_fract_y
  _atom_site_fract_z
  _atom_site_occupancy
  F   F1        1.0  0.67200  0.83600  0.24200  1.0000
  F   F2        1.0  0.16400  0.32800  0.24200  1.0000
  F   F3        1.0  0.16400  0.83600  0.24200  1.0000
  F   F4        1.0  0.83600  0.16400  0.75800  1.0000
  F   F5        1.0  0.83600  0.67200  0.75800  1.0000
  F   F6        1.0  0.32800  0.16400  0.75800  1.0000
  H   H1        1.0  0.66700  0.33300  0.07880  1.0000
  H   H2        1.0  0.76200  0.52400  0.38400  1.0000
  H   H3        1.0  0.76200  0.23800  0.38400  1.0000
  H   H4        1.0  0.47600  0.23800  0.38400  1.0000
  H   H5        1.0  0.52400  0.76200  0.61600  1.0000
  H   H6        1.0  0.23800  0.76200  0.61600  1.0000
  H   H7        1.0  0.23800  0.47600  0.61600  1.0000
  H   H8        1.0  0.33300  0.66700  0.92100  1.0000
  N   N1        1.0  0.66700  0.33300  0.30200  1.0000
  N   N2        1.0  0.33300  0.66700  0.69800  1.0000
  Sn  Sn1       1.0  0.00000  0.00000  0.00000  1.0000
