data_image0
_chemical_formula_structural       Ca2In4Pd2
_chemical_formula_sum              "Ca2 In4 Pd2"
_cell_length_a       4.4782
_cell_length_b       5.68882
_cell_length_c       7.89015
_cell_angle_alpha    90
_cell_angle_beta     90
_cell_angle_gamma    66.8215

_space_group_name_H-M_alt    "P 1"
_space_group_IT_number       1

loop_
  _space_group_symop_operation_xyz
  'x, y, z'

loop_
  _atom_site_type_symbol
  _atom_site_label
  _atom_site_symmetry_multiplicity
  _atom_site_fract_x
  _atom_site_fract_y
  _atom_site_fract_z
  _atom_site_occupancy
  Ca  Ca1       1.0  0.93500  0.13100  0.25000  1.0000
  Ca  Ca2       1.0  0.06550  0.86900  0.75000  1.0000
  In  In1       1.0  0.64400  0.71200  0.05310  1.0000
  In  In2       1.0  0.64400  0.71200  0.44700  1.0000
  In  In3       1.0  0.35600  0.28800  0.55300  1.0000
  In  In4       1.0  0.35600  0.28800  0.94700  1.0000
  Pd  Pd1       1.0  0.21800  0.56400  0.25000  1.0000
  Pd  Pd2       1.0  0.78200  0.43600  0.75000  1.0000
