data_image0
_chemical_formula_structural       B2F8H6O2
_chemical_formula_sum              "B2 F8 H6 O2"
_cell_length_a       4.24515
_cell_length_b       5.58742
_cell_length_c       5.97366
_cell_angle_alpha    78.7182
_cell_angle_beta     80.1631
_cell_angle_gamma    84.4171

_space_group_name_H-M_alt    "P 1"
_space_group_IT_number       1

loop_
  _space_group_symop_operation_xyz
  'x, y, z'

loop_
  _atom_site_type_symbol
  _atom_site_label
  _atom_site_symmetry_multiplicity
  _atom_site_fract_x
  _atom_site_fract_y
  _atom_site_fract_z
  _atom_site_occupancy
  B   B1        1.0  0.44600  0.20800  0.20200  1.0000
  B   B2        1.0  0.55400  0.79200  0.79800  1.0000
  F   F1        1.0  0.25200  0.35300  0.05150  1.0000
  F   F2        1.0  0.72100  0.11300  0.08470  1.0000
  F   F3        1.0  0.26700  0.01800  0.34600  1.0000
  F   F4        1.0  0.51700  0.35700  0.35300  1.0000
  F   F5        1.0  0.48300  0.64300  0.64700  1.0000
  F   F6        1.0  0.73300  0.98200  0.65400  1.0000
  F   F7        1.0  0.27900  0.88700  0.91500  1.0000
  F   F8        1.0  0.74800  0.64700  0.94800  1.0000
  H   H1        1.0  0.87400  0.68200  0.15900  1.0000
  H   H2        1.0  0.05890  0.82900  0.30800  1.0000
  H   H3        1.0  0.75200  0.66400  0.43900  1.0000
  H   H4        1.0  0.24800  0.33600  0.56100  1.0000
  H   H5        1.0  0.94100  0.17100  0.69200  1.0000
  H   H6        1.0  0.12600  0.31800  0.84100  1.0000
  O   O1        1.0  0.94300  0.67900  0.31300  1.0000
  O   O2        1.0  0.05700  0.32100  0.68700  1.0000
