data_image0
_chemical_formula_structural       CrF6H8N2Na
_chemical_formula_sum              "Cr1 F6 H8 N2 Na1"
_cell_length_a       5.80727
_cell_length_b       5.80727
_cell_length_c       5.80727
_cell_angle_alpha    120
_cell_angle_beta     90
_cell_angle_gamma    120

_space_group_name_H-M_alt    "P 1"
_space_group_IT_number       1

loop_
  _space_group_symop_operation_xyz
  'x, y, z'

loop_
  _atom_site_type_symbol
  _atom_site_label
  _atom_site_symmetry_multiplicity
  _atom_site_fract_x
  _atom_site_fract_y
  _atom_site_fract_z
  _atom_site_occupancy
  Cr  Cr1       1.0  0.00000  0.00000  0.00000  1.0000
  F   F1        1.0  0.23200  0.00000  0.23200  1.0000
  F   F2        1.0  0.23200  0.46300  0.23200  1.0000
  F   F3        1.0  0.76800  0.00000  0.23200  1.0000
  F   F4        1.0  0.23200  0.00000  0.76800  1.0000
  F   F5        1.0  0.76800  0.00000  0.76800  1.0000
  F   F6        1.0  0.76800  0.53700  0.76800  1.0000
  H   H1        1.0  0.53400  0.35600  0.17800  1.0000
  H   H2        1.0  0.82200  0.35600  0.17800  1.0000
  H   H3        1.0  0.82200  0.64400  0.17800  1.0000
  H   H4        1.0  0.82200  0.64400  0.46600  1.0000
  H   H5        1.0  0.17800  0.35600  0.53400  1.0000
  H   H6        1.0  0.46600  0.64400  0.82200  1.0000
  H   H7        1.0  0.17800  0.35600  0.82200  1.0000
  H   H8        1.0  0.17800  0.64400  0.82200  1.0000
  N   N1        1.0  0.75000  0.50000  0.25000  1.0000
  N   N2        1.0  0.25000  0.50000  0.75000  1.0000
  Na  Na1       1.0  0.50000  0.00000  0.50000  1.0000
