data_image0
_chemical_formula_structural       Cu2F2H3KO8P2
_chemical_formula_sum              "Cu2 F2 H3 K1 O8 P2"
_cell_length_a       5.48673
_cell_length_b       5.48673
_cell_length_c       7.48758
_cell_angle_alpha    98.1949
_cell_angle_beta     109.795
_cell_angle_gamma    110.079

_space_group_name_H-M_alt    "P 1"
_space_group_IT_number       1

loop_
  _space_group_symop_operation_xyz
  'x, y, z'

loop_
  _atom_site_type_symbol
  _atom_site_label
  _atom_site_symmetry_multiplicity
  _atom_site_fract_x
  _atom_site_fract_y
  _atom_site_fract_z
  _atom_site_occupancy
  Cu  Cu1       1.0  0.00000  0.00000  0.50000  1.0000
  Cu  Cu2       1.0  0.50000  0.50000  0.50000  1.0000
  F   F1        1.0  0.68200  0.31000  0.99200  1.0000
  F   F2        1.0  0.31800  0.69000  0.00791  1.0000
  H   H1        1.0  0.48400  0.80000  0.28400  1.0000
  H   H2        1.0  0.50000  0.00000  0.50000  1.0000
  H   H3        1.0  0.51600  0.20000  0.71600  1.0000
  K   K1        1.0  0.00000  0.00000  0.00000  1.0000
  O   O1        1.0  0.52700  0.32800  0.26400  1.0000
  O   O2        1.0  0.93600  0.73700  0.26400  1.0000
  O   O3        1.0  0.00568  0.30900  0.31500  1.0000
  O   O4        1.0  0.58200  0.84700  0.42900  1.0000
  O   O5        1.0  0.41800  0.15300  0.57100  1.0000
  O   O6        1.0  0.99400  0.69100  0.68500  1.0000
  O   O7        1.0  0.06370  0.26300  0.73600  1.0000
  O   O8        1.0  0.47300  0.67200  0.73600  1.0000
  P   P1        1.0  0.80100  0.43200  0.23300  1.0000
  P   P2        1.0  0.19900  0.56800  0.76700  1.0000
