data_image0
_chemical_formula_structural       H4Mn2O10Se2
_chemical_formula_sum              "H4 Mn2 O10 Se2"
_cell_length_a       5.37316
_cell_length_b       5.37316
_cell_length_c       7.80417
_cell_angle_alpha    107.723
_cell_angle_beta     107.723
_cell_angle_gamma    97.3738

_space_group_name_H-M_alt    "P 1"
_space_group_IT_number       1

loop_
  _space_group_symop_operation_xyz
  'x, y, z'

loop_
  _atom_site_type_symbol
  _atom_site_label
  _atom_site_symmetry_multiplicity
  _atom_site_fract_x
  _atom_site_fract_y
  _atom_site_fract_z
  _atom_site_occupancy
  H   H1        1.0  0.04890  0.62000  0.20600  1.0000
  H   H2        1.0  0.88000  0.45100  0.29400  1.0000
  H   H3        1.0  0.12000  0.54900  0.70600  1.0000
  H   H4        1.0  0.95100  0.38000  0.79400  1.0000
  Mn  Mn1       1.0  0.50000  0.50000  0.00000  1.0000
  Mn  Mn2       1.0  0.00000  0.00000  0.50000  1.0000
  O   O1        1.0  0.29000  0.21100  0.07380  1.0000
  O   O2        1.0  0.31200  0.75700  0.16100  1.0000
  O   O3        1.0  0.89200  0.60800  0.25000  1.0000
  O   O4        1.0  0.74300  0.18800  0.33900  1.0000
  O   O5        1.0  0.28900  0.21000  0.42600  1.0000
  O   O6        1.0  0.71100  0.79000  0.57400  1.0000
  O   O7        1.0  0.25700  0.81200  0.66100  1.0000
  O   O8        1.0  0.10800  0.39200  0.75000  1.0000
  O   O9        1.0  0.68800  0.24300  0.83900  1.0000
  O   O10       1.0  0.71000  0.78900  0.92600  1.0000
  Se  Se1       1.0  0.40400  0.09600  0.25000  1.0000
  Se  Se2       1.0  0.59600  0.90400  0.75000  1.0000
