data_image0
_chemical_formula_structural       H4O20P4Zn8
_chemical_formula_sum              "H4 O20 P4 Zn8"
_cell_length_a       7.60833
_cell_length_b       8.27004
_cell_length_c       5.98168
_cell_angle_alpha    90
_cell_angle_beta     90
_cell_angle_gamma    90

_space_group_name_H-M_alt    "P 1"
_space_group_IT_number       1

loop_
  _space_group_symop_operation_xyz
  'x, y, z'

loop_
  _atom_site_type_symbol
  _atom_site_label
  _atom_site_symmetry_multiplicity
  _atom_site_fract_x
  _atom_site_fract_y
  _atom_site_fract_z
  _atom_site_occupancy
  H   H1        1.0  0.25600  0.41800  0.25000  1.0000
  H   H2        1.0  0.74400  0.58200  0.25000  1.0000
  H   H3        1.0  0.75600  0.08220  0.75000  1.0000
  H   H4        1.0  0.24400  0.91800  0.75000  1.0000
  O   O1        1.0  0.24400  0.13900  0.54400  1.0000
  O   O2        1.0  0.75600  0.86100  0.54400  1.0000
  O   O3        1.0  0.74400  0.36100  0.45600  1.0000
  O   O4        1.0  0.25600  0.63900  0.45600  1.0000
  O   O5        1.0  0.44700  0.33600  0.75000  1.0000
  O   O6        1.0  0.55300  0.66400  0.75000  1.0000
  O   O7        1.0  0.94700  0.16400  0.25000  1.0000
  O   O8        1.0  0.05300  0.83600  0.25000  1.0000
  O   O9        1.0  0.12500  0.38600  0.75000  1.0000
  O   O10       1.0  0.87500  0.61400  0.75000  1.0000
  O   O11       1.0  0.62500  0.11400  0.25000  1.0000
  O   O12       1.0  0.37500  0.88600  0.25000  1.0000
  O   O13       1.0  0.37500  0.37400  0.25000  1.0000
  O   O14       1.0  0.62500  0.62600  0.25000  1.0000
  O   O15       1.0  0.87500  0.12600  0.75000  1.0000
  O   O16       1.0  0.12500  0.87400  0.75000  1.0000
  O   O17       1.0  0.24400  0.13900  0.95600  1.0000
  O   O18       1.0  0.75600  0.86100  0.95600  1.0000
  O   O19       1.0  0.74400  0.36100  0.04430  1.0000
  O   O20       1.0  0.25600  0.63900  0.04430  1.0000
  P   P1        1.0  0.26600  0.25000  0.75000  1.0000
  P   P2        1.0  0.73400  0.75000  0.75000  1.0000
  P   P3        1.0  0.76600  0.25000  0.25000  1.0000
  P   P4        1.0  0.23400  0.75000  0.25000  1.0000
  Zn  Zn1       1.0  0.36400  0.13500  0.25000  1.0000
  Zn  Zn2       1.0  0.63600  0.86500  0.25000  1.0000
  Zn  Zn3       1.0  0.86400  0.36500  0.75000  1.0000
  Zn  Zn4       1.0  0.13600  0.63500  0.75000  1.0000
  Zn  Zn5       1.0  0.00000  0.00000  0.50500  1.0000
  Zn  Zn6       1.0  0.50000  0.50000  0.49500  1.0000
  Zn  Zn7       1.0  0.00000  0.00000  0.99500  1.0000
  Zn  Zn8       1.0  0.50000  0.50000  0.00468  1.0000
