data_image0
_chemical_formula_structural       H4O10Se2Zn2
_chemical_formula_sum              "H4 O10 Se2 Zn2"
_cell_length_a       5.29166
_cell_length_b       5.29166
_cell_length_c       7.58636
_cell_angle_alpha    107.575
_cell_angle_beta     107.575
_cell_angle_gamma    97.3452

_space_group_name_H-M_alt    "P 1"
_space_group_IT_number       1

loop_
  _space_group_symop_operation_xyz
  'x, y, z'

loop_
  _atom_site_type_symbol
  _atom_site_label
  _atom_site_symmetry_multiplicity
  _atom_site_fract_x
  _atom_site_fract_y
  _atom_site_fract_z
  _atom_site_occupancy
  H   H1        1.0  0.03830  0.63000  0.20200  1.0000
  H   H2        1.0  0.87000  0.46200  0.29800  1.0000
  H   H3        1.0  0.13000  0.53800  0.70200  1.0000
  H   H4        1.0  0.96200  0.37000  0.79800  1.0000
  O   O1        1.0  0.29300  0.21100  0.06900  1.0000
  O   O2        1.0  0.31000  0.74900  0.15800  1.0000
  O   O3        1.0  0.88100  0.61900  0.25000  1.0000
  O   O4        1.0  0.75100  0.19000  0.34200  1.0000
  O   O5        1.0  0.28900  0.20700  0.43100  1.0000
  O   O6        1.0  0.71100  0.79300  0.56900  1.0000
  O   O7        1.0  0.24900  0.81000  0.65800  1.0000
  O   O8        1.0  0.11900  0.38100  0.75000  1.0000
  O   O9        1.0  0.69000  0.25100  0.84200  1.0000
  O   O10       1.0  0.70700  0.78900  0.93100  1.0000
  Se  Se1       1.0  0.40700  0.09260  0.25000  1.0000
  Se  Se2       1.0  0.59300  0.90700  0.75000  1.0000
  Zn  Zn1       1.0  0.50000  0.50000  0.00000  1.0000
  Zn  Zn2       1.0  0.00000  0.00000  0.50000  1.0000
