data_image0
_chemical_formula_structural       Dy2Mg4
_chemical_formula_sum              "Dy2 Mg4"
_cell_length_a       3.34452
_cell_length_b       8.8858
_cell_length_c       5.40226
_cell_angle_alpha    90
_cell_angle_beta     90
_cell_angle_gamma    79.1526

_space_group_name_H-M_alt    "P 1"
_space_group_IT_number       1

loop_
  _space_group_symop_operation_xyz
  'x, y, z'

loop_
  _atom_site_type_symbol
  _atom_site_label
  _atom_site_symmetry_multiplicity
  _atom_site_fract_x
  _atom_site_fract_y
  _atom_site_fract_z
  _atom_site_occupancy
  Dy  Dy1       1.0  0.33300  0.33400  0.00000  1.0000
  Dy  Dy2       1.0  0.77800  0.44400  0.50000  1.0000
  Mg  Mg1       1.0  0.00320  0.99400  0.00000  1.0000
  Mg  Mg2       1.0  0.66300  0.67400  0.00000  1.0000
  Mg  Mg3       1.0  0.44800  0.10400  0.50000  1.0000
  Mg  Mg4       1.0  0.10800  0.78400  0.50000  1.0000
