data_image0
_chemical_formula_structural       H10Mn2Rb6
_chemical_formula_sum              "H10 Mn2 Rb6"
_cell_length_a       7.81108
_cell_length_b       7.81108
_cell_length_c       8.11925
_cell_angle_alpha    118.752
_cell_angle_beta     118.752
_cell_angle_gamma    90

_space_group_name_H-M_alt    "P 1"
_space_group_IT_number       1

loop_
  _space_group_symop_operation_xyz
  'x, y, z'

loop_
  _atom_site_type_symbol
  _atom_site_label
  _atom_site_symmetry_multiplicity
  _atom_site_fract_x
  _atom_site_fract_y
  _atom_site_fract_z
  _atom_site_occupancy
  H   H1        1.0  0.00000  0.00000  0.00000  1.0000
  H   H2        1.0  0.50000  0.50000  0.00000  1.0000
  H   H3        1.0  0.03550  0.53500  0.32200  1.0000
  H   H4        1.0  0.78600  0.03550  0.32200  1.0000
  H   H5        1.0  0.53500  0.28600  0.32200  1.0000
  H   H6        1.0  0.28600  0.78600  0.32200  1.0000
  H   H7        1.0  0.71400  0.21400  0.67800  1.0000
  H   H8        1.0  0.21400  0.96500  0.67800  1.0000
  H   H9        1.0  0.46500  0.71400  0.67800  1.0000
  H   H10       1.0  0.96500  0.46500  0.67800  1.0000
  Mn  Mn1       1.0  0.75000  0.25000  0.50000  1.0000
  Mn  Mn2       1.0  0.25000  0.75000  0.50000  1.0000
  Rb  Rb1       1.0  0.18200  0.31800  0.00000  1.0000
  Rb  Rb2       1.0  0.68200  0.18200  0.00000  1.0000
  Rb  Rb3       1.0  0.31800  0.81800  0.00000  1.0000
  Rb  Rb4       1.0  0.81800  0.68200  0.00000  1.0000
  Rb  Rb5       1.0  0.25000  0.25000  0.50000  1.0000
  Rb  Rb6       1.0  0.75000  0.75000  0.50000  1.0000
