data_image0
_chemical_formula_structural       Cr2H4InNaO10
_chemical_formula_sum              "Cr2 H4 In1 Na1 O10"
_cell_length_a       5.53717
_cell_length_b       5.94656
_cell_length_c       7.36757
_cell_angle_alpha    110.112
_cell_angle_beta     90
_cell_angle_gamma    117.748

_space_group_name_H-M_alt    "P 1"
_space_group_IT_number       1

loop_
  _space_group_symop_operation_xyz
  'x, y, z'

loop_
  _atom_site_type_symbol
  _atom_site_label
  _atom_site_symmetry_multiplicity
  _atom_site_fract_x
  _atom_site_fract_y
  _atom_site_fract_z
  _atom_site_occupancy
  Cr  Cr1       1.0  0.61400  0.22800  0.32400  1.0000
  Cr  Cr2       1.0  0.38600  0.77200  0.67600  1.0000
  H   H1        1.0  0.74800  0.49600  0.04020  1.0000
  H   H2        1.0  0.28500  0.56900  0.20400  1.0000
  H   H3        1.0  0.71500  0.43100  0.79600  1.0000
  H   H4        1.0  0.25200  0.50400  0.96000  1.0000
  In  In1       1.0  0.00000  0.00000  0.00000  1.0000
  Na  Na1       1.0  0.00000  0.00000  0.50000  1.0000
  O   O1        1.0  0.21500  0.43100  0.06510  1.0000
  O   O2        1.0  0.26900  0.03570  0.23000  1.0000
  O   O3        1.0  0.76700  0.03570  0.23000  1.0000
  O   O4        1.0  0.75100  0.50300  0.27200  1.0000
  O   O5        1.0  0.34200  0.68500  0.43900  1.0000
  O   O6        1.0  0.65800  0.31500  0.56100  1.0000
  O   O7        1.0  0.24900  0.49700  0.72800  1.0000
  O   O8        1.0  0.23300  0.96400  0.77000  1.0000
  O   O9        1.0  0.73100  0.96400  0.77000  1.0000
  O   O10       1.0  0.78500  0.56900  0.93500  1.0000
