data_image0
_chemical_formula_structural       H4Mn2O10S2
_chemical_formula_sum              "H4 Mn2 O10 S2"
_cell_length_a       5.17521
_cell_length_b       5.17521
_cell_length_c       7.67712
_cell_angle_alpha    107.404
_cell_angle_beta     107.404
_cell_angle_gamma    95.1366

_space_group_name_H-M_alt    "P 1"
_space_group_IT_number       1

loop_
  _space_group_symop_operation_xyz
  'x, y, z'

loop_
  _atom_site_type_symbol
  _atom_site_label
  _atom_site_symmetry_multiplicity
  _atom_site_fract_x
  _atom_site_fract_y
  _atom_site_fract_z
  _atom_site_occupancy
  H   H1        1.0  0.06270  0.61700  0.20800  1.0000
  H   H2        1.0  0.88300  0.43700  0.29200  1.0000
  H   H3        1.0  0.11700  0.56300  0.70800  1.0000
  H   H4        1.0  0.93700  0.38300  0.79200  1.0000
  Mn  Mn1       1.0  0.50000  0.50000  1.00000  1.0000
  Mn  Mn2       1.0  0.00000  0.00000  0.50000  1.0000
  O   O1        1.0  0.29900  0.22100  0.09650  1.0000
  O   O2        1.0  0.32000  0.79300  0.16600  1.0000
  O   O3        1.0  0.89800  0.60200  0.25000  1.0000
  O   O4        1.0  0.70700  0.18000  0.33400  1.0000
  O   O5        1.0  0.27900  0.20100  0.40300  1.0000
  O   O6        1.0  0.72100  0.79900  0.59700  1.0000
  O   O7        1.0  0.29300  0.82000  0.66600  1.0000
  O   O8        1.0  0.10200  0.39800  0.75000  1.0000
  O   O9        1.0  0.68000  0.20700  0.83400  1.0000
  O   O10       1.0  0.70100  0.77900  0.90300  1.0000
  S   S1        1.0  0.39900  0.10100  0.25000  1.0000
  S   S2        1.0  0.60100  0.89900  0.75000  1.0000
