data_image0
_chemical_formula_structural       Al2H2Li2O10P2
_chemical_formula_sum              "Al2 H2 Li2 O10 P2"
_cell_length_a       5.01357
_cell_length_b       5.18931
_cell_length_c       6.98044
_cell_angle_alpha    106.614
_cell_angle_beta     109.117
_cell_angle_gamma    97.9224

_space_group_name_H-M_alt    "P 1"
_space_group_IT_number       1

loop_
  _space_group_symop_operation_xyz
  'x, y, z'

loop_
  _atom_site_type_symbol
  _atom_site_label
  _atom_site_symmetry_multiplicity
  _atom_site_fract_x
  _atom_site_fract_y
  _atom_site_fract_z
  _atom_site_occupancy
  Al  Al1       1.0  0.00000  0.00000  0.00000  1.0000
  Al  Al2       1.0  0.00000  0.00000  0.50000  1.0000
  H   H1        1.0  0.65400  0.92700  0.15100  1.0000
  H   H2        1.0  0.34600  0.07300  0.84900  1.0000
  Li  Li1       1.0  0.75000  0.39200  0.31300  1.0000
  Li  Li2       1.0  0.25000  0.60800  0.68700  1.0000
  O   O1        1.0  0.26700  0.79000  0.10100  1.0000
  O   O2        1.0  0.30700  0.33000  0.15800  1.0000
  O   O3        1.0  0.86000  0.03930  0.22500  1.0000
  O   O4        1.0  0.11900  0.67100  0.38900  1.0000
  O   O5        1.0  0.64600  0.76000  0.43100  1.0000
  O   O6        1.0  0.35400  0.24000  0.56900  1.0000
  O   O7        1.0  0.88100  0.32900  0.61100  1.0000
  O   O8        1.0  0.14000  0.96100  0.77500  1.0000
  O   O9        1.0  0.69300  0.67000  0.84200  1.0000
  O   O10       1.0  0.73300  0.21000  0.89900  1.0000
  P   P1        1.0  0.32700  0.64000  0.26600  1.0000
  P   P2        1.0  0.67300  0.36000  0.73400  1.0000
