data_image0
_chemical_formula_structural       BaCu3H2O10V2
_chemical_formula_sum              "Ba1 Cu3 H2 O10 V2"
_cell_length_a       5.89015
_cell_length_b       5.8652
_cell_length_c       7.66398
_cell_angle_alpha    89.111
_cell_angle_beta     112.599
_cell_angle_gamma    120.141

_space_group_name_H-M_alt    "P 1"
_space_group_IT_number       1

loop_
  _space_group_symop_operation_xyz
  'x, y, z'

loop_
  _atom_site_type_symbol
  _atom_site_label
  _atom_site_symmetry_multiplicity
  _atom_site_fract_x
  _atom_site_fract_y
  _atom_site_fract_z
  _atom_site_occupancy
  Ba  Ba1       1.0  0.50000  0.50000  0.50000  1.0000
  Cu  Cu1       1.0  0.00000  0.00000  0.00000  1.0000
  Cu  Cu2       1.0  0.00000  0.50000  0.00000  1.0000
  Cu  Cu3       1.0  0.50000  0.50000  0.00000  1.0000
  H   H1        1.0  0.01440  0.75400  0.27500  1.0000
  H   H2        1.0  0.98600  0.24600  0.72500  1.0000
  O   O1        1.0  0.91600  0.70800  0.12400  1.0000
  O   O2        1.0  0.46400  0.23400  0.18600  1.0000
  O   O3        1.0  0.95600  0.23400  0.18600  1.0000
  O   O4        1.0  0.47400  0.75100  0.19700  1.0000
  O   O5        1.0  0.15000  0.81800  0.48300  1.0000
  O   O6        1.0  0.85000  0.18200  0.51700  1.0000
  O   O7        1.0  0.52600  0.24900  0.80300  1.0000
  O   O8        1.0  0.04370  0.76600  0.81400  1.0000
  O   O9        1.0  0.53600  0.76600  0.81400  1.0000
  O   O10       1.0  0.08400  0.29200  0.87600  1.0000
  V   V1        1.0  0.68500  0.09940  0.27000  1.0000
  V   V2        1.0  0.31500  0.90100  0.73000  1.0000
