data_image0
_chemical_formula_structural       Ca10H2Sn6
_chemical_formula_sum              "Ca10 H2 Sn6"
_cell_length_a       8.18195
_cell_length_b       8.18195
_cell_length_c       9.44712
_cell_angle_alpha    115.661
_cell_angle_beta     115.661
_cell_angle_gamma    90

_space_group_name_H-M_alt    "P 1"
_space_group_IT_number       1

loop_
  _space_group_symop_operation_xyz
  'x, y, z'

loop_
  _atom_site_type_symbol
  _atom_site_label
  _atom_site_symmetry_multiplicity
  _atom_site_fract_x
  _atom_site_fract_y
  _atom_site_fract_z
  _atom_site_occupancy
  Ca  Ca1       1.0  0.00000  0.00000  0.00000  1.0000
  Ca  Ca2       1.0  0.50000  0.50000  0.00000  1.0000
  Ca  Ca3       1.0  0.49100  0.31300  0.30400  1.0000
  Ca  Ca4       1.0  0.99100  0.49100  0.30400  1.0000
  Ca  Ca5       1.0  0.31300  0.81300  0.30400  1.0000
  Ca  Ca6       1.0  0.81300  0.99100  0.30400  1.0000
  Ca  Ca7       1.0  0.18700  0.00918  0.69600  1.0000
  Ca  Ca8       1.0  0.68700  0.18700  0.69600  1.0000
  Ca  Ca9       1.0  0.00918  0.50900  0.69600  1.0000
  Ca  Ca10      1.0  0.50900  0.68700  0.69600  1.0000
  H   H1        1.0  0.75000  0.25000  0.50000  1.0000
  H   H2        1.0  0.25000  0.75000  0.50000  1.0000
  Sn  Sn1       1.0  0.62700  0.12700  0.00000  1.0000
  Sn  Sn2       1.0  0.12700  0.37300  0.00000  1.0000
  Sn  Sn3       1.0  0.87300  0.62700  0.00000  1.0000
  Sn  Sn4       1.0  0.37300  0.87300  0.00000  1.0000
  Sn  Sn5       1.0  0.25000  0.25000  0.50000  1.0000
  Sn  Sn6       1.0  0.75000  0.75000  0.50000  1.0000
