data_image0
_chemical_formula_structural       Ba2H4O8Sn4
_chemical_formula_sum              "Ba2 H4 O8 Sn4"
_cell_length_a       7.49877
_cell_length_b       5.74863
_cell_length_c       7.17193
_cell_angle_alpha    90
_cell_angle_beta     108.69
_cell_angle_gamma    90

_space_group_name_H-M_alt    "P 1"
_space_group_IT_number       1

loop_
  _space_group_symop_operation_xyz
  'x, y, z'

loop_
  _atom_site_type_symbol
  _atom_site_label
  _atom_site_symmetry_multiplicity
  _atom_site_fract_x
  _atom_site_fract_y
  _atom_site_fract_z
  _atom_site_occupancy
  Ba  Ba1       1.0  0.43700  0.99700  0.19100  1.0000
  Ba  Ba2       1.0  0.56300  0.49700  0.80900  1.0000
  H   H1        1.0  0.21400  0.50200  0.29900  1.0000
  H   H2        1.0  0.51600  0.50900  0.36600  1.0000
  H   H3        1.0  0.48400  0.00854  0.63400  1.0000
  H   H4        1.0  0.78600  0.00191  0.70100  1.0000
  O   O1        1.0  0.72900  0.74800  0.14300  1.0000
  O   O2        1.0  0.72700  0.25100  0.15100  1.0000
  O   O3        1.0  0.28900  0.50700  0.21000  1.0000
  O   O4        1.0  0.64000  0.51900  0.47300  1.0000
  O   O5        1.0  0.36000  0.01920  0.52700  1.0000
  O   O6        1.0  0.71100  0.00748  0.79000  1.0000
  O   O7        1.0  0.27300  0.75100  0.84900  1.0000
  O   O8        1.0  0.27100  0.24800  0.85700  1.0000
  Sn  Sn1       1.0  0.90000  0.00293  0.08890  1.0000
  Sn  Sn2       1.0  0.86200  0.50400  0.35800  1.0000
  Sn  Sn3       1.0  0.13800  0.00381  0.64200  1.0000
  Sn  Sn4       1.0  0.10000  0.50300  0.91100  1.0000
