data_image0
_chemical_formula_structural       H4Ni2O10P2Sr
_chemical_formula_sum              "H4 Ni2 O10 P2 Sr1"
_cell_length_a       5.34217
_cell_length_b       5.34217
_cell_length_c       7.33438
_cell_angle_alpha    109.804
_cell_angle_beta     70.1962
_cell_angle_gamma    112.025

_space_group_name_H-M_alt    "P 1"
_space_group_IT_number       1

loop_
  _space_group_symop_operation_xyz
  'x, y, z'

loop_
  _atom_site_type_symbol
  _atom_site_label
  _atom_site_symmetry_multiplicity
  _atom_site_fract_x
  _atom_site_fract_y
  _atom_site_fract_z
  _atom_site_occupancy
  H   H1        1.0  0.25400  0.74600  0.20600  1.0000
  H   H2        1.0  0.07120  0.92900  0.36700  1.0000
  H   H3        1.0  0.92900  0.07120  0.63300  1.0000
  H   H4        1.0  0.74600  0.25400  0.79400  1.0000
  Ni  Ni1       1.0  0.50000  0.00000  0.50000  1.0000
  Ni  Ni2       1.0  0.00000  0.50000  0.50000  1.0000
  O   O1        1.0  0.70500  0.29500  0.99900  1.0000
  O   O2        1.0  0.29500  0.70500  0.00086  1.0000
  O   O3        1.0  0.26400  0.30700  0.27300  1.0000
  O   O4        1.0  0.69300  0.73600  0.27300  1.0000
  O   O5        1.0  0.70300  0.29700  0.33700  1.0000
  O   O6        1.0  0.18300  0.81700  0.36300  1.0000
  O   O7        1.0  0.81700  0.18300  0.63700  1.0000
  O   O8        1.0  0.29700  0.70300  0.66300  1.0000
  O   O9        1.0  0.30700  0.26400  0.72700  1.0000
  O   O10       1.0  0.73600  0.69300  0.72700  1.0000
  P   P1        1.0  0.58700  0.41300  0.22100  1.0000
  P   P2        1.0  0.41300  0.58700  0.77900  1.0000
  Sr  Sr1       1.0  0.00000  0.00000  0.00000  1.0000
