data_image0
_chemical_formula_structural       H4Na2O10Se2Zn
_chemical_formula_sum              "H4 Na2 O10 Se2 Zn1"
_cell_length_a       5.85759
_cell_length_b       7.08129
_cell_length_c       5.53754
_cell_angle_alpha    99.1879
_cell_angle_beta     107.175
_cell_angle_gamma    107.84

_space_group_name_H-M_alt    "P 1"
_space_group_IT_number       1

loop_
  _space_group_symop_operation_xyz
  'x, y, z'

loop_
  _atom_site_type_symbol
  _atom_site_label
  _atom_site_symmetry_multiplicity
  _atom_site_fract_x
  _atom_site_fract_y
  _atom_site_fract_z
  _atom_site_occupancy
  H   H1        1.0  0.15300  0.69900  0.08200  1.0000
  H   H2        1.0  0.12800  0.39300  0.14500  1.0000
  H   H3        1.0  0.87200  0.60700  0.85500  1.0000
  H   H4        1.0  0.84700  0.30100  0.91800  1.0000
  Na  Na1       1.0  0.71100  0.24600  0.33800  1.0000
  Na  Na2       1.0  0.28900  0.75400  0.66200  1.0000
  O   O1        1.0  0.95900  0.27300  0.07250  1.0000
  O   O2        1.0  0.65400  0.87000  0.08320  1.0000
  O   O3        1.0  0.35400  0.61900  0.28200  1.0000
  O   O4        1.0  0.83600  0.61400  0.34800  1.0000
  O   O5        1.0  0.24200  0.05150  0.39500  1.0000
  O   O6        1.0  0.75800  0.94800  0.60500  1.0000
  O   O7        1.0  0.16400  0.38600  0.65200  1.0000
  O   O8        1.0  0.64600  0.38100  0.71800  1.0000
  O   O9        1.0  0.34600  0.13000  0.91700  1.0000
  O   O10       1.0  0.04090  0.72700  0.92800  1.0000
  Se  Se1       1.0  0.66100  0.75800  0.33000  1.0000
  Se  Se2       1.0  0.33900  0.24200  0.67000  1.0000
  Zn  Zn1       1.0  0.00000  0.00000  0.00000  1.0000
