data_image0
_chemical_formula_structural       H4Li4O10S2
_chemical_formula_sum              "H4 Li4 O10 S2"
_cell_length_a       5.37226
_cell_length_b       4.72459
_cell_length_c       8.02371
_cell_angle_alpha    90
_cell_angle_beta     107.266
_cell_angle_gamma    90

_space_group_name_H-M_alt    "P 1"
_space_group_IT_number       1

loop_
  _space_group_symop_operation_xyz
  'x, y, z'

loop_
  _atom_site_type_symbol
  _atom_site_label
  _atom_site_symmetry_multiplicity
  _atom_site_fract_x
  _atom_site_fract_y
  _atom_site_fract_z
  _atom_site_occupancy
  H   H1        1.0  0.48800  0.06640  0.31400  1.0000
  H   H2        1.0  0.50300  0.83100  0.46300  1.0000
  H   H3        1.0  0.49700  0.33100  0.53700  1.0000
  H   H4        1.0  0.51200  0.56600  0.68600  1.0000
  Li  Li1       1.0  0.19700  0.50500  0.00918  1.0000
  Li  Li2       1.0  0.06180  0.00904  0.39600  1.0000
  Li  Li3       1.0  0.93800  0.50900  0.60400  1.0000
  Li  Li4       1.0  0.80300  0.00487  0.99100  1.0000
  O   O1        1.0  0.88000  0.39600  0.06280  1.0000
  O   O2        1.0  0.51400  0.41500  0.18100  1.0000
  O   O3        1.0  0.80300  0.82200  0.20900  1.0000
  O   O4        1.0  0.95400  0.39800  0.37700  1.0000
  O   O5        1.0  0.42300  0.01360  0.41200  1.0000
  O   O6        1.0  0.57700  0.51400  0.58800  1.0000
  O   O7        1.0  0.04580  0.89800  0.62300  1.0000
  O   O8        1.0  0.19700  0.32200  0.79100  1.0000
  O   O9        1.0  0.48600  0.91500  0.81900  1.0000
  O   O10       1.0  0.12000  0.89600  0.93700  1.0000
  S   S1        1.0  0.78400  0.50700  0.20600  1.0000
  S   S2        1.0  0.21600  0.00691  0.79400  1.0000
