data_image0
_chemical_formula_structural       CsF3Li2
_chemical_formula_sum              "Cs1 F3 Li2"
_cell_length_a       3.94986
_cell_length_b       3.94986
_cell_length_c       5.6562
_cell_angle_alpha    110.436
_cell_angle_beta     110.436
_cell_angle_gamma    90

_space_group_name_H-M_alt    "P 1"
_space_group_IT_number       1

loop_
  _space_group_symop_operation_xyz
  'x, y, z'

loop_
  _atom_site_type_symbol
  _atom_site_label
  _atom_site_symmetry_multiplicity
  _atom_site_fract_x
  _atom_site_fract_y
  _atom_site_fract_z
  _atom_site_occupancy
  Cs  Cs1       1.0  0.00000  0.00000  0.00000  1.0000
  F   F1        1.0  0.50000  0.50000  0.00000  1.0000
  F   F2        1.0  0.75000  0.25000  0.50000  1.0000
  F   F3        1.0  0.25000  0.75000  0.50000  1.0000
  Li  Li1       1.0  0.69300  0.69300  0.38600  1.0000
  Li  Li2       1.0  0.30700  0.30700  0.61400  1.0000
