data_image0
_chemical_formula_structural       Be4H12K4
_chemical_formula_sum              "Be4 H12 K4"
_cell_length_a       6.61417
_cell_length_b       5.34361
_cell_length_c       8.7499
_cell_angle_alpha    90
_cell_angle_beta     105.262
_cell_angle_gamma    90

_space_group_name_H-M_alt    "P 1"
_space_group_IT_number       1

loop_
  _space_group_symop_operation_xyz
  'x, y, z'

loop_
  _atom_site_type_symbol
  _atom_site_label
  _atom_site_symmetry_multiplicity
  _atom_site_fract_x
  _atom_site_fract_y
  _atom_site_fract_z
  _atom_site_occupancy
  Be  Be1       1.0  0.75300  0.74400  0.00332  1.0000
  Be  Be2       1.0  0.24700  0.24400  0.49700  1.0000
  Be  Be3       1.0  0.75300  0.75600  0.50300  1.0000
  Be  Be4       1.0  0.24700  0.25600  0.99700  1.0000
  H   H1        1.0  0.81800  0.97800  0.06790  1.0000
  H   H2        1.0  0.84200  0.52900  0.08330  1.0000
  H   H3        1.0  0.38000  0.27600  0.15000  1.0000
  H   H4        1.0  0.62000  0.77600  0.35000  1.0000
  H   H5        1.0  0.15800  0.02860  0.41700  1.0000
  H   H6        1.0  0.18200  0.47800  0.43200  1.0000
  H   H7        1.0  0.81800  0.52200  0.56800  1.0000
  H   H8        1.0  0.84200  0.97100  0.58300  1.0000
  H   H9        1.0  0.38000  0.22400  0.65000  1.0000
  H   H10       1.0  0.62000  0.72400  0.85000  1.0000
  H   H11       1.0  0.15800  0.47100  0.91700  1.0000
  H   H12       1.0  0.18200  0.02190  0.93200  1.0000
  K   K1        1.0  0.23100  0.75100  0.19900  1.0000
  K   K2        1.0  0.76900  0.25100  0.30100  1.0000
  K   K3        1.0  0.23100  0.74900  0.69900  1.0000
  K   K4        1.0  0.76900  0.24900  0.80100  1.0000
