data_image0
_chemical_formula_structural       Br2Cu2H12N4
_chemical_formula_sum              "Br2 Cu2 H12 N4"
_cell_length_a       5.74622
_cell_length_b       6.56321
_cell_length_c       7.16694
_cell_angle_alpha    62.7495
_cell_angle_beta     101.079
_cell_angle_gamma    114.813

_space_group_name_H-M_alt    "P 1"
_space_group_IT_number       1

loop_
  _space_group_symop_operation_xyz
  'x, y, z'

loop_
  _atom_site_type_symbol
  _atom_site_label
  _atom_site_symmetry_multiplicity
  _atom_site_fract_x
  _atom_site_fract_y
  _atom_site_fract_z
  _atom_site_occupancy
  Br  Br1       1.0  0.25000  0.36400  0.27200  1.0000
  Br  Br2       1.0  0.75000  0.63600  0.72800  1.0000
  Cu  Cu1       1.0  0.00000  0.00000  0.00000  1.0000
  Cu  Cu2       1.0  0.50000  0.00000  0.00000  1.0000
  H   H1        1.0  0.79100  0.18300  0.23100  1.0000
  H   H2        1.0  0.70900  0.58500  0.23100  1.0000
  H   H3        1.0  0.49000  0.14700  0.25600  1.0000
  H   H4        1.0  0.01000  0.59700  0.25600  1.0000
  H   H5        1.0  0.91300  0.71200  0.37900  1.0000
  H   H6        1.0  0.58700  0.90900  0.37900  1.0000
  H   H7        1.0  0.41300  0.09150  0.62100  1.0000
  H   H8        1.0  0.08700  0.28800  0.62100  1.0000
  H   H9        1.0  0.99000  0.40300  0.74400  1.0000
  H   H10       1.0  0.51000  0.85300  0.74400  1.0000
  H   H11       1.0  0.29100  0.41500  0.76900  1.0000
  H   H12       1.0  0.20900  0.81700  0.76900  1.0000
  N   N1        1.0  0.60000  0.06460  0.24200  1.0000
  N   N2        1.0  0.90000  0.69400  0.24200  1.0000
  N   N3        1.0  0.10000  0.30600  0.75800  1.0000
  N   N4        1.0  0.40000  0.93500  0.75800  1.0000
