data_image0
_chemical_formula_structural       H8I2N2O8
_chemical_formula_sum              "H8 I2 N2 O8"
_cell_length_a       5.87454
_cell_length_b       5.87454
_cell_length_c       7.32427
_cell_angle_alpha    113.643
_cell_angle_beta     113.643
_cell_angle_gamma    90

_space_group_name_H-M_alt    "P 1"
_space_group_IT_number       1

loop_
  _space_group_symop_operation_xyz
  'x, y, z'

loop_
  _atom_site_type_symbol
  _atom_site_label
  _atom_site_symmetry_multiplicity
  _atom_site_fract_x
  _atom_site_fract_y
  _atom_site_fract_z
  _atom_site_occupancy
  H   H1        1.0  0.43500  0.85500  0.14900  1.0000
  H   H2        1.0  0.71400  0.79400  0.14900  1.0000
  H   H3        1.0  0.70600  0.06460  0.35100  1.0000
  H   H4        1.0  0.64500  0.78600  0.35100  1.0000
  H   H5        1.0  0.35500  0.21400  0.64900  1.0000
  H   H6        1.0  0.29400  0.93500  0.64900  1.0000
  H   H7        1.0  0.28600  0.20600  0.85100  1.0000
  H   H8        1.0  0.56500  0.14500  0.85100  1.0000
  I   I1        1.0  0.12500  0.37500  0.25000  1.0000
  I   I2        1.0  0.87500  0.62500  0.75000  1.0000
  N   N1        1.0  0.62500  0.87500  0.25000  1.0000
  N   N2        1.0  0.37500  0.12500  0.75000  1.0000
  O   O1        1.0  0.25300  0.43200  0.08470  1.0000
  O   O2        1.0  0.83100  0.15200  0.08470  1.0000
  O   O3        1.0  0.34800  0.24700  0.41500  1.0000
  O   O4        1.0  0.06760  0.66900  0.41500  1.0000
  O   O5        1.0  0.93200  0.33100  0.58500  1.0000
  O   O6        1.0  0.65200  0.75300  0.58500  1.0000
  O   O7        1.0  0.16900  0.84800  0.91500  1.0000
  O   O8        1.0  0.74700  0.56800  0.91500  1.0000
