data_image0
_chemical_formula_structural       H12K4Si4
_chemical_formula_sum              "H12 K4 Si4"
_cell_length_a       8.61458
_cell_length_b       5.17974
_cell_length_c       6.66223
_cell_angle_alpha    90
_cell_angle_beta     90
_cell_angle_gamma    90

_space_group_name_H-M_alt    "P 1"
_space_group_IT_number       1

loop_
  _space_group_symop_operation_xyz
  'x, y, z'

loop_
  _atom_site_type_symbol
  _atom_site_label
  _atom_site_symmetry_multiplicity
  _atom_site_fract_x
  _atom_site_fract_y
  _atom_site_fract_z
  _atom_site_occupancy
  H   H1        1.0  0.92000  0.53400  0.19600  1.0000
  H   H2        1.0  0.92000  0.96600  0.19600  1.0000
  H   H3        1.0  0.63100  0.75000  0.19900  1.0000
  H   H4        1.0  0.13100  0.75000  0.30100  1.0000
  H   H5        1.0  0.42000  0.53400  0.30400  1.0000
  H   H6        1.0  0.42000  0.96600  0.30400  1.0000
  H   H7        1.0  0.58000  0.03420  0.69600  1.0000
  H   H8        1.0  0.58000  0.46600  0.69600  1.0000
  H   H9        1.0  0.86900  0.25000  0.69900  1.0000
  H   H10       1.0  0.36900  0.25000  0.80100  1.0000
  H   H11       1.0  0.08030  0.03420  0.80400  1.0000
  H   H12       1.0  0.08030  0.46600  0.80400  1.0000
  K   K1        1.0  0.18700  0.25000  0.15100  1.0000
  K   K2        1.0  0.68700  0.25000  0.34900  1.0000
  K   K3        1.0  0.31300  0.75000  0.65100  1.0000
  K   K4        1.0  0.81300  0.75000  0.84900  1.0000
  Si  Si1       1.0  0.45600  0.75000  0.14800  1.0000
  Si  Si2       1.0  0.95600  0.75000  0.35200  1.0000
  Si  Si3       1.0  0.04390  0.25000  0.64800  1.0000
  Si  Si4       1.0  0.54400  0.25000  0.85200  1.0000
