data_image0
_chemical_formula_structural       C4Cs4H4O8
_chemical_formula_sum              "C4 Cs4 H4 O8"
_cell_length_a       4.76839
_cell_length_b       9.46629
_cell_length_c       7.75505
_cell_angle_alpha    90
_cell_angle_beta     90
_cell_angle_gamma    90

_space_group_name_H-M_alt    "P 1"
_space_group_IT_number       1

loop_
  _space_group_symop_operation_xyz
  'x, y, z'

loop_
  _atom_site_type_symbol
  _atom_site_label
  _atom_site_symmetry_multiplicity
  _atom_site_fract_x
  _atom_site_fract_y
  _atom_site_fract_z
  _atom_site_occupancy
  C   C1        1.0  0.60600  0.45300  0.25000  1.0000
  C   C2        1.0  0.39400  0.95300  0.25000  1.0000
  C   C3        1.0  0.60600  0.04740  0.75000  1.0000
  C   C4        1.0  0.39400  0.54700  0.75000  1.0000
  Cs  Cs1       1.0  0.04730  0.25000  0.00000  1.0000
  Cs  Cs2       1.0  0.95300  0.75000  0.00000  1.0000
  Cs  Cs3       1.0  0.04730  0.25000  0.50000  1.0000
  Cs  Cs4       1.0  0.95300  0.75000  0.50000  1.0000
  H   H1        1.0  0.56900  0.03150  0.25000  1.0000
  H   H2        1.0  0.43100  0.53200  0.25000  1.0000
  H   H3        1.0  0.56900  0.46800  0.75000  1.0000
  H   H4        1.0  0.43100  0.96800  0.75000  1.0000
  O   O1        1.0  0.14700  0.00125  0.25000  1.0000
  O   O2        1.0  0.53600  0.32300  0.25000  1.0000
  O   O3        1.0  0.85300  0.50100  0.25000  1.0000
  O   O4        1.0  0.46400  0.82300  0.25000  1.0000
  O   O5        1.0  0.53600  0.17700  0.75000  1.0000
  O   O6        1.0  0.14700  0.49900  0.75000  1.0000
  O   O7        1.0  0.46400  0.67700  0.75000  1.0000
  O   O8        1.0  0.85300  0.99900  0.75000  1.0000
