data_image0
_chemical_formula_structural       CrCsH8N2O8
_chemical_formula_sum              "Cr1 Cs1 H8 N2 O8"
_cell_length_a       6.3561
_cell_length_b       6.3561
_cell_length_c       6.3561
_cell_angle_alpha    100.894
_cell_angle_beta     113.922
_cell_angle_gamma    113.922

_space_group_name_H-M_alt    "P 1"
_space_group_IT_number       1

loop_
  _space_group_symop_operation_xyz
  'x, y, z'

loop_
  _atom_site_type_symbol
  _atom_site_label
  _atom_site_symmetry_multiplicity
  _atom_site_fract_x
  _atom_site_fract_y
  _atom_site_fract_z
  _atom_site_occupancy
  Cr  Cr1       1.0  0.00000  0.50000  0.50000  1.0000
  Cs  Cs1       1.0  0.00000  0.00000  0.00000  1.0000
  H   H1        1.0  0.64800  0.34500  0.94300  1.0000
  H   H2        1.0  0.40200  0.70500  0.05700  1.0000
  H   H3        1.0  0.35200  0.69700  0.29500  1.0000
  H   H4        1.0  0.59800  0.65500  0.30300  1.0000
  H   H5        1.0  0.64800  0.94300  0.34500  1.0000
  H   H6        1.0  0.59800  0.30300  0.65500  1.0000
  H   H7        1.0  0.35200  0.29500  0.69700  1.0000
  H   H8        1.0  0.40200  0.05700  0.70500  1.0000
  N   N1        1.0  0.50000  0.75000  0.25000  1.0000
  N   N2        1.0  0.50000  0.25000  0.75000  1.0000
  O   O1        1.0  0.00000  0.47200  0.19600  1.0000
  O   O2        1.0  1.00000  0.69600  0.29900  1.0000
  O   O3        1.0  0.60300  0.30400  0.30400  1.0000
  O   O4        1.0  0.00000  0.19600  0.47200  1.0000
  O   O5        1.0  0.72400  0.52800  0.52800  1.0000
  O   O6        1.0  0.00000  0.29900  0.69600  1.0000
  O   O7        1.0  0.39700  0.70100  0.70100  1.0000
  O   O8        1.0  0.27600  0.80400  0.80400  1.0000
