data_image0
_chemical_formula_structural       Au2Ca2In4
_chemical_formula_sum              "Au2 Ca2 In4"
_cell_length_a       4.59968
_cell_length_b       5.90034
_cell_length_c       7.6673
_cell_angle_alpha    90
_cell_angle_beta     90
_cell_angle_gamma    67.0591

_space_group_name_H-M_alt    "P 1"
_space_group_IT_number       1

loop_
  _space_group_symop_operation_xyz
  'x, y, z'

loop_
  _atom_site_type_symbol
  _atom_site_label
  _atom_site_symmetry_multiplicity
  _atom_site_fract_x
  _atom_site_fract_y
  _atom_site_fract_z
  _atom_site_occupancy
  Au  Au1       1.0  0.21100  0.57700  0.25000  1.0000
  Au  Au2       1.0  0.78900  0.42300  0.75000  1.0000
  Ca  Ca1       1.0  0.92500  0.14900  0.25000  1.0000
  Ca  Ca2       1.0  0.07460  0.85100  0.75000  1.0000
  In  In1       1.0  0.63500  0.73000  0.05030  1.0000
  In  In2       1.0  0.63500  0.73000  0.45000  1.0000
  In  In3       1.0  0.36500  0.27000  0.55000  1.0000
  In  In4       1.0  0.36500  0.27000  0.95000  1.0000
