data_image0
_chemical_formula_structural       Br4H8Li4O4
_chemical_formula_sum              "Br4 H8 Li4 O4"
_cell_length_a       5.63607
_cell_length_b       5.63607
_cell_length_c       7.83123
_cell_angle_alpha    90
_cell_angle_beta     90
_cell_angle_gamma    89.1725

_space_group_name_H-M_alt    "P 1"
_space_group_IT_number       1

loop_
  _space_group_symop_operation_xyz
  'x, y, z'

loop_
  _atom_site_type_symbol
  _atom_site_label
  _atom_site_symmetry_multiplicity
  _atom_site_fract_x
  _atom_site_fract_y
  _atom_site_fract_z
  _atom_site_occupancy
  Br  Br1       1.0  0.27400  0.21400  0.25000  1.0000
  Br  Br2       1.0  0.78600  0.72600  0.25000  1.0000
  Br  Br3       1.0  0.21400  0.27400  0.75000  1.0000
  Br  Br4       1.0  0.72600  0.78600  0.75000  1.0000
  H   H1        1.0  0.59500  0.21200  0.06470  1.0000
  H   H2        1.0  0.78800  0.40500  0.06470  1.0000
  H   H3        1.0  0.59500  0.21200  0.43500  1.0000
  H   H4        1.0  0.78800  0.40500  0.43500  1.0000
  H   H5        1.0  0.21200  0.59500  0.56500  1.0000
  H   H6        1.0  0.40500  0.78800  0.56500  1.0000
  H   H7        1.0  0.21200  0.59500  0.93500  1.0000
  H   H8        1.0  0.40500  0.78800  0.93500  1.0000
  Li  Li1       1.0  0.00000  0.00000  0.00000  1.0000
  Li  Li2       1.0  0.31300  0.68700  0.25000  1.0000
  Li  Li3       1.0  0.00000  0.00000  0.50000  1.0000
  Li  Li4       1.0  0.68700  0.31300  0.75000  1.0000
  O   O1        1.0  0.25900  0.74100  0.99700  1.0000
  O   O2        1.0  0.74100  0.25900  0.00299  1.0000
  O   O3        1.0  0.74100  0.25900  0.49700  1.0000
  O   O4        1.0  0.25900  0.74100  0.50300  1.0000
