data_image0
_chemical_formula_structural       Ca2H4O10Si2Zn2
_chemical_formula_sum              "Ca2 H4 O10 Si2 Zn2"
_cell_length_a       5.07266
_cell_length_b       5.40375
_cell_length_c       8.29599
_cell_angle_alpha    93.9915
_cell_angle_beta     72.1979
_cell_angle_gamma    103.16

_space_group_name_H-M_alt    "P 1"
_space_group_IT_number       1

loop_
  _space_group_symop_operation_xyz
  'x, y, z'

loop_
  _atom_site_type_symbol
  _atom_site_label
  _atom_site_symmetry_multiplicity
  _atom_site_fract_x
  _atom_site_fract_y
  _atom_site_fract_z
  _atom_site_occupancy
  Ca  Ca1       1.0  0.78500  0.14500  0.14300  1.0000
  Ca  Ca2       1.0  0.92800  0.64500  0.85700  1.0000
  H   H1        1.0  0.31900  0.90000  0.02620  1.0000
  H   H2        1.0  0.06610  0.72500  0.16900  1.0000
  H   H3        1.0  0.23500  0.22500  0.83100  1.0000
  H   H4        1.0  0.34500  0.40000  0.97400  1.0000
  O   O1        1.0  0.10500  0.86500  0.08600  1.0000
  O   O2        1.0  0.56300  0.44700  0.08670  1.0000
  O   O3        1.0  0.04120  0.46100  0.28400  1.0000
  O   O4        1.0  0.48100  0.82200  0.31700  1.0000
  O   O5        1.0  0.43100  0.34900  0.41500  1.0000
  O   O6        1.0  0.84500  0.84900  0.58500  1.0000
  O   O7        1.0  0.79800  0.32200  0.68300  1.0000
  O   O8        1.0  0.32500  0.96100  0.71600  1.0000
  O   O9        1.0  0.65000  0.94700  0.91300  1.0000
  O   O10       1.0  0.19100  0.36500  0.91400  1.0000
  Si  Si1       1.0  0.37900  0.52300  0.27400  1.0000
  Si  Si2       1.0  0.65200  0.02320  0.72600  1.0000
  Zn  Zn1       1.0  0.25400  0.00178  0.50000  1.0000
  Zn  Zn2       1.0  0.75400  0.50200  0.50000  1.0000
