data_image0
_chemical_formula_structural       Mg5S
_chemical_formula_sum              "Mg5 S1"
_cell_length_a       5.37222
_cell_length_b       5.37222
_cell_length_c       5.94286
_cell_angle_alpha    116.871
_cell_angle_beta     63.1286
_cell_angle_gamma    120

_space_group_name_H-M_alt    "P 1"
_space_group_IT_number       1

loop_
  _space_group_symop_operation_xyz
  'x, y, z'

loop_
  _atom_site_type_symbol
  _atom_site_label
  _atom_site_symmetry_multiplicity
  _atom_site_fract_x
  _atom_site_fract_y
  _atom_site_fract_z
  _atom_site_occupancy
  Mg  Mg1       1.0  0.67100  0.33800  0.00000  1.0000
  Mg  Mg2       1.0  0.33300  0.66200  0.00000  1.0000
  Mg  Mg3       1.0  0.99600  0.00000  0.00000  1.0000
  Mg  Mg4       1.0  0.50200  0.83200  0.49500  1.0000
  Mg  Mg5       1.0  0.16500  0.16800  0.50500  1.0000
  S   S1        1.0  0.83300  0.50000  0.50000  1.0000
