data_image0
_chemical_formula_structural       H3O12Rb3Se3
_chemical_formula_sum              "H3 O12 Rb3 Se3"
_cell_length_a       4.56695
_cell_length_b       7.43487
_cell_length_c       10.4517
_cell_angle_alpha    69.207
_cell_angle_beta     102.031
_cell_angle_gamma    90.5454

_space_group_name_H-M_alt    "P 1"
_space_group_IT_number       1

loop_
  _space_group_symop_operation_xyz
  'x, y, z'

loop_
  _atom_site_type_symbol
  _atom_site_label
  _atom_site_symmetry_multiplicity
  _atom_site_fract_x
  _atom_site_fract_y
  _atom_site_fract_z
  _atom_site_occupancy
  H   H1        1.0  0.14700  0.55400  0.31600  1.0000
  H   H2        1.0  0.85200  0.87100  0.68300  1.0000
  H   H3        1.0  0.53600  0.87100  0.99400  1.0000
  O   O1        1.0  0.30000  0.83400  0.06440  1.0000
  O   O2        1.0  0.93800  0.06050  0.13000  1.0000
  O   O3        1.0  0.52500  0.34300  0.20500  1.0000
  O   O4        1.0  0.92400  0.59000  0.25900  1.0000
  O   O5        1.0  0.46300  0.51600  0.39300  1.0000
  O   O6        1.0  0.90800  0.23200  0.46500  1.0000
  O   O7        1.0  0.08780  0.69500  0.53500  1.0000
  O   O8        1.0  0.53600  0.91100  0.60700  1.0000
  O   O9        1.0  0.07580  0.85000  0.74100  1.0000
  O   O10       1.0  0.47000  0.55100  0.79600  1.0000
  O   O11       1.0  0.05400  0.19000  0.86700  1.0000
  O   O12       1.0  0.71000  0.88800  0.93600  1.0000
  Rb  Rb1       1.0  0.57500  0.92100  0.33000  1.0000
  Rb  Rb2       1.0  0.42600  0.25200  0.67100  1.0000
  Rb  Rb3       1.0  0.00198  0.49000  0.99900  1.0000
  Se  Se1       1.0  0.01030  0.00104  0.00208  1.0000
  Se  Se2       1.0  0.69800  0.40800  0.33400  1.0000
  Se  Se3       1.0  0.29900  0.74300  0.66600  1.0000
