data_image0
_chemical_formula_structural       H12K2N6Sn
_chemical_formula_sum              "H12 K2 N6 Sn1"
_cell_length_a       6.25261
_cell_length_b       6.25261
_cell_length_c       7.46582
_cell_angle_alpha    114.756
_cell_angle_beta     90
_cell_angle_gamma    120

_space_group_name_H-M_alt    "P 1"
_space_group_IT_number       1

loop_
  _space_group_symop_operation_xyz
  'x, y, z'

loop_
  _atom_site_type_symbol
  _atom_site_label
  _atom_site_symmetry_multiplicity
  _atom_site_fract_x
  _atom_site_fract_y
  _atom_site_fract_z
  _atom_site_occupancy
  H   H1        1.0  0.46900  0.11700  0.11000  1.0000
  H   H2        1.0  0.64900  0.64200  0.11000  1.0000
  H   H3        1.0  0.99300  0.46200  0.11000  1.0000
  H   H4        1.0  0.66900  0.93800  0.23400  1.0000
  H   H5        1.0  0.26900  0.56600  0.23400  1.0000
  H   H6        1.0  0.29700  0.96500  0.23400  1.0000
  H   H7        1.0  0.70300  0.03500  0.76600  1.0000
  H   H8        1.0  0.73100  0.43400  0.76600  1.0000
  H   H9        1.0  0.33100  0.06230  0.76600  1.0000
  H   H10       1.0  0.35100  0.35800  0.89000  1.0000
  H   H11       1.0  0.53100  0.88300  0.89000  1.0000
  H   H12       1.0  0.00677  0.53800  0.89000  1.0000
  K   K1        1.0  0.82000  0.64000  0.46100  1.0000
  K   K2        1.0  0.18000  0.36000  0.53900  1.0000
  N   N1        1.0  0.34700  0.12600  0.20200  1.0000
  N   N2        1.0  0.77900  0.85500  0.20200  1.0000
  N   N3        1.0  0.07540  0.42200  0.20200  1.0000
  N   N4        1.0  0.92500  0.57800  0.79800  1.0000
  N   N5        1.0  0.22100  0.14500  0.79800  1.0000
  N   N6        1.0  0.65300  0.87400  0.79800  1.0000
  Sn  Sn1       1.0  0.00000  0.00000  0.00000  1.0000
