data_image0
_chemical_formula_structural       H12N6Rb2Sn
_chemical_formula_sum              "H12 N6 Rb2 Sn1"
_cell_length_a       6.59798
_cell_length_b       6.598
_cell_length_c       5.62827
_cell_angle_alpha    89.9998
_cell_angle_beta     90.0004
_cell_angle_gamma    119.999

_space_group_name_H-M_alt    "P 1"
_space_group_IT_number       1

loop_
  _space_group_symop_operation_xyz
  'x, y, z'

loop_
  _atom_site_type_symbol
  _atom_site_label
  _atom_site_symmetry_multiplicity
  _atom_site_fract_x
  _atom_site_fract_y
  _atom_site_fract_z
  _atom_site_occupancy
  H   H1        1.0  0.72200  0.57800  0.22300  1.0000
  H   H2        1.0  0.85700  0.27800  0.22300  1.0000
  H   H3        1.0  0.42200  0.14300  0.22300  1.0000
  H   H4        1.0  0.25900  0.20500  0.39200  1.0000
  H   H5        1.0  0.79500  0.05410  0.39200  1.0000
  H   H6        1.0  0.94600  0.74100  0.39200  1.0000
  H   H7        1.0  0.05410  0.25900  0.60800  1.0000
  H   H8        1.0  0.20500  0.94600  0.60800  1.0000
  H   H9        1.0  0.74100  0.79500  0.60800  1.0000
  H   H10       1.0  0.57800  0.85700  0.77700  1.0000
  H   H11       1.0  0.14300  0.72200  0.77700  1.0000
  H   H12       1.0  0.27800  0.42200  0.77700  1.0000
  N   N1        1.0  0.78500  0.09920  0.22000  1.0000
  N   N2        1.0  0.31400  0.21500  0.22000  1.0000
  N   N3        1.0  0.90100  0.68600  0.22000  1.0000
  N   N4        1.0  0.09920  0.31400  0.78000  1.0000
  N   N5        1.0  0.68600  0.78500  0.78000  1.0000
  N   N6        1.0  0.21500  0.90100  0.78000  1.0000
  Rb  Rb1       1.0  0.33300  0.66700  0.21200  1.0000
  Rb  Rb2       1.0  0.66700  0.33300  0.78800  1.0000
  Sn  Sn1       1.0  0.00000  0.00000  0.00000  1.0000
