data_image0
_chemical_formula_structural       H12N6Na2Sn
_chemical_formula_sum              "H12 N6 Na2 Sn1"
_cell_length_a       5.85887
_cell_length_b       5.85887
_cell_length_c       6.9621
_cell_angle_alpha    65.1169
_cell_angle_beta     114.883
_cell_angle_gamma    120

_space_group_name_H-M_alt    "P 1"
_space_group_IT_number       1

loop_
  _space_group_symop_operation_xyz
  'x, y, z'

loop_
  _atom_site_type_symbol
  _atom_site_label
  _atom_site_symmetry_multiplicity
  _atom_site_fract_x
  _atom_site_fract_y
  _atom_site_fract_z
  _atom_site_occupancy
  H   H1        1.0  0.97100  0.35800  0.12800  1.0000
  H   H2        1.0  0.64200  0.48500  0.12800  1.0000
  H   H3        1.0  0.51500  0.02860  0.12800  1.0000
  H   H4        1.0  0.66300  0.66900  0.26100  1.0000
  H   H5        1.0  0.33100  0.73400  0.26100  1.0000
  H   H6        1.0  0.26600  0.33700  0.26100  1.0000
  H   H7        1.0  0.73400  0.66300  0.73900  1.0000
  H   H8        1.0  0.66900  0.26600  0.73900  1.0000
  H   H9        1.0  0.33700  0.33100  0.73900  1.0000
  H   H10       1.0  0.48500  0.97100  0.87200  1.0000
  H   H11       1.0  0.35800  0.51500  0.87200  1.0000
  H   H12       1.0  0.02860  0.64200  0.87200  1.0000
  N   N1        1.0  0.78200  0.62100  0.22100  1.0000
  N   N2        1.0  0.37900  0.94000  0.22100  1.0000
  N   N3        1.0  0.06050  0.21800  0.22100  1.0000
  N   N4        1.0  0.94000  0.78200  0.77900  1.0000
  N   N5        1.0  0.62100  0.06050  0.77900  1.0000
  N   N6        1.0  0.21800  0.37900  0.77900  1.0000
  Na  Na1       1.0  0.82600  0.17400  0.47800  1.0000
  Na  Na2       1.0  0.17400  0.82600  0.52200  1.0000
  Sn  Sn1       1.0  0.00000  0.00000  0.00000  1.0000
