data_image0
_chemical_formula_structural       Cs2H6O12Sn
_chemical_formula_sum              "Cs2 H6 O12 Sn1"
_cell_length_a       7.44664
_cell_length_b       7.44662
_cell_length_c       5.0023
_cell_angle_alpha    90
_cell_angle_beta     89.9999
_cell_angle_gamma    120

_space_group_name_H-M_alt    "P 1"
_space_group_IT_number       1

loop_
  _space_group_symop_operation_xyz
  'x, y, z'

loop_
  _atom_site_type_symbol
  _atom_site_label
  _atom_site_symmetry_multiplicity
  _atom_site_fract_x
  _atom_site_fract_y
  _atom_site_fract_z
  _atom_site_occupancy
  Cs  Cs1       1.0  0.33300  0.66700  0.37500  1.0000
  Cs  Cs2       1.0  0.66700  0.33300  0.62500  1.0000
  H   H1        1.0  0.97000  0.27400  0.99600  1.0000
  H   H2        1.0  0.72600  0.69600  0.99600  1.0000
  H   H3        1.0  0.30400  0.03010  0.99600  1.0000
  H   H4        1.0  0.69600  0.97000  0.00440  1.0000
  H   H5        1.0  0.27400  0.30400  0.00440  1.0000
  H   H6        1.0  0.03010  0.72600  0.00440  1.0000
  O   O1        1.0  0.37100  0.08300  0.17900  1.0000
  O   O2        1.0  0.71200  0.62900  0.17900  1.0000
  O   O3        1.0  0.91700  0.28800  0.17900  1.0000
  O   O4        1.0  0.92800  0.73300  0.27000  1.0000
  O   O5        1.0  0.26700  0.19500  0.27000  1.0000
  O   O6        1.0  0.80500  0.07200  0.27000  1.0000
  O   O7        1.0  0.19500  0.92800  0.73000  1.0000
  O   O8        1.0  0.73300  0.80500  0.73000  1.0000
  O   O9        1.0  0.07200  0.26700  0.73000  1.0000
  O   O10       1.0  0.08300  0.71200  0.82100  1.0000
  O   O11       1.0  0.28800  0.37100  0.82100  1.0000
  O   O12       1.0  0.62900  0.91700  0.82100  1.0000
  Sn  Sn1       1.0  0.00000  1.00000  0.50000  1.0000
