data_image0
_chemical_formula_structural       Cs2H12N6Sn
_chemical_formula_sum              "Cs2 H12 N6 Sn1"
_cell_length_a       6.76228
_cell_length_b       6.76229
_cell_length_c       5.78806
_cell_angle_alpha    89.9998
_cell_angle_beta     90.0001
_cell_angle_gamma    120

_space_group_name_H-M_alt    "P 1"
_space_group_IT_number       1

loop_
  _space_group_symop_operation_xyz
  'x, y, z'

loop_
  _atom_site_type_symbol
  _atom_site_label
  _atom_site_symmetry_multiplicity
  _atom_site_fract_x
  _atom_site_fract_y
  _atom_site_fract_z
  _atom_site_occupancy
  Cs  Cs1       1.0  0.33300  0.66700  0.28600  1.0000
  Cs  Cs2       1.0  0.66700  0.33300  0.71400  1.0000
  H   H1        1.0  0.85700  0.28000  0.18100  1.0000
  H   H2        1.0  0.72000  0.57700  0.18100  1.0000
  H   H3        1.0  0.42300  0.14300  0.18100  1.0000
  H   H4        1.0  0.26200  0.15100  0.38400  1.0000
  H   H5        1.0  0.84900  0.11100  0.38400  1.0000
  H   H6        1.0  0.88900  0.73800  0.38400  1.0000
  H   H7        1.0  0.11100  0.26200  0.61600  1.0000
  H   H8        1.0  0.15100  0.88900  0.61600  1.0000
  H   H9        1.0  0.73800  0.84900  0.61600  1.0000
  H   H10       1.0  0.57700  0.85700  0.81900  1.0000
  H   H11       1.0  0.28000  0.42300  0.81900  1.0000
  H   H12       1.0  0.14300  0.72000  0.81900  1.0000
  N   N1        1.0  0.30900  0.19700  0.21500  1.0000
  N   N2        1.0  0.80300  0.11100  0.21500  1.0000
  N   N3        1.0  0.88900  0.69100  0.21500  1.0000
  N   N4        1.0  0.11100  0.30900  0.78500  1.0000
  N   N5        1.0  0.19700  0.88900  0.78500  1.0000
  N   N6        1.0  0.69100  0.80300  0.78500  1.0000
  Sn  Sn1       1.0  0.00000  0.00000  0.00000  1.0000
