data_image0
_chemical_formula_structural       Ca7Cl2H12
_chemical_formula_sum              "Ca7 Cl2 H12"
_cell_length_a       9.2399
_cell_length_b       9.23991
_cell_length_c       3.64597
_cell_angle_alpha    90
_cell_angle_beta     90
_cell_angle_gamma    120

_space_group_name_H-M_alt    "P 1"
_space_group_IT_number       1

loop_
  _space_group_symop_operation_xyz
  'x, y, z'

loop_
  _atom_site_type_symbol
  _atom_site_label
  _atom_site_symmetry_multiplicity
  _atom_site_fract_x
  _atom_site_fract_y
  _atom_site_fract_z
  _atom_site_occupancy
  Ca  Ca1       1.0  0.66700  0.33300  0.00000  1.0000
  Ca  Ca2       1.0  0.07740  0.43900  0.00000  1.0000
  Ca  Ca3       1.0  0.56100  0.63900  0.00000  1.0000
  Ca  Ca4       1.0  0.36100  0.92300  0.00000  1.0000
  Ca  Ca5       1.0  0.78100  0.05140  0.50000  1.0000
  Ca  Ca6       1.0  0.27000  0.21900  0.50000  1.0000
  Ca  Ca7       1.0  0.94900  0.73000  0.50000  1.0000
  Cl  Cl1       1.0  0.00000  0.00000  0.00000  1.0000
  Cl  Cl2       1.0  0.33300  0.66700  0.50000  1.0000
  H   H1        1.0  0.39100  0.17600  0.00000  1.0000
  H   H2        1.0  0.82400  0.21500  0.00000  1.0000
  H   H3        1.0  0.30200  0.39200  0.00000  1.0000
  H   H4        1.0  0.78500  0.60900  0.00000  1.0000
  H   H5        1.0  0.08990  0.69800  0.00000  1.0000
  H   H6        1.0  0.60800  0.91000  0.00000  1.0000
  H   H7        1.0  0.56400  0.11800  0.50000  1.0000
  H   H8        1.0  0.05730  0.28500  0.50000  1.0000
  H   H9        1.0  0.55400  0.43600  0.50000  1.0000
  H   H10       1.0  0.88200  0.44600  0.50000  1.0000
  H   H11       1.0  0.71500  0.77200  0.50000  1.0000
  H   H12       1.0  0.22800  0.94300  0.50000  1.0000
