data_image0
_chemical_formula_structural       CdGaInS4
_chemical_formula_sum              "Cd1 Ga1 In1 S4"
_cell_length_a       4.05086
_cell_length_b       4.05149
_cell_length_c       12.5918
_cell_angle_alpha    90
_cell_angle_beta     89.9819
_cell_angle_gamma    120.005

_space_group_name_H-M_alt    "P 1"
_space_group_IT_number       1

loop_
  _space_group_symop_operation_xyz
  'x, y, z'

loop_
  _atom_site_type_symbol
  _atom_site_label
  _atom_site_symmetry_multiplicity
  _atom_site_fract_x
  _atom_site_fract_y
  _atom_site_fract_z
  _atom_site_occupancy
  Cd  Cd1       1.0  0.00033  0.00016  0.54400  1.0000
  Ga  Ga1       1.0  0.33400  0.66700  0.26200  1.0000
  In  In1       1.0  0.33300  0.66600  0.83000  1.0000
  S   S1        1.0  0.33400  0.66700  0.09630  1.0000
  S   S2        1.0  0.00028  0.00014  0.34300  1.0000
  S   S3        1.0  0.33400  0.66700  0.62700  1.0000
  S   S4        1.0  0.66600  0.33300  0.90300  1.0000
