data_image0
_chemical_formula_structural       In4Pd2Sr2
_chemical_formula_sum              "In4 Pd2 Sr2"
_cell_length_a       4.57957
_cell_length_b       5.90958
_cell_length_c       7.9889
_cell_angle_alpha    90
_cell_angle_beta     90
_cell_angle_gamma    67.2029

_space_group_name_H-M_alt    "P 1"
_space_group_IT_number       1

loop_
  _space_group_symop_operation_xyz
  'x, y, z'

loop_
  _atom_site_type_symbol
  _atom_site_label
  _atom_site_symmetry_multiplicity
  _atom_site_fract_x
  _atom_site_fract_y
  _atom_site_fract_z
  _atom_site_occupancy
  In  In1       1.0  0.65200  0.69700  0.05470  1.0000
  In  In2       1.0  0.65200  0.69700  0.44500  1.0000
  In  In3       1.0  0.34800  0.30300  0.55500  1.0000
  In  In4       1.0  0.34800  0.30300  0.94500  1.0000
  Pd  Pd1       1.0  0.22000  0.56000  0.25000  1.0000
  Pd  Pd2       1.0  0.78000  0.44000  0.75000  1.0000
  Sr  Sr1       1.0  0.94000  0.12100  0.25000  1.0000
  Sr  Sr2       1.0  0.06040  0.87900  0.75000  1.0000
