data_image0
_chemical_formula_structural       Ba2In4Pt2
_chemical_formula_sum              "Ba2 In4 Pt2"
_cell_length_a       4.5711
_cell_length_b       6.29428
_cell_length_c       8.10546
_cell_angle_alpha    90
_cell_angle_beta     90
_cell_angle_gamma    68.7084

_space_group_name_H-M_alt    "P 1"
_space_group_IT_number       1

loop_
  _space_group_symop_operation_xyz
  'x, y, z'

loop_
  _atom_site_type_symbol
  _atom_site_label
  _atom_site_symmetry_multiplicity
  _atom_site_fract_x
  _atom_site_fract_y
  _atom_site_fract_z
  _atom_site_occupancy
  Ba  Ba1       1.0  0.94700  0.10500  0.25000  1.0000
  Ba  Ba2       1.0  0.05250  0.89500  0.75000  1.0000
  In  In1       1.0  0.66300  0.67400  0.05640  1.0000
  In  In2       1.0  0.66300  0.67400  0.44400  1.0000
  In  In3       1.0  0.33700  0.32600  0.55600  1.0000
  In  In4       1.0  0.33700  0.32600  0.94400  1.0000
  Pt  Pt1       1.0  0.22400  0.55300  0.25000  1.0000
  Pt  Pt2       1.0  0.77600  0.44700  0.75000  1.0000
