data_image0
_chemical_formula_structural       In4Rh2Yb2
_chemical_formula_sum              "In4 Rh2 Yb2"
_cell_length_a       4.20204
_cell_length_b       5.52177
_cell_length_c       8.19814
_cell_angle_alpha    90
_cell_angle_beta     90
_cell_angle_gamma    67.6355

_space_group_name_H-M_alt    "P 1"
_space_group_IT_number       1

loop_
  _space_group_symop_operation_xyz
  'x, y, z'

loop_
  _atom_site_type_symbol
  _atom_site_label
  _atom_site_symmetry_multiplicity
  _atom_site_fract_x
  _atom_site_fract_y
  _atom_site_fract_z
  _atom_site_occupancy
  In  In1       1.0  0.64500  0.71000  0.05040  1.0000
  In  In2       1.0  0.64500  0.71000  0.45000  1.0000
  In  In3       1.0  0.35500  0.29000  0.55000  1.0000
  In  In4       1.0  0.35500  0.29000  0.95000  1.0000
  Rh  Rh1       1.0  0.21900  0.56200  0.25000  1.0000
  Rh  Rh2       1.0  0.78100  0.43800  0.75000  1.0000
  Yb  Yb1       1.0  0.93400  0.13100  0.25000  1.0000
  Yb  Yb2       1.0  0.06570  0.86900  0.75000  1.0000
