data_image0
_chemical_formula_structural       In4Ir2Sr2
_chemical_formula_sum              "In4 Ir2 Sr2"
_cell_length_a       4.38529
_cell_length_b       5.96343
_cell_length_c       8.06552
_cell_angle_alpha    90
_cell_angle_beta     90
_cell_angle_gamma    68.4273

_space_group_name_H-M_alt    "P 1"
_space_group_IT_number       1

loop_
  _space_group_symop_operation_xyz
  'x, y, z'

loop_
  _atom_site_type_symbol
  _atom_site_label
  _atom_site_symmetry_multiplicity
  _atom_site_fract_x
  _atom_site_fract_y
  _atom_site_fract_z
  _atom_site_occupancy
  In  In1       1.0  0.65500  0.69100  0.05300  1.0000
  In  In2       1.0  0.65500  0.69100  0.44700  1.0000
  In  In3       1.0  0.34500  0.30900  0.55300  1.0000
  In  In4       1.0  0.34500  0.30900  0.94700  1.0000
  Ir  Ir1       1.0  0.21900  0.56200  0.25000  1.0000
  Ir  Ir2       1.0  0.78100  0.43800  0.75000  1.0000
  Sr  Sr1       1.0  0.93900  0.12200  0.25000  1.0000
  Sr  Sr2       1.0  0.06080  0.87800  0.75000  1.0000
