data_image0
_chemical_formula_structural       Eu2Mg4
_chemical_formula_sum              "Eu2 Mg4"
_cell_length_a       3.49289
_cell_length_b       3.49289
_cell_length_c       16.6225
_cell_angle_alpha    90
_cell_angle_beta     90
_cell_angle_gamma    120

_space_group_name_H-M_alt    "P 1"
_space_group_IT_number       1

loop_
  _space_group_symop_operation_xyz
  'x, y, z'

loop_
  _atom_site_type_symbol
  _atom_site_label
  _atom_site_symmetry_multiplicity
  _atom_site_fract_x
  _atom_site_fract_y
  _atom_site_fract_z
  _atom_site_occupancy
  Eu  Eu1       1.0  0.00000  0.00000  0.64800  1.0000
  Eu  Eu2       1.0  0.66700  0.33300  0.85200  1.0000
  Mg  Mg1       1.0  0.00000  0.00000  0.02550  1.0000
  Mg  Mg2       1.0  0.66700  0.33300  0.17600  1.0000
  Mg  Mg3       1.0  0.00000  0.00000  0.32400  1.0000
  Mg  Mg4       1.0  0.66700  0.33300  0.47400  1.0000
