data_image0
_chemical_formula_structural       Mg5P
_chemical_formula_sum              "Mg5 P1"
_cell_length_a       3.34808
_cell_length_b       7.68972
_cell_length_c       4.96055
_cell_angle_alpha    90
_cell_angle_beta     90
_cell_angle_gamma    77.4261

_space_group_name_H-M_alt    "P 1"
_space_group_IT_number       1

loop_
  _space_group_symop_operation_xyz
  'x, y, z'

loop_
  _atom_site_type_symbol
  _atom_site_label
  _atom_site_symmetry_multiplicity
  _atom_site_fract_x
  _atom_site_fract_y
  _atom_site_fract_z
  _atom_site_occupancy
  Mg  Mg1       1.0  0.99900  0.00286  0.00000  1.0000
  Mg  Mg2       1.0  0.32500  0.35100  0.00000  1.0000
  Mg  Mg3       1.0  0.66500  0.67000  0.00000  1.0000
  Mg  Mg4       1.0  0.44000  0.12100  0.50000  1.0000
  Mg  Mg5       1.0  0.13000  0.74000  0.50000  1.0000
  P   P1        1.0  0.77600  0.44800  0.50000  1.0000
