data_image0
_chemical_formula_structural       Mg5Sm
_chemical_formula_sum              "Mg5 Sm1"
_cell_length_a       3.21227
_cell_length_b       9.0412
_cell_length_c       5.26276
_cell_angle_alpha    90
_cell_angle_beta     90
_cell_angle_gamma    79.7673

_space_group_name_H-M_alt    "P 1"
_space_group_IT_number       1

loop_
  _space_group_symop_operation_xyz
  'x, y, z'

loop_
  _atom_site_type_symbol
  _atom_site_label
  _atom_site_symmetry_multiplicity
  _atom_site_fract_x
  _atom_site_fract_y
  _atom_site_fract_z
  _atom_site_occupancy
  Mg  Mg1       1.0  0.00072  0.99900  0.00000  1.0000
  Mg  Mg2       1.0  0.34400  0.31200  0.00000  1.0000
  Mg  Mg3       1.0  0.66200  0.67700  0.00000  1.0000
  Mg  Mg4       1.0  0.44700  0.10700  0.50000  1.0000
  Mg  Mg5       1.0  0.10400  0.79200  0.50000  1.0000
  Sm  Sm1       1.0  0.77600  0.44700  0.50000  1.0000
