data_image0
_chemical_formula_structural       I2V
_chemical_formula_sum              "I2 V1"
_cell_length_a       4.09744
_cell_length_b       4.09761
_cell_length_c       6.76521
_cell_angle_alpha    90
_cell_angle_beta     89.9992
_cell_angle_gamma    120.001

_space_group_name_H-M_alt    "P 1"
_space_group_IT_number       1

loop_
  _space_group_symop_operation_xyz
  'x, y, z'

loop_
  _atom_site_type_symbol
  _atom_site_label
  _atom_site_symmetry_multiplicity
  _atom_site_fract_x
  _atom_site_fract_y
  _atom_site_fract_z
  _atom_site_occupancy
  I   I1        1.0  0.33300  0.66700  0.23200  1.0000
  I   I2        1.0  0.66700  0.33300  0.76800  1.0000
  V   V1        1.0  0.00000  0.00000  0.00000  1.0000
