data_image0
_chemical_formula_structural       Ba2Ga2H8
_chemical_formula_sum              "Ba2 Ga2 H8"
_cell_length_a       4.99167
_cell_length_b       4.62033
_cell_length_c       8.86254
_cell_angle_alpha    90
_cell_angle_beta     90.1435
_cell_angle_gamma    90

_space_group_name_H-M_alt    "P 1"
_space_group_IT_number       1

loop_
  _space_group_symop_operation_xyz
  'x, y, z'

loop_
  _atom_site_type_symbol
  _atom_site_label
  _atom_site_symmetry_multiplicity
  _atom_site_fract_x
  _atom_site_fract_y
  _atom_site_fract_z
  _atom_site_occupancy
  Ba  Ba1       1.0  0.24300  0.74600  0.31200  1.0000
  Ba  Ba2       1.0  0.75700  0.24600  0.68800  1.0000
  Ga  Ga1       1.0  0.74400  0.32600  0.14400  1.0000
  Ga  Ga2       1.0  0.25600  0.82600  0.85600  1.0000
  H   H1        1.0  0.23900  0.70300  0.02290  1.0000
  H   H2        1.0  0.74400  0.67500  0.16300  1.0000
  H   H3        1.0  0.47300  0.23000  0.22800  1.0000
  H   H4        1.0  0.99400  0.23000  0.24800  1.0000
  H   H5        1.0  0.00635  0.73000  0.75200  1.0000
  H   H6        1.0  0.52700  0.73000  0.77200  1.0000
  H   H7        1.0  0.25600  0.17500  0.83700  1.0000
  H   H8        1.0  0.76100  0.20300  0.97700  1.0000
