data_image0
_chemical_formula_structural       Au2Sn2U2
_chemical_formula_sum              "Au2 Sn2 U2"
_cell_length_a       5.10489
_cell_length_b       5.10477
_cell_length_c       5.89387
_cell_angle_alpha    90.001
_cell_angle_beta     90
_cell_angle_gamma    120.001

_space_group_name_H-M_alt    "P 1"
_space_group_IT_number       1

loop_
  _space_group_symop_operation_xyz
  'x, y, z'

loop_
  _atom_site_type_symbol
  _atom_site_label
  _atom_site_symmetry_multiplicity
  _atom_site_fract_x
  _atom_site_fract_y
  _atom_site_fract_z
  _atom_site_occupancy
  Au  Au1       1.0  0.33300  0.66700  0.01540  1.0000
  Au  Au2       1.0  0.66700  0.33300  0.51500  1.0000
  Sn  Sn1       1.0  0.66700  0.33300  0.01400  1.0000
  Sn  Sn2       1.0  0.33300  0.66700  0.51400  1.0000
  U   U1        1.0  0.00000  0.00000  0.26400  1.0000
  U   U2        1.0  0.00000  0.00000  0.76400  1.0000
