data_image0
_chemical_formula_structural       Ba2BrCuO2
_chemical_formula_sum              "Ba2 Br1 Cu1 O2"
_cell_length_a       4.29265
_cell_length_b       4.29265
_cell_length_c       10.1432
_cell_angle_alpha    90
_cell_angle_beta     102.216
_cell_angle_gamma    60

_space_group_name_H-M_alt    "P 1"
_space_group_IT_number       1

loop_
  _space_group_symop_operation_xyz
  'x, y, z'

loop_
  _atom_site_type_symbol
  _atom_site_label
  _atom_site_symmetry_multiplicity
  _atom_site_fract_x
  _atom_site_fract_y
  _atom_site_fract_z
  _atom_site_occupancy
  Ba  Ba1       1.0  0.49500  0.25200  0.24300  1.0000
  Ba  Ba2       1.0  0.50500  0.74800  0.75700  1.0000
  Br  Br1       1.0  0.00000  0.00000  0.00000  1.0000
  Cu  Cu1       1.0  0.00000  0.50000  0.50000  1.0000
  O   O1        1.0  0.87800  0.56100  0.31700  1.0000
  O   O2        1.0  0.12200  0.43900  0.68300  1.0000
