data_image0
_chemical_formula_structural       Er2Mg4
_chemical_formula_sum              "Er2 Mg4"
_cell_length_a       3.35814
_cell_length_b       8.78173
_cell_length_c       5.39531
_cell_angle_alpha    90
_cell_angle_beta     90
_cell_angle_gamma    78.9772

_space_group_name_H-M_alt    "P 1"
_space_group_IT_number       1

loop_
  _space_group_symop_operation_xyz
  'x, y, z'

loop_
  _atom_site_type_symbol
  _atom_site_label
  _atom_site_symmetry_multiplicity
  _atom_site_fract_x
  _atom_site_fract_y
  _atom_site_fract_z
  _atom_site_occupancy
  Er  Er1       1.0  0.33300  0.33300  0.00000  1.0000
  Er  Er2       1.0  0.77800  0.44400  0.50000  1.0000
  Mg  Mg1       1.0  0.00257  0.99500  0.00000  1.0000
  Mg  Mg2       1.0  0.66400  0.67300  0.00000  1.0000
  Mg  Mg3       1.0  0.44700  0.10500  0.50000  1.0000
  Mg  Mg4       1.0  0.10900  0.78300  0.50000  1.0000
