data_image0
_chemical_formula_structural       B6C3Th3
_chemical_formula_sum              "B6 C3 Th3"
_cell_length_a       5.43757
_cell_length_b       5.43757
_cell_length_c       5.43757
_cell_angle_alpha    104.119
_cell_angle_beta     75.8813
_cell_angle_gamma    104.119

_space_group_name_H-M_alt    "P 1"
_space_group_IT_number       1

loop_
  _space_group_symop_operation_xyz
  'x, y, z'

loop_
  _atom_site_type_symbol
  _atom_site_label
  _atom_site_symmetry_multiplicity
  _atom_site_fract_x
  _atom_site_fract_y
  _atom_site_fract_z
  _atom_site_occupancy
  B   B1        1.0  0.77600  0.50000  0.22400  1.0000
  B   B2        1.0  0.50000  0.22400  0.22400  1.0000
  B   B3        1.0  0.77600  0.77600  0.50000  1.0000
  B   B4        1.0  0.22400  0.22400  0.50000  1.0000
  B   B5        1.0  0.22400  0.50000  0.77600  1.0000
  B   B6        1.0  0.50000  0.77600  0.77600  1.0000
  C   C1        1.0  0.50000  0.00000  0.00000  1.0000
  C   C2        1.0  0.00000  0.50000  0.00000  1.0000
  C   C3        1.0  0.00000  0.00000  0.50000  1.0000
  Th  Th1       1.0  0.00000  0.00000  0.00000  1.0000
  Th  Th2       1.0  0.31600  0.68400  0.31600  1.0000
  Th  Th3       1.0  0.68400  0.31600  0.68400  1.0000
