data_image0
_chemical_formula_structural       Au4Eu4Zn4
_chemical_formula_sum              "Au4 Eu4 Zn4"
_cell_length_a       7.37493
_cell_length_b       4.61631
_cell_length_c       7.79483
_cell_angle_alpha    90
_cell_angle_beta     90
_cell_angle_gamma    90

_space_group_name_H-M_alt    "P 1"
_space_group_IT_number       1

loop_
  _space_group_symop_operation_xyz
  'x, y, z'

loop_
  _atom_site_type_symbol
  _atom_site_label
  _atom_site_symmetry_multiplicity
  _atom_site_fract_x
  _atom_site_fract_y
  _atom_site_fract_z
  _atom_site_occupancy
  Au  Au1       1.0  0.79600  0.25000  0.09360  1.0000
  Au  Au2       1.0  0.29600  0.25000  0.40600  1.0000
  Au  Au3       1.0  0.70400  0.75000  0.59400  1.0000
  Au  Au4       1.0  0.20400  0.75000  0.90600  1.0000
  Eu  Eu1       1.0  0.49400  0.75000  0.19900  1.0000
  Eu  Eu2       1.0  0.99400  0.75000  0.30100  1.0000
  Eu  Eu3       1.0  0.00553  0.25000  0.69900  1.0000
  Eu  Eu4       1.0  0.50600  0.25000  0.80100  1.0000
  Zn  Zn1       1.0  0.17500  0.25000  0.07960  1.0000
  Zn  Zn2       1.0  0.67500  0.25000  0.42000  1.0000
  Zn  Zn3       1.0  0.32500  0.75000  0.58000  1.0000
  Zn  Zn4       1.0  0.82500  0.75000  0.92000  1.0000
