data_image0
_chemical_formula_structural       Ba2H8Mg2
_chemical_formula_sum              "Ba2 H8 Mg2"
_cell_length_a       4.13246
_cell_length_b       5.62771
_cell_length_c       7.05129
_cell_angle_alpha    90
_cell_angle_beta     72.9606
_cell_angle_gamma    90

_space_group_name_H-M_alt    "P 1"
_space_group_IT_number       1

loop_
  _space_group_symop_operation_xyz
  'x, y, z'

loop_
  _atom_site_type_symbol
  _atom_site_label
  _atom_site_symmetry_multiplicity
  _atom_site_fract_x
  _atom_site_fract_y
  _atom_site_fract_z
  _atom_site_occupancy
  Ba  Ba1       1.0  0.36600  0.75000  0.26900  1.0000
  Ba  Ba2       1.0  0.63400  0.25000  0.73100  1.0000
  H   H1        1.0  0.00000  0.00000  0.00000  1.0000
  H   H2        1.0  0.00000  0.50000  0.00000  1.0000
  H   H3        1.0  0.41700  0.25000  0.16600  1.0000
  H   H4        1.0  0.80800  0.00498  0.38300  1.0000
  H   H5        1.0  0.80800  0.49500  0.38300  1.0000
  H   H6        1.0  0.19200  0.50500  0.61700  1.0000
  H   H7        1.0  0.19200  0.99500  0.61700  1.0000
  H   H8        1.0  0.58300  0.75000  0.83400  1.0000
  Mg  Mg1       1.0  0.90200  0.25000  0.19700  1.0000
  Mg  Mg2       1.0  0.09840  0.75000  0.80300  1.0000
