data_image0
_chemical_formula_structural       Mg4Se2
_chemical_formula_sum              "Mg4 Se2"
_cell_length_a       3.75676
_cell_length_b       6.91629
_cell_length_c       5.51109
_cell_angle_alpha    90
_cell_angle_beta     90
_cell_angle_gamma    74.2412

_space_group_name_H-M_alt    "P 1"
_space_group_IT_number       1

loop_
  _space_group_symop_operation_xyz
  'x, y, z'

loop_
  _atom_site_type_symbol
  _atom_site_label
  _atom_site_symmetry_multiplicity
  _atom_site_fract_x
  _atom_site_fract_y
  _atom_site_fract_z
  _atom_site_occupancy
  Mg  Mg1       1.0  0.71400  0.57200  0.00000  1.0000
  Mg  Mg2       1.0  0.00682  0.98600  0.00000  1.0000
  Mg  Mg3       1.0  0.39700  0.20600  0.50000  1.0000
  Mg  Mg4       1.0  0.10400  0.79100  0.50000  1.0000
  Se  Se1       1.0  0.36700  0.26600  0.00000  1.0000
  Se  Se2       1.0  0.74400  0.51200  0.50000  1.0000
