data_image0
_chemical_formula_structural       Cl2H4O4Tb2
_chemical_formula_sum              "Cl2 H4 O4 Tb2"
_cell_length_a       6.08544
_cell_length_b       3.67815
_cell_length_c       6.65419
_cell_angle_alpha    90
_cell_angle_beta     110.263
_cell_angle_gamma    90

_space_group_name_H-M_alt    "P 1"
_space_group_IT_number       1

loop_
  _space_group_symop_operation_xyz
  'x, y, z'

loop_
  _atom_site_type_symbol
  _atom_site_label
  _atom_site_symmetry_multiplicity
  _atom_site_fract_x
  _atom_site_fract_y
  _atom_site_fract_z
  _atom_site_occupancy
  Cl  Cl1       1.0  0.24100  0.75000  0.43700  1.0000
  Cl  Cl2       1.0  0.75900  0.25000  0.56300  1.0000
  H   H1        1.0  0.88200  0.25000  0.22800  1.0000
  H   H2        1.0  0.68400  0.75000  0.30700  1.0000
  H   H3        1.0  0.31600  0.25000  0.69300  1.0000
  H   H4        1.0  0.11800  0.75000  0.77200  1.0000
  O   O1        1.0  0.89800  0.25000  0.08700  1.0000
  O   O2        1.0  0.56500  0.75000  0.16400  1.0000
  O   O3        1.0  0.43500  0.25000  0.83600  1.0000
  O   O4        1.0  0.10200  0.75000  0.91300  1.0000
  Tb  Tb1       1.0  0.30000  0.25000  0.12500  1.0000
  Tb  Tb2       1.0  0.70000  0.75000  0.87500  1.0000
