data_image0
_chemical_formula_structural       Cl2Gd2H4O4
_chemical_formula_sum              "Cl2 Gd2 H4 O4"
_cell_length_a       6.07383
_cell_length_b       3.71854
_cell_length_c       6.6989
_cell_angle_alpha    90
_cell_angle_beta     111.686
_cell_angle_gamma    90

_space_group_name_H-M_alt    "P 1"
_space_group_IT_number       1

loop_
  _space_group_symop_operation_xyz
  'x, y, z'

loop_
  _atom_site_type_symbol
  _atom_site_label
  _atom_site_symmetry_multiplicity
  _atom_site_fract_x
  _atom_site_fract_y
  _atom_site_fract_z
  _atom_site_occupancy
  Cl  Cl1       1.0  0.24400  0.75000  0.44100  1.0000
  Cl  Cl2       1.0  0.75600  0.25000  0.55900  1.0000
  Gd  Gd1       1.0  0.30600  0.25000  0.13000  1.0000
  Gd  Gd2       1.0  0.69400  0.75000  0.87000  1.0000
  H   H1        1.0  0.88400  0.25000  0.22500  1.0000
  H   H2        1.0  0.69600  0.75000  0.30800  1.0000
  H   H3        1.0  0.30400  0.25000  0.69200  1.0000
  H   H4        1.0  0.11600  0.75000  0.77500  1.0000
  O   O1        1.0  0.89900  0.25000  0.08450  1.0000
  O   O2        1.0  0.57100  0.75000  0.16400  1.0000
  O   O3        1.0  0.42900  0.25000  0.83600  1.0000
  O   O4        1.0  0.10100  0.75000  0.91600  1.0000
