data_image0
_chemical_formula_structural       Cl2H4O4Yb2
_chemical_formula_sum              "Cl2 H4 O4 Yb2"
_cell_length_a       6.04245
_cell_length_b       3.55106
_cell_length_c       6.59494
_cell_angle_alpha    90
_cell_angle_beta     105.852
_cell_angle_gamma    90

_space_group_name_H-M_alt    "P 1"
_space_group_IT_number       1

loop_
  _space_group_symop_operation_xyz
  'x, y, z'

loop_
  _atom_site_type_symbol
  _atom_site_label
  _atom_site_symmetry_multiplicity
  _atom_site_fract_x
  _atom_site_fract_y
  _atom_site_fract_z
  _atom_site_occupancy
  Cl  Cl1       1.0  0.22000  0.75000  0.43000  1.0000
  Cl  Cl2       1.0  0.78000  0.25000  0.57000  1.0000
  H   H1        1.0  0.87300  0.25000  0.24900  1.0000
  H   H2        1.0  0.64900  0.75000  0.32200  1.0000
  H   H3        1.0  0.35100  0.25000  0.67800  1.0000
  H   H4        1.0  0.12700  0.75000  0.75100  1.0000
  O   O1        1.0  0.89300  0.25000  0.10600  1.0000
  O   O2        1.0  0.55500  0.75000  0.17500  1.0000
  O   O3        1.0  0.44500  0.25000  0.82500  1.0000
  O   O4        1.0  0.10700  0.75000  0.89400  1.0000
  Yb  Yb1       1.0  0.28500  0.25000  0.10700  1.0000
  Yb  Yb2       1.0  0.71500  0.75000  0.89300  1.0000
