data_image0
_chemical_formula_structural       Ce5Ge4Li3
_chemical_formula_sum              "Ce5 Ge4 Li3"
_cell_length_a       4.74271
_cell_length_b       6.41899
_cell_length_c       10.5429
_cell_angle_alpha    90
_cell_angle_beta     77.0016
_cell_angle_gamma    90

_space_group_name_H-M_alt    "P 1"
_space_group_IT_number       1

loop_
  _space_group_symop_operation_xyz
  'x, y, z'

loop_
  _atom_site_type_symbol
  _atom_site_label
  _atom_site_symmetry_multiplicity
  _atom_site_fract_x
  _atom_site_fract_y
  _atom_site_fract_z
  _atom_site_occupancy
  Ce  Ce1       1.0  0.98700  0.00000  0.02660  1.0000
  Ce  Ce2       1.0  0.87700  0.50000  0.24700  1.0000
  Ce  Ce3       1.0  0.80600  0.00000  0.38700  1.0000
  Ce  Ce4       1.0  0.70200  0.50000  0.59600  1.0000
  Ce  Ce5       1.0  0.09770  0.50000  0.80500  1.0000
  Ge  Ge1       1.0  0.40700  0.19900  0.18600  1.0000
  Ge  Ge2       1.0  0.40700  0.80100  0.18600  1.0000
  Ge  Ge3       1.0  0.27400  0.29600  0.45200  1.0000
  Ge  Ge4       1.0  0.27400  0.70400  0.45200  1.0000
  Li  Li1       1.0  0.49400  0.50000  0.01200  1.0000
  Li  Li2       1.0  0.18200  0.00000  0.63700  1.0000
  Li  Li3       1.0  0.60900  0.00000  0.78300  1.0000
