data_image0
_chemical_formula_structural       Cl2H4Ho2O4
_chemical_formula_sum              "Cl2 H4 Ho2 O4"
_cell_length_a       6.12697
_cell_length_b       3.58557
_cell_length_c       6.59416
_cell_angle_alpha    90
_cell_angle_beta     106.934
_cell_angle_gamma    90

_space_group_name_H-M_alt    "P 1"
_space_group_IT_number       1

loop_
  _space_group_symop_operation_xyz
  'x, y, z'

loop_
  _atom_site_type_symbol
  _atom_site_label
  _atom_site_symmetry_multiplicity
  _atom_site_fract_x
  _atom_site_fract_y
  _atom_site_fract_z
  _atom_site_occupancy
  Cl  Cl1       1.0  0.23200  0.75000  0.43000  1.0000
  Cl  Cl2       1.0  0.76800  0.25000  0.57000  1.0000
  H   H1        1.0  0.87400  0.25000  0.23200  1.0000
  H   H2        1.0  0.65700  0.75000  0.30600  1.0000
  H   H3        1.0  0.34300  0.25000  0.69400  1.0000
  H   H4        1.0  0.12600  0.75000  0.76800  1.0000
  Ho  Ho1       1.0  0.28800  0.25000  0.11600  1.0000
  Ho  Ho2       1.0  0.71200  0.75000  0.88400  1.0000
  O   O1        1.0  0.89500  0.25000  0.09060  1.0000
  O   O2        1.0  0.55300  0.75000  0.16200  1.0000
  O   O3        1.0  0.44700  0.25000  0.83800  1.0000
  O   O4        1.0  0.10500  0.75000  0.90900  1.0000
