data_image0
_chemical_formula_structural       As4Ge3
_chemical_formula_sum              "As4 Ge3"
_cell_length_a       5.5163
_cell_length_b       5.5163
_cell_length_c       5.52086
_cell_angle_alpha    90
_cell_angle_beta     90
_cell_angle_gamma    90

_space_group_name_H-M_alt    "P 1"
_space_group_IT_number       1

loop_
  _space_group_symop_operation_xyz
  'x, y, z'

loop_
  _atom_site_type_symbol
  _atom_site_label
  _atom_site_symmetry_multiplicity
  _atom_site_fract_x
  _atom_site_fract_y
  _atom_site_fract_z
  _atom_site_occupancy
  As  As1       1.0  0.28200  0.28200  0.21800  1.0000
  As  As2       1.0  0.71800  0.71800  0.21800  1.0000
  As  As3       1.0  0.71800  0.28200  0.78200  1.0000
  As  As4       1.0  0.28200  0.71800  0.78200  1.0000
  Ge  Ge1       1.0  0.00000  0.00000  0.00000  1.0000
  Ge  Ge2       1.0  0.50000  0.00000  0.50000  1.0000
  Ge  Ge3       1.0  0.00000  0.50000  0.50000  1.0000
