data_image0
_chemical_formula_structural       Br2ORb4
_chemical_formula_sum              "Br2 O1 Rb4"
_cell_length_a       5.4729
_cell_length_b       5.4729
_cell_length_c       9.51169
_cell_angle_alpha    106.72
_cell_angle_beta     106.72
_cell_angle_gamma    90

_space_group_name_H-M_alt    "P 1"
_space_group_IT_number       1

loop_
  _space_group_symop_operation_xyz
  'x, y, z'

loop_
  _atom_site_type_symbol
  _atom_site_label
  _atom_site_symmetry_multiplicity
  _atom_site_fract_x
  _atom_site_fract_y
  _atom_site_fract_z
  _atom_site_occupancy
  Br  Br1       1.0  0.64400  0.64400  0.28700  1.0000
  Br  Br2       1.0  0.35600  0.35600  0.71300  1.0000
  O   O1        1.0  0.00000  0.00000  0.00000  1.0000
  Rb  Rb1       1.0  0.50000  0.00000  0.00000  1.0000
  Rb  Rb2       1.0  0.00000  0.50000  0.00000  1.0000
  Rb  Rb3       1.0  0.15500  0.15500  0.31000  1.0000
  Rb  Rb4       1.0  0.84500  0.84500  0.69000  1.0000
