data_image0
_chemical_formula_structural       Br2Ca2CuO2
_chemical_formula_sum              "Br2 Ca2 Cu1 O2"
_cell_length_a       3.85979
_cell_length_b       3.85979
_cell_length_c       9.05243
_cell_angle_alpha    102.309
_cell_angle_beta     102.309
_cell_angle_gamma    90

_space_group_name_H-M_alt    "P 1"
_space_group_IT_number       1

loop_
  _space_group_symop_operation_xyz
  'x, y, z'

loop_
  _atom_site_type_symbol
  _atom_site_label
  _atom_site_symmetry_multiplicity
  _atom_site_fract_x
  _atom_site_fract_y
  _atom_site_fract_z
  _atom_site_occupancy
  Br  Br1       1.0  0.17100  0.17100  0.34200  1.0000
  Br  Br2       1.0  0.82900  0.82900  0.65800  1.0000
  Ca  Ca1       1.0  0.59000  0.59000  0.18000  1.0000
  Ca  Ca2       1.0  0.41000  0.41000  0.82000  1.0000
  Cu  Cu1       1.0  0.00000  0.00000  0.00000  1.0000
  O   O1        1.0  0.50000  0.00000  0.00000  1.0000
  O   O2        1.0  0.00000  0.50000  0.00000  1.0000
