data_image0
_chemical_formula_structural       H4N4Sr4
_chemical_formula_sum              "H4 N4 Sr4"
_cell_length_a       7.50957
_cell_length_b       3.90618
_cell_length_c       5.67894
_cell_angle_alpha    90
_cell_angle_beta     90
_cell_angle_gamma    90

_space_group_name_H-M_alt    "P 1"
_space_group_IT_number       1

loop_
  _space_group_symop_operation_xyz
  'x, y, z'

loop_
  _atom_site_type_symbol
  _atom_site_label
  _atom_site_symmetry_multiplicity
  _atom_site_fract_x
  _atom_site_fract_y
  _atom_site_fract_z
  _atom_site_occupancy
  H   H1        1.0  0.02190  0.25000  0.10200  1.0000
  H   H2        1.0  0.52200  0.25000  0.39800  1.0000
  H   H3        1.0  0.47800  0.75000  0.60200  1.0000
  H   H4        1.0  0.97800  0.75000  0.89800  1.0000
  N   N1        1.0  0.11200  0.25000  0.24000  1.0000
  N   N2        1.0  0.61200  0.25000  0.26000  1.0000
  N   N3        1.0  0.38800  0.75000  0.74000  1.0000
  N   N4        1.0  0.88800  0.75000  0.76000  1.0000
  Sr  Sr1       1.0  0.35100  0.75000  0.18100  1.0000
  Sr  Sr2       1.0  0.85100  0.75000  0.31900  1.0000
  Sr  Sr3       1.0  0.14900  0.25000  0.68100  1.0000
  Sr  Sr4       1.0  0.64900  0.25000  0.81900  1.0000
