data_image0
_chemical_formula_structural       H6Pd2Ti4
_chemical_formula_sum              "H6 Pd2 Ti4"
_cell_length_a       2.88827
_cell_length_b       2.88827
_cell_length_c       12.911
_cell_angle_alpha    90
_cell_angle_beta     90
_cell_angle_gamma    90

_space_group_name_H-M_alt    "P 1"
_space_group_IT_number       1

loop_
  _space_group_symop_operation_xyz
  'x, y, z'

loop_
  _atom_site_type_symbol
  _atom_site_label
  _atom_site_symmetry_multiplicity
  _atom_site_fract_x
  _atom_site_fract_y
  _atom_site_fract_z
  _atom_site_occupancy
  H   H1        1.0  0.50000  0.00000  0.24000  1.0000
  H   H2        1.0  0.00000  0.50000  0.24000  1.0000
  H   H3        1.0  0.50000  0.50000  0.36300  1.0000
  H   H4        1.0  0.50000  0.50000  0.63700  1.0000
  H   H5        1.0  0.50000  0.00000  0.76000  1.0000
  H   H6        1.0  0.00000  0.50000  0.76000  1.0000
  Pd  Pd1       1.0  0.00000  0.00000  0.00000  1.0000
  Pd  Pd2       1.0  0.50000  0.50000  0.50000  1.0000
  Ti  Ti1       1.0  0.50000  0.50000  0.14600  1.0000
  Ti  Ti2       1.0  0.00000  0.00000  0.33900  1.0000
  Ti  Ti3       1.0  0.00000  0.00000  0.66100  1.0000
  Ti  Ti4       1.0  0.50000  0.50000  0.85400  1.0000
