data_image0
_chemical_formula_structural       Ca6H4Pb2
_chemical_formula_sum              "Ca6 H4 Pb2"
_cell_length_a       5.2949
_cell_length_b       7.21529
_cell_length_c       7.21529
_cell_angle_alpha    104.24
_cell_angle_beta     90
_cell_angle_gamma    90

_space_group_name_H-M_alt    "P 1"
_space_group_IT_number       1

loop_
  _space_group_symop_operation_xyz
  'x, y, z'

loop_
  _atom_site_type_symbol
  _atom_site_label
  _atom_site_symmetry_multiplicity
  _atom_site_fract_x
  _atom_site_fract_y
  _atom_site_fract_z
  _atom_site_occupancy
  Ca  Ca1       1.0  0.25000  0.89100  0.10900  1.0000
  Ca  Ca2       1.0  0.25000  0.40700  0.18500  1.0000
  Ca  Ca3       1.0  0.75000  0.18500  0.40700  1.0000
  Ca  Ca4       1.0  0.25000  0.81500  0.59300  1.0000
  Ca  Ca5       1.0  0.75000  0.59300  0.81500  1.0000
  Ca  Ca6       1.0  0.75000  0.10900  0.89100  1.0000
  H   H1        1.0  0.00000  0.15100  0.15100  1.0000
  H   H2        1.0  0.50000  0.15100  0.15100  1.0000
  H   H3        1.0  0.00000  0.84900  0.84900  1.0000
  H   H4        1.0  0.50000  0.84900  0.84900  1.0000
  Pb  Pb1       1.0  0.75000  0.69200  0.30800  1.0000
  Pb  Pb2       1.0  0.25000  0.30800  0.69200  1.0000
