data_image0
_chemical_formula_structural       Ca6H4Sn2
_chemical_formula_sum              "Ca6 H4 Sn2"
_cell_length_a       5.2422
_cell_length_b       7.17604
_cell_length_c       7.17604
_cell_angle_alpha    104.174
_cell_angle_beta     90
_cell_angle_gamma    90

_space_group_name_H-M_alt    "P 1"
_space_group_IT_number       1

loop_
  _space_group_symop_operation_xyz
  'x, y, z'

loop_
  _atom_site_type_symbol
  _atom_site_label
  _atom_site_symmetry_multiplicity
  _atom_site_fract_x
  _atom_site_fract_y
  _atom_site_fract_z
  _atom_site_occupancy
  Ca  Ca1       1.0  0.25000  0.89000  0.11000  1.0000
  Ca  Ca2       1.0  0.25000  0.40800  0.18600  1.0000
  Ca  Ca3       1.0  0.75000  0.18600  0.40800  1.0000
  Ca  Ca4       1.0  0.25000  0.81400  0.59200  1.0000
  Ca  Ca5       1.0  0.75000  0.59200  0.81400  1.0000
  Ca  Ca6       1.0  0.75000  0.11000  0.89000  1.0000
  H   H1        1.0  0.00000  0.15100  0.15100  1.0000
  H   H2        1.0  0.50000  0.15100  0.15100  1.0000
  H   H3        1.0  0.00000  0.84900  0.84900  1.0000
  H   H4        1.0  0.50000  0.84900  0.84900  1.0000
  Sn  Sn1       1.0  0.75000  0.69300  0.30700  1.0000
  Sn  Sn2       1.0  0.25000  0.30700  0.69300  1.0000
