data_image0
_chemical_formula_structural       Cl2H4Lu2O4
_chemical_formula_sum              "Cl2 H4 Lu2 O4"
_cell_length_a       6.09464
_cell_length_b       3.48038
_cell_length_c       6.51864
_cell_angle_alpha    90
_cell_angle_beta     104.869
_cell_angle_gamma    90

_space_group_name_H-M_alt    "P 1"
_space_group_IT_number       1

loop_
  _space_group_symop_operation_xyz
  'x, y, z'

loop_
  _atom_site_type_symbol
  _atom_site_label
  _atom_site_symmetry_multiplicity
  _atom_site_fract_x
  _atom_site_fract_y
  _atom_site_fract_z
  _atom_site_occupancy
  Cl  Cl1       1.0  0.22700  0.75000  0.42500  1.0000
  Cl  Cl2       1.0  0.77300  0.25000  0.57500  1.0000
  H   H1        1.0  0.87100  0.25000  0.23600  1.0000
  H   H2        1.0  0.63800  0.75000  0.30800  1.0000
  H   H3        1.0  0.36200  0.25000  0.69200  1.0000
  H   H4        1.0  0.12900  0.75000  0.76400  1.0000
  Lu  Lu1       1.0  0.28000  0.25000  0.10700  1.0000
  Lu  Lu2       1.0  0.72000  0.75000  0.89300  1.0000
  O   O1        1.0  0.89500  0.25000  0.09290  1.0000
  O   O2        1.0  0.54500  0.75000  0.16100  1.0000
  O   O3        1.0  0.45500  0.25000  0.83900  1.0000
  O   O4        1.0  0.10500  0.75000  0.90700  1.0000
