data_image0
_chemical_formula_structural       Ag2Br2H6N2
_chemical_formula_sum              "Ag2 Br2 H6 N2"
_cell_length_a       4.23125
_cell_length_b       5.84786
_cell_length_c       6.77288
_cell_angle_alpha    90
_cell_angle_beta     98.087
_cell_angle_gamma    90

_space_group_name_H-M_alt    "P 1"
_space_group_IT_number       1

loop_
  _space_group_symop_operation_xyz
  'x, y, z'

loop_
  _atom_site_type_symbol
  _atom_site_label
  _atom_site_symmetry_multiplicity
  _atom_site_fract_x
  _atom_site_fract_y
  _atom_site_fract_z
  _atom_site_occupancy
  Ag  Ag1       1.0  0.67000  0.25000  0.02900  1.0000
  Ag  Ag2       1.0  0.33000  0.75000  0.97100  1.0000
  Br  Br1       1.0  0.97500  0.75000  0.24400  1.0000
  Br  Br2       1.0  0.02500  0.25000  0.75600  1.0000
  H   H1        1.0  0.32500  0.10800  0.31600  1.0000
  H   H2        1.0  0.32500  0.39200  0.31600  1.0000
  H   H3        1.0  0.64100  0.25000  0.43200  1.0000
  H   H4        1.0  0.35900  0.75000  0.56800  1.0000
  H   H5        1.0  0.67500  0.60800  0.68400  1.0000
  H   H6        1.0  0.67500  0.89200  0.68400  1.0000
  N   N1        1.0  0.46700  0.25000  0.30900  1.0000
  N   N2        1.0  0.53300  0.75000  0.69100  1.0000
