data_image0
_chemical_formula_structural       Gd4Li4O8
_chemical_formula_sum              "Gd4 Li4 O8"
_cell_length_a       5.30449
_cell_length_b       11.2931
_cell_length_c       3.40936
_cell_angle_alpha    90
_cell_angle_beta     90
_cell_angle_gamma    90

_space_group_name_H-M_alt    "P 1"
_space_group_IT_number       1

loop_
  _space_group_symop_operation_xyz
  'x, y, z'

loop_
  _atom_site_type_symbol
  _atom_site_label
  _atom_site_symmetry_multiplicity
  _atom_site_fract_x
  _atom_site_fract_y
  _atom_site_fract_z
  _atom_site_occupancy
  Gd  Gd1       1.0  0.95000  0.14100  0.25000  1.0000
  Gd  Gd2       1.0  0.55000  0.64100  0.25000  1.0000
  Gd  Gd3       1.0  0.45000  0.35900  0.75000  1.0000
  Gd  Gd4       1.0  0.05000  0.85900  0.75000  1.0000
  Li  Li1       1.0  0.90000  0.43500  0.25000  1.0000
  Li  Li2       1.0  0.60000  0.93500  0.25000  1.0000
  Li  Li3       1.0  0.40000  0.06480  0.75000  1.0000
  Li  Li4       1.0  0.10000  0.56500  0.75000  1.0000
  O   O1        1.0  0.69300  0.29600  0.25000  1.0000
  O   O2        1.0  0.25500  0.47400  0.25000  1.0000
  O   O3        1.0  0.80700  0.79600  0.25000  1.0000
  O   O4        1.0  0.24500  0.97400  0.25000  1.0000
  O   O5        1.0  0.75500  0.02600  0.75000  1.0000
  O   O6        1.0  0.19300  0.20400  0.75000  1.0000
  O   O7        1.0  0.74500  0.52600  0.75000  1.0000
  O   O8        1.0  0.30700  0.70400  0.75000  1.0000
