data_image0
_chemical_formula_structural       Cs4H4S4
_chemical_formula_sum              "Cs4 H4 S4"
_cell_length_a       7.43314
_cell_length_b       7.43314
_cell_length_c       7.43314
_cell_angle_alpha    104.253
_cell_angle_beta     112.142
_cell_angle_gamma    112.142

_space_group_name_H-M_alt    "P 1"
_space_group_IT_number       1

loop_
  _space_group_symop_operation_xyz
  'x, y, z'

loop_
  _atom_site_type_symbol
  _atom_site_label
  _atom_site_symmetry_multiplicity
  _atom_site_fract_x
  _atom_site_fract_y
  _atom_site_fract_z
  _atom_site_occupancy
  Cs  Cs1       1.0  0.50000  0.75000  0.25000  1.0000
  Cs  Cs2       1.0  1.00000  0.26300  0.26300  1.0000
  Cs  Cs3       1.0  1.00000  0.73700  0.73700  1.0000
  Cs  Cs4       1.0  0.50000  0.25000  0.75000  1.0000
  H   H1        1.0  0.84000  0.75300  0.08690  1.0000
  H   H2        1.0  0.33400  0.08690  0.24700  1.0000
  H   H3        1.0  0.66600  0.91300  0.75300  1.0000
  H   H4        1.0  0.16000  0.24700  0.91300  1.0000
  S   S1        1.0  0.49700  0.25200  0.24500  1.0000
  S   S2        1.0  0.00622  0.75500  0.25200  1.0000
  S   S3        1.0  0.99400  0.24500  0.74800  1.0000
  S   S4        1.0  0.50300  0.74800  0.75500  1.0000
