data_image0
_chemical_formula_structural       CsH4LiO5S
_chemical_formula_sum              "Cs1 H4 Li1 O5 S1"
_cell_length_a       4.69986
_cell_length_b       5.62438
_cell_length_c       6.52076
_cell_angle_alpha    115.548
_cell_angle_beta     107.168
_cell_angle_gamma    90

_space_group_name_H-M_alt    "P 1"
_space_group_IT_number       1

loop_
  _space_group_symop_operation_xyz
  'x, y, z'

loop_
  _atom_site_type_symbol
  _atom_site_label
  _atom_site_symmetry_multiplicity
  _atom_site_fract_x
  _atom_site_fract_y
  _atom_site_fract_z
  _atom_site_occupancy
  Cs  Cs1       1.0  0.99300  0.00013  0.00026  1.0000
  H   H1        1.0  0.78900  0.54300  0.08680  1.0000
  H   H2        1.0  0.44300  0.54400  0.08700  1.0000
  H   H3        1.0  0.77400  0.09730  0.46900  1.0000
  H   H4        1.0  0.77400  0.37200  0.46900  1.0000
  Li  Li1       1.0  0.37300  0.32200  0.64400  1.0000
  O   O1        1.0  0.16700  0.60400  0.20800  1.0000
  O   O2        1.0  0.63200  0.22100  0.44200  1.0000
  O   O3        1.0  0.11800  0.56000  0.55400  1.0000
  O   O4        1.0  0.11800  0.99400  0.55400  1.0000
  O   O5        1.0  0.57400  0.49100  0.98300  1.0000
  S   S1        1.0  0.27200  0.74300  0.48600  1.0000
