data_image0
_chemical_formula_structural       Li6O8Sb2
_chemical_formula_sum              "Li6 O8 Sb2"
_cell_length_a       5.11679
_cell_length_b       6.07166
_cell_length_c       5.12578
_cell_angle_alpha    90
_cell_angle_beta     108.723
_cell_angle_gamma    90

_space_group_name_H-M_alt    "P 1"
_space_group_IT_number       1

loop_
  _space_group_symop_operation_xyz
  'x, y, z'

loop_
  _atom_site_type_symbol
  _atom_site_label
  _atom_site_symmetry_multiplicity
  _atom_site_fract_x
  _atom_site_fract_y
  _atom_site_fract_z
  _atom_site_occupancy
  Li  Li1       1.0  0.00000  0.61300  0.25000  1.0000
  Li  Li2       1.0  0.50000  0.42500  0.25000  1.0000
  Li  Li3       1.0  0.50000  0.85500  0.25000  1.0000
  Li  Li4       1.0  0.50000  0.14500  0.75000  1.0000
  Li  Li5       1.0  0.50000  0.57500  0.75000  1.0000
  Li  Li6       1.0  0.00000  0.38700  0.75000  1.0000
  O   O1        1.0  0.22800  0.10400  0.99500  1.0000
  O   O2        1.0  0.77200  0.89600  0.00534  1.0000
  O   O3        1.0  0.75400  0.36300  0.01930  1.0000
  O   O4        1.0  0.24600  0.36300  0.48100  1.0000
  O   O5        1.0  0.22800  0.89600  0.49500  1.0000
  O   O6        1.0  0.77200  0.10400  0.50500  1.0000
  O   O7        1.0  0.75400  0.63700  0.51900  1.0000
  O   O8        1.0  0.24600  0.63700  0.98100  1.0000
  Sb  Sb1       1.0  0.00000  0.14500  0.25000  1.0000
  Sb  Sb2       1.0  0.00000  0.85500  0.75000  1.0000
