data_image0
_chemical_formula_structural       Cs4H4O4
_chemical_formula_sum              "Cs4 H4 O4"
_cell_length_a       4.37786
_cell_length_b       12.8609
_cell_length_c       4.29009
_cell_angle_alpha    90
_cell_angle_beta     90
_cell_angle_gamma    90

_space_group_name_H-M_alt    "P 1"
_space_group_IT_number       1

loop_
  _space_group_symop_operation_xyz
  'x, y, z'

loop_
  _atom_site_type_symbol
  _atom_site_label
  _atom_site_symmetry_multiplicity
  _atom_site_fract_x
  _atom_site_fract_y
  _atom_site_fract_z
  _atom_site_occupancy
  Cs  Cs1       1.0  0.99500  0.64800  0.24800  1.0000
  Cs  Cs2       1.0  0.00455  0.14800  0.25200  1.0000
  Cs  Cs3       1.0  0.50500  0.35200  0.74800  1.0000
  Cs  Cs4       1.0  0.49500  0.85200  0.75200  1.0000
  H   H1        1.0  0.00742  0.43900  0.13700  1.0000
  H   H2        1.0  0.99300  0.93900  0.36300  1.0000
  H   H3        1.0  0.49300  0.56100  0.63700  1.0000
  H   H4        1.0  0.50700  0.06100  0.86300  1.0000
  O   O1        1.0  0.99600  0.87800  0.22900  1.0000
  O   O2        1.0  0.00374  0.37800  0.27100  1.0000
  O   O3        1.0  0.50400  0.12200  0.72900  1.0000
  O   O4        1.0  0.49600  0.62200  0.77100  1.0000
