data_image0
_chemical_formula_structural       Ge6Li4Lu6
_chemical_formula_sum              "Ge6 Li4 Lu6"
_cell_length_a       4.14445
_cell_length_b       5.84874
_cell_length_c       13.9075
_cell_angle_alpha    90.0005
_cell_angle_beta     90
_cell_angle_gamma    69.2492

_space_group_name_H-M_alt    "P 1"
_space_group_IT_number       1

loop_
  _space_group_symop_operation_xyz
  'x, y, z'

loop_
  _atom_site_type_symbol
  _atom_site_label
  _atom_site_symmetry_multiplicity
  _atom_site_fract_x
  _atom_site_fract_y
  _atom_site_fract_z
  _atom_site_occupancy
  Ge  Ge1       1.0  0.10200  0.79600  0.04500  1.0000
  Ge  Ge2       1.0  0.83500  0.33000  0.25000  1.0000
  Ge  Ge3       1.0  0.10200  0.79600  0.45500  1.0000
  Ge  Ge4       1.0  0.89800  0.20400  0.54500  1.0000
  Ge  Ge5       1.0  0.16500  0.67000  0.75000  1.0000
  Ge  Ge6       1.0  0.89800  0.20400  0.95500  1.0000
  Li  Li1       1.0  0.72000  0.56000  0.08240  1.0000
  Li  Li2       1.0  0.72000  0.56000  0.41800  1.0000
  Li  Li3       1.0  0.28000  0.44000  0.58200  1.0000
  Li  Li4       1.0  0.28000  0.44000  0.91800  1.0000
  Lu  Lu1       1.0  0.42700  0.14700  0.11700  1.0000
  Lu  Lu2       1.0  0.13600  0.72700  0.25000  1.0000
  Lu  Lu3       1.0  0.42700  0.14700  0.38300  1.0000
  Lu  Lu4       1.0  0.57300  0.85300  0.61700  1.0000
  Lu  Lu5       1.0  0.86400  0.27300  0.75000  1.0000
  Lu  Lu6       1.0  0.57300  0.85300  0.88300  1.0000
