data_image0
_chemical_formula_structural       Br8Cs2Li6
_chemical_formula_sum              "Br8 Cs2 Li6"
_cell_length_a       5.08383
_cell_length_b       10.8327
_cell_length_c       8.59417
_cell_angle_alpha    90
_cell_angle_beta     90
_cell_angle_gamma    90

_space_group_name_H-M_alt    "P 1"
_space_group_IT_number       1

loop_
  _space_group_symop_operation_xyz
  'x, y, z'

loop_
  _atom_site_type_symbol
  _atom_site_label
  _atom_site_symmetry_multiplicity
  _atom_site_fract_x
  _atom_site_fract_y
  _atom_site_fract_z
  _atom_site_occupancy
  Br  Br1       1.0  0.50000  0.76100  0.01330  1.0000
  Br  Br2       1.0  0.00000  0.37300  0.16100  1.0000
  Br  Br3       1.0  0.00000  0.00387  0.25400  1.0000
  Br  Br4       1.0  0.50000  0.85900  0.48300  1.0000
  Br  Br5       1.0  0.50000  0.23900  0.51300  1.0000
  Br  Br6       1.0  0.00000  0.62700  0.66100  1.0000
  Br  Br7       1.0  0.00000  0.99600  0.75400  1.0000
  Br  Br8       1.0  0.50000  0.14100  0.98300  1.0000
  Cs  Cs1       1.0  0.50000  0.55100  0.35700  1.0000
  Cs  Cs2       1.0  0.50000  0.44900  0.85700  1.0000
  Li  Li1       1.0  0.00000  0.14700  0.02030  1.0000
  Li  Li2       1.0  0.50000  0.95500  0.19500  1.0000
  Li  Li3       1.0  0.00000  0.21500  0.38900  1.0000
  Li  Li4       1.0  0.00000  0.85300  0.52000  1.0000
  Li  Li5       1.0  0.50000  0.04480  0.69500  1.0000
  Li  Li6       1.0  0.00000  0.78500  0.88900  1.0000
