data_image0
_chemical_formula_structural       B12C2Li2
_chemical_formula_sum              "B12 C2 Li2"
_cell_length_a       4.70299
_cell_length_b       5.31544
_cell_length_c       5.31544
_cell_angle_alpha    64.1819
_cell_angle_beta     90
_cell_angle_gamma    90

_space_group_name_H-M_alt    "P 1"
_space_group_IT_number       1

loop_
  _space_group_symop_operation_xyz
  'x, y, z'

loop_
  _atom_site_type_symbol
  _atom_site_label
  _atom_site_symmetry_multiplicity
  _atom_site_fract_x
  _atom_site_fract_y
  _atom_site_fract_z
  _atom_site_occupancy
  B   B1        1.0  0.00000  0.33100  0.00687  1.0000
  B   B2        1.0  0.30600  0.09760  0.09780  1.0000
  B   B3        1.0  0.69400  0.09760  0.09780  1.0000
  B   B4        1.0  0.18300  0.74200  0.25800  1.0000
  B   B5        1.0  0.81700  0.74200  0.25800  1.0000
  B   B6        1.0  0.00000  0.00701  0.33200  1.0000
  B   B7        1.0  0.00000  0.99300  0.66900  1.0000
  B   B8        1.0  0.18300  0.25600  0.74400  1.0000
  B   B9        1.0  0.81700  0.25600  0.74400  1.0000
  B   B10       1.0  0.30600  0.90200  0.90200  1.0000
  B   B11       1.0  0.69400  0.90200  0.90200  1.0000
  B   B12       1.0  0.00000  0.66800  0.99300  1.0000
  C   C1        1.0  0.35400  0.49800  0.50200  1.0000
  C   C2        1.0  0.64600  0.49800  0.50200  1.0000
  Li  Li1       1.0  0.50000  0.47100  0.11300  1.0000
  Li  Li2       1.0  0.50000  0.88700  0.52900  1.0000
