data_image0
_chemical_formula_structural       B4Li4S10
_chemical_formula_sum              "B4 Li4 S10"
_cell_length_a       6.49675
_cell_length_b       6.94207
_cell_length_c       8.60582
_cell_angle_alpha    90
_cell_angle_beta     67.8234
_cell_angle_gamma    90

_space_group_name_H-M_alt    "P 1"
_space_group_IT_number       1

loop_
  _space_group_symop_operation_xyz
  'x, y, z'

loop_
  _atom_site_type_symbol
  _atom_site_label
  _atom_site_symmetry_multiplicity
  _atom_site_fract_x
  _atom_site_fract_y
  _atom_site_fract_z
  _atom_site_occupancy
  B   B1        1.0  0.55400  0.25000  0.17500  1.0000
  B   B2        1.0  0.27100  0.75000  0.17500  1.0000
  B   B3        1.0  0.72900  0.25000  0.82500  1.0000
  B   B4        1.0  0.44600  0.75000  0.82500  1.0000
  Li  Li1       1.0  0.76900  0.00000  0.46100  1.0000
  Li  Li2       1.0  0.76900  0.50000  0.46100  1.0000
  Li  Li3       1.0  0.23100  0.00000  0.53900  1.0000
  Li  Li4       1.0  0.23100  0.50000  0.53900  1.0000
  S   S1        1.0  0.82000  0.25000  0.00000  1.0000
  S   S2        1.0  0.18000  0.75000  0.00000  1.0000
  S   S3        1.0  0.30300  0.25000  0.13100  1.0000
  S   S4        1.0  0.56600  0.75000  0.13100  1.0000
  S   S5        1.0  0.52900  0.25000  0.39100  1.0000
  S   S6        1.0  0.07960  0.75000  0.39100  1.0000
  S   S7        1.0  0.92000  0.25000  0.60900  1.0000
  S   S8        1.0  0.47100  0.75000  0.60900  1.0000
  S   S9        1.0  0.43400  0.25000  0.86900  1.0000
  S   S10       1.0  0.69700  0.75000  0.86900  1.0000
