data_image0
_chemical_formula_structural       Ge2Li8O8
_chemical_formula_sum              "Ge2 Li8 O8"
_cell_length_a       5.30611
_cell_length_b       6.02358
_cell_length_c       5.30611
_cell_angle_alpha    90
_cell_angle_beta     86.5275
_cell_angle_gamma    90

_space_group_name_H-M_alt    "P 1"
_space_group_IT_number       1

loop_
  _space_group_symop_operation_xyz
  'x, y, z'

loop_
  _atom_site_type_symbol
  _atom_site_label
  _atom_site_symmetry_multiplicity
  _atom_site_fract_x
  _atom_site_fract_y
  _atom_site_fract_z
  _atom_site_occupancy
  Ge  Ge1       1.0  0.65800  0.25000  0.34200  1.0000
  Ge  Ge2       1.0  0.34200  0.75000  0.65800  1.0000
  Li  Li1       1.0  0.58000  0.75000  0.12100  1.0000
  Li  Li2       1.0  0.15900  0.00000  0.15900  1.0000
  Li  Li3       1.0  0.15900  0.50000  0.15900  1.0000
  Li  Li4       1.0  0.87900  0.75000  0.42000  1.0000
  Li  Li5       1.0  0.12100  0.25000  0.58000  1.0000
  Li  Li6       1.0  0.84100  0.00000  0.84100  1.0000
  Li  Li7       1.0  0.84100  0.50000  0.84100  1.0000
  Li  Li8       1.0  0.42000  0.25000  0.87900  1.0000
  O   O1        1.0  0.79500  0.00578  0.20500  1.0000
  O   O2        1.0  0.79500  0.49400  0.20500  1.0000
  O   O3        1.0  0.33700  0.25000  0.26800  1.0000
  O   O4        1.0  0.26800  0.75000  0.33700  1.0000
  O   O5        1.0  0.73200  0.25000  0.66300  1.0000
  O   O6        1.0  0.66300  0.75000  0.73200  1.0000
  O   O7        1.0  0.20500  0.50600  0.79500  1.0000
  O   O8        1.0  0.20500  0.99400  0.79500  1.0000
