data_image0
_chemical_formula_structural       Ca2Ga2H8
_chemical_formula_sum              "Ca2 Ga2 H8"
_cell_length_a       6.85968
_cell_length_b       5.07762
_cell_length_c       4.08951
_cell_angle_alpha    90
_cell_angle_beta     119.46
_cell_angle_gamma    90

_space_group_name_H-M_alt    "P 1"
_space_group_IT_number       1

loop_
  _space_group_symop_operation_xyz
  'x, y, z'

loop_
  _atom_site_type_symbol
  _atom_site_label
  _atom_site_symmetry_multiplicity
  _atom_site_fract_x
  _atom_site_fract_y
  _atom_site_fract_z
  _atom_site_occupancy
  Ca  Ca1       1.0  0.68300  0.30500  0.40500  1.0000
  Ca  Ca2       1.0  0.31700  0.80500  0.59500  1.0000
  Ga  Ga1       1.0  0.81900  0.80500  0.13700  1.0000
  Ga  Ga2       1.0  0.18100  0.30500  0.86300  1.0000
  H   H1        1.0  0.00254  0.30700  0.01220  1.0000
  H   H2        1.0  0.36300  0.04790  0.12900  1.0000
  H   H3        1.0  0.36400  0.56200  0.13000  1.0000
  H   H4        1.0  0.00000  0.05650  0.49900  1.0000
  H   H5        1.0  0.00013  0.55600  0.50100  1.0000
  H   H6        1.0  0.63600  0.06240  0.87000  1.0000
  H   H7        1.0  0.63700  0.54800  0.87100  1.0000
  H   H8        1.0  0.99700  0.80700  0.98800  1.0000
