data_image0
_chemical_formula_structural       Br8Cs6Li2
_chemical_formula_sum              "Br8 Cs6 Li2"
_cell_length_a       8.17846
_cell_length_b       9.24285
_cell_length_c       9.24285
_cell_angle_alpha    103.592
_cell_angle_beta     90
_cell_angle_gamma    90

_space_group_name_H-M_alt    "P 1"
_space_group_IT_number       1

loop_
  _space_group_symop_operation_xyz
  'x, y, z'

loop_
  _atom_site_type_symbol
  _atom_site_label
  _atom_site_symmetry_multiplicity
  _atom_site_fract_x
  _atom_site_fract_y
  _atom_site_fract_z
  _atom_site_occupancy
  Br  Br1       1.0  0.65500  0.62500  0.00372  1.0000
  Br  Br2       1.0  0.50000  0.03470  0.03470  1.0000
  Br  Br3       1.0  0.84500  0.99600  0.37500  1.0000
  Br  Br4       1.0  0.50000  0.48800  0.48800  1.0000
  Br  Br5       1.0  0.00000  0.51200  0.51200  1.0000
  Br  Br6       1.0  0.34500  0.00372  0.62500  1.0000
  Br  Br7       1.0  0.00000  0.96500  0.96500  1.0000
  Br  Br8       1.0  0.15500  0.37500  0.99600  1.0000
  Cs  Cs1       1.0  0.77100  0.33800  0.18800  1.0000
  Cs  Cs2       1.0  0.25000  0.70500  0.29500  1.0000
  Cs  Cs3       1.0  0.22900  0.18800  0.33800  1.0000
  Cs  Cs4       1.0  0.72900  0.81200  0.66200  1.0000
  Cs  Cs5       1.0  0.75000  0.29500  0.70500  1.0000
  Cs  Cs6       1.0  0.27100  0.66200  0.81200  1.0000
  Li  Li1       1.0  0.75000  0.89100  0.10900  1.0000
  Li  Li2       1.0  0.25000  0.10900  0.89100  1.0000
