data_image0
_chemical_formula_structural       H4Mg3O5
_chemical_formula_sum              "H4 Mg3 O5"
_cell_length_a       3.06326
_cell_length_b       3.06328
_cell_length_c       11.9116
_cell_angle_alpha    90
_cell_angle_beta     89.9986
_cell_angle_gamma    120

_space_group_name_H-M_alt    "P 1"
_space_group_IT_number       1

loop_
  _space_group_symop_operation_xyz
  'x, y, z'

loop_
  _atom_site_type_symbol
  _atom_site_label
  _atom_site_symmetry_multiplicity
  _atom_site_fract_x
  _atom_site_fract_y
  _atom_site_fract_z
  _atom_site_occupancy
  H   H1        1.0  0.66700  0.33300  0.27100  1.0000
  H   H2        1.0  0.33300  0.66700  0.33000  1.0000
  H   H3        1.0  0.66700  0.33300  0.67000  1.0000
  H   H4        1.0  0.33300  0.66700  0.72900  1.0000
  Mg  Mg1       1.0  0.33300  0.66700  0.10100  1.0000
  Mg  Mg2       1.0  0.00000  0.00000  0.50000  1.0000
  Mg  Mg3       1.0  0.66700  0.33300  0.89900  1.0000
  O   O1        1.0  0.00000  0.00000  0.00000  1.0000
  O   O2        1.0  0.66700  0.33300  0.19000  1.0000
  O   O3        1.0  0.33300  0.66700  0.41100  1.0000
  O   O4        1.0  0.66700  0.33300  0.58900  1.0000
  O   O5        1.0  0.33300  0.66700  0.81000  1.0000
