data_image0
_chemical_formula_structural       Cs2H6O4
_chemical_formula_sum              "Cs2 H6 O4"
_cell_length_a       4.28554
_cell_length_b       4.28554
_cell_length_c       7.83364
_cell_angle_alpha    105.875
_cell_angle_beta     105.875
_cell_angle_gamma    90

_space_group_name_H-M_alt    "P 1"
_space_group_IT_number       1

loop_
  _space_group_symop_operation_xyz
  'x, y, z'

loop_
  _atom_site_type_symbol
  _atom_site_label
  _atom_site_symmetry_multiplicity
  _atom_site_fract_x
  _atom_site_fract_y
  _atom_site_fract_z
  _atom_site_occupancy
  Cs  Cs1       1.0  0.12500  0.87500  0.25000  1.0000
  Cs  Cs2       1.0  0.87500  0.12500  0.75000  1.0000
  H   H1        1.0  0.50000  0.50000  0.00000  1.0000
  H   H2        1.0  0.50000  0.00000  0.00000  1.0000
  H   H3        1.0  0.62500  0.37500  0.25000  1.0000
  H   H4        1.0  0.50000  0.50000  0.50000  1.0000
  H   H5        1.0  0.00000  0.50000  0.50000  1.0000
  H   H6        1.0  0.37500  0.62500  0.75000  1.0000
  O   O1        1.0  0.54100  0.29100  0.08140  1.0000
  O   O2        1.0  0.70900  0.45900  0.41900  1.0000
  O   O3        1.0  0.29100  0.54100  0.58100  1.0000
  O   O4        1.0  0.45900  0.70900  0.91900  1.0000
