data_image0
_chemical_formula_structural       BaFeH8Mg2
_chemical_formula_sum              "Ba1 Fe1 H8 Mg2"
_cell_length_a       4.50364
_cell_length_b       4.5036
_cell_length_c       6.8632
_cell_angle_alpha    90
_cell_angle_beta     90.0009
_cell_angle_gamma    120

_space_group_name_H-M_alt    "P 1"
_space_group_IT_number       1

loop_
  _space_group_symop_operation_xyz
  'x, y, z'

loop_
  _atom_site_type_symbol
  _atom_site_label
  _atom_site_symmetry_multiplicity
  _atom_site_fract_x
  _atom_site_fract_y
  _atom_site_fract_z
  _atom_site_occupancy
  Ba  Ba1       1.0  0.00000  0.00000  0.50000  1.0000
  Fe  Fe1       1.0  0.00000  0.00000  0.00000  1.0000
  H   H1        1.0  0.83900  0.16100  0.13800  1.0000
  H   H2        1.0  0.83900  0.67700  0.13800  1.0000
  H   H3        1.0  0.32300  0.16100  0.13800  1.0000
  H   H4        1.0  0.33300  0.66700  0.39200  1.0000
  H   H5        1.0  0.66700  0.33300  0.60800  1.0000
  H   H6        1.0  0.67700  0.83900  0.86200  1.0000
  H   H7        1.0  0.16100  0.32300  0.86200  1.0000
  H   H8        1.0  0.16100  0.83900  0.86200  1.0000
  Mg  Mg1       1.0  0.33300  0.66700  0.11300  1.0000
  Mg  Mg2       1.0  0.66700  0.33300  0.88700  1.0000
