data_image0
_chemical_formula_structural       Cs6I8Li2
_chemical_formula_sum              "Cs6 I8 Li2"
_cell_length_a       17.3727
_cell_length_b       9.3031
_cell_length_c       5.19976
_cell_angle_alpha    90
_cell_angle_beta     98.0515
_cell_angle_gamma    90

_space_group_name_H-M_alt    "P 1"
_space_group_IT_number       1

loop_
  _space_group_symop_operation_xyz
  'x, y, z'

loop_
  _atom_site_type_symbol
  _atom_site_label
  _atom_site_symmetry_multiplicity
  _atom_site_fract_x
  _atom_site_fract_y
  _atom_site_fract_z
  _atom_site_occupancy
  Cs  Cs1       1.0  0.54400  0.75000  0.28800  1.0000
  Cs  Cs2       1.0  0.74000  0.25000  0.37900  1.0000
  Cs  Cs3       1.0  0.00000  0.00000  0.50000  1.0000
  Cs  Cs4       1.0  0.00000  0.50000  0.50000  1.0000
  Cs  Cs5       1.0  0.26000  0.75000  0.62100  1.0000
  Cs  Cs6       1.0  0.45600  0.25000  0.71200  1.0000
  I   I1        1.0  0.09260  0.75000  0.04260  1.0000
  I   I2        1.0  0.36100  0.00566  0.16700  1.0000
  I   I3        1.0  0.36100  0.49400  0.16700  1.0000
  I   I4        1.0  0.81200  0.75000  0.41100  1.0000
  I   I5        1.0  0.18800  0.25000  0.58900  1.0000
  I   I6        1.0  0.63900  0.50600  0.83300  1.0000
  I   I7        1.0  0.63900  0.99400  0.83300  1.0000
  I   I8        1.0  0.90700  0.25000  0.95700  1.0000
  Li  Li1       1.0  0.26100  0.25000  0.12200  1.0000
  Li  Li2       1.0  0.73900  0.75000  0.87800  1.0000
