data_image0
_chemical_formula_structural       Li10N8Re2
_chemical_formula_sum              "Li10 N8 Re2"
_cell_length_a       6.67907
_cell_length_b       6.61456
_cell_length_c       4.87092
_cell_angle_alpha    90
_cell_angle_beta     90
_cell_angle_gamma    90

_space_group_name_H-M_alt    "P 1"
_space_group_IT_number       1

loop_
  _space_group_symop_operation_xyz
  'x, y, z'

loop_
  _atom_site_type_symbol
  _atom_site_label
  _atom_site_symmetry_multiplicity
  _atom_site_fract_x
  _atom_site_fract_y
  _atom_site_fract_z
  _atom_site_occupancy
  Li  Li1       1.0  0.55200  0.01180  0.24600  1.0000
  Li  Li2       1.0  0.94800  0.01180  0.24600  1.0000
  Li  Li3       1.0  0.55200  0.48800  0.24600  1.0000
  Li  Li4       1.0  0.94800  0.48800  0.24600  1.0000
  Li  Li5       1.0  0.25000  0.25000  0.29800  1.0000
  Li  Li6       1.0  0.75000  0.75000  0.70200  1.0000
  Li  Li7       1.0  0.05200  0.98800  0.75400  1.0000
  Li  Li8       1.0  0.44800  0.98800  0.75400  1.0000
  Li  Li9       1.0  0.05200  0.51200  0.75400  1.0000
  Li  Li10      1.0  0.44800  0.51200  0.75400  1.0000
  N   N1        1.0  0.25000  0.98200  0.07020  1.0000
  N   N2        1.0  0.25000  0.51800  0.07020  1.0000
  N   N3        1.0  0.01840  0.75000  0.48200  1.0000
  N   N4        1.0  0.48200  0.75000  0.48200  1.0000
  N   N5        1.0  0.51800  0.25000  0.51800  1.0000
  N   N6        1.0  0.98200  0.25000  0.51800  1.0000
  N   N7        1.0  0.75000  0.01830  0.93000  1.0000
  N   N8        1.0  0.75000  0.48200  0.93000  1.0000
  Re  Re1       1.0  0.25000  0.75000  0.27700  1.0000
  Re  Re2       1.0  0.75000  0.25000  0.72300  1.0000
