data_image0
_chemical_formula_structural       H2Mg5O6
_chemical_formula_sum              "H2 Mg5 O6"
_cell_length_a       3.0027
_cell_length_b       3.00273
_cell_length_c       14.5741
_cell_angle_alpha    90
_cell_angle_beta     89.999
_cell_angle_gamma    120

_space_group_name_H-M_alt    "P 1"
_space_group_IT_number       1

loop_
  _space_group_symop_operation_xyz
  'x, y, z'

loop_
  _atom_site_type_symbol
  _atom_site_label
  _atom_site_symmetry_multiplicity
  _atom_site_fract_x
  _atom_site_fract_y
  _atom_site_fract_z
  _atom_site_occupancy
  H   H1        1.0  0.66700  0.33300  0.47300  1.0000
  H   H2        1.0  0.33300  0.66700  0.52700  1.0000
  Mg  Mg1       1.0  0.00000  0.00000  0.00000  1.0000
  Mg  Mg2       1.0  0.66700  0.33300  0.16700  1.0000
  Mg  Mg3       1.0  0.33300  0.66700  0.33300  1.0000
  Mg  Mg4       1.0  0.66700  0.33300  0.66700  1.0000
  Mg  Mg5       1.0  0.33300  0.66700  0.83300  1.0000
  O   O1        1.0  0.33300  0.66700  0.08330  1.0000
  O   O2        1.0  0.00000  0.00000  0.25000  1.0000
  O   O3        1.0  0.66700  0.33300  0.40600  1.0000
  O   O4        1.0  0.33300  0.66700  0.59400  1.0000
  O   O5        1.0  0.00000  0.00000  0.75000  1.0000
  O   O6        1.0  0.66700  0.33300  0.91700  1.0000
