data_image0
_chemical_formula_structural       I2Li2O6
_chemical_formula_sum              "I2 Li2 O6"
_cell_length_a       5.40824
_cell_length_b       5.40845
_cell_length_c       5.06884
_cell_angle_alpha    90
_cell_angle_beta     90
_cell_angle_gamma    119.999

_space_group_name_H-M_alt    "P 1"
_space_group_IT_number       1

loop_
  _space_group_symop_operation_xyz
  'x, y, z'

loop_
  _atom_site_type_symbol
  _atom_site_label
  _atom_site_symmetry_multiplicity
  _atom_site_fract_x
  _atom_site_fract_y
  _atom_site_fract_z
  _atom_site_occupancy
  I   I1        1.0  0.33300  0.66700  0.99700  1.0000
  I   I2        1.0  0.66700  0.33300  0.49700  1.0000
  Li  Li1       1.0  1.00000  1.00000  0.42600  1.0000
  Li  Li2       1.0  0.00001  0.00000  0.92600  1.0000
  O   O1        1.0  0.66100  0.73800  0.17000  1.0000
  O   O2        1.0  0.26200  0.92200  0.17000  1.0000
  O   O3        1.0  0.07770  0.33900  0.17000  1.0000
  O   O4        1.0  0.33900  0.26200  0.67000  1.0000
  O   O5        1.0  0.73800  0.07770  0.67000  1.0000
  O   O6        1.0  0.92200  0.66100  0.67000  1.0000
