data_image0
_chemical_formula_structural       Li8Mo2O10
_chemical_formula_sum              "Li8 Mo2 O10"
_cell_length_a       5.07617
_cell_length_b       7.67182
_cell_length_c       5.04414
_cell_angle_alpha    102.021
_cell_angle_beta     101.138
_cell_angle_gamma    108.573

_space_group_name_H-M_alt    "P 1"
_space_group_IT_number       1

loop_
  _space_group_symop_operation_xyz
  'x, y, z'

loop_
  _atom_site_type_symbol
  _atom_site_label
  _atom_site_symmetry_multiplicity
  _atom_site_fract_x
  _atom_site_fract_y
  _atom_site_fract_z
  _atom_site_occupancy
  Li  Li1       1.0  1.00000  0.50000  0.00000  1.0000
  Li  Li2       1.0  0.40700  0.90400  0.21800  1.0000
  Li  Li3       1.0  0.61400  0.60900  0.30700  1.0000
  Li  Li4       1.0  0.80700  0.29700  0.42300  1.0000
  Li  Li5       1.0  0.00000  0.00000  0.50000  1.0000
  Li  Li6       1.0  0.19300  0.70300  0.57700  1.0000
  Li  Li7       1.0  0.38600  0.39100  0.69300  1.0000
  Li  Li8       1.0  0.59300  0.09620  0.78200  1.0000
  Mo  Mo1       1.0  0.22500  0.22000  0.10800  1.0000
  Mo  Mo2       1.0  0.77500  0.78000  0.89200  1.0000
  O   O1        1.0  0.57700  0.34000  0.05170  1.0000
  O   O2        1.0  0.81800  0.04270  0.13400  1.0000
  O   O3        1.0  0.99100  0.75200  0.22500  1.0000
  O   O4        1.0  0.19100  0.43200  0.33600  1.0000
  O   O5        1.0  0.39000  0.15400  0.42900  1.0000
  O   O6        1.0  0.61000  0.84600  0.57100  1.0000
  O   O7        1.0  0.80900  0.56800  0.66400  1.0000
  O   O8        1.0  0.00895  0.24800  0.77500  1.0000
  O   O9        1.0  0.18200  0.95700  0.86600  1.0000
  O   O10       1.0  0.42300  0.66000  0.94800  1.0000
