data_image0
_chemical_formula_structural       Li12Mo2N8
_chemical_formula_sum              "Li12 Mo2 N8"
_cell_length_a       6.63888
_cell_length_b       6.63888
_cell_length_c       4.89428
_cell_angle_alpha    90
_cell_angle_beta     90
_cell_angle_gamma    90

_space_group_name_H-M_alt    "P 1"
_space_group_IT_number       1

loop_
  _space_group_symop_operation_xyz
  'x, y, z'

loop_
  _atom_site_type_symbol
  _atom_site_label
  _atom_site_symmetry_multiplicity
  _atom_site_fract_x
  _atom_site_fract_y
  _atom_site_fract_z
  _atom_site_occupancy
  Li  Li1       1.0  0.28700  0.28700  0.00000  1.0000
  Li  Li2       1.0  0.71300  0.28700  0.00000  1.0000
  Li  Li3       1.0  0.28700  0.71300  0.00000  1.0000
  Li  Li4       1.0  0.71300  0.71300  0.00000  1.0000
  Li  Li5       1.0  0.00000  0.50000  0.07800  1.0000
  Li  Li6       1.0  0.50000  0.00000  0.42200  1.0000
  Li  Li7       1.0  0.21300  0.21300  0.50000  1.0000
  Li  Li8       1.0  0.78700  0.21300  0.50000  1.0000
  Li  Li9       1.0  0.21300  0.78700  0.50000  1.0000
  Li  Li10      1.0  0.78700  0.78700  0.50000  1.0000
  Li  Li11      1.0  0.00000  0.50000  0.57800  1.0000
  Li  Li12      1.0  0.50000  0.00000  0.92200  1.0000
  Mo  Mo1       1.0  0.00000  0.00000  0.00000  1.0000
  Mo  Mo2       1.0  0.50000  0.50000  0.50000  1.0000
  N   N1        1.0  0.24300  0.00000  0.20000  1.0000
  N   N2        1.0  0.75700  0.00000  0.20000  1.0000
  N   N3        1.0  0.25700  0.50000  0.30000  1.0000
  N   N4        1.0  0.74300  0.50000  0.30000  1.0000
  N   N5        1.0  0.50000  0.25700  0.70000  1.0000
  N   N6        1.0  0.50000  0.74300  0.70000  1.0000
  N   N7        1.0  0.00000  0.24300  0.80000  1.0000
  N   N8        1.0  0.00000  0.75700  0.80000  1.0000
