data_image0
_chemical_formula_structural       Li16N4Te2
_chemical_formula_sum              "Li16 N4 Te2"
_cell_length_a       7.18337
_cell_length_b       7.18337
_cell_length_c       7.1991
_cell_angle_alpha    119.928
_cell_angle_beta     119.928
_cell_angle_gamma    90

_space_group_name_H-M_alt    "P 1"
_space_group_IT_number       1

loop_
  _space_group_symop_operation_xyz
  'x, y, z'

loop_
  _atom_site_type_symbol
  _atom_site_label
  _atom_site_symmetry_multiplicity
  _atom_site_fract_x
  _atom_site_fract_y
  _atom_site_fract_z
  _atom_site_occupancy
  Li  Li1       1.0  0.32200  0.26400  0.15600  1.0000
  Li  Li2       1.0  0.83400  0.26400  0.15600  1.0000
  Li  Li3       1.0  0.32200  0.89200  0.15600  1.0000
  Li  Li4       1.0  0.83400  0.89200  0.15600  1.0000
  Li  Li5       1.0  0.62900  0.62900  0.25800  1.0000
  Li  Li6       1.0  0.69200  0.03730  0.38400  1.0000
  Li  Li7       1.0  0.69200  0.34700  0.38400  1.0000
  Li  Li8       1.0  0.20800  0.20800  0.41700  1.0000
  Li  Li9       1.0  0.14200  0.07170  0.65600  1.0000
  Li  Li10      1.0  0.51400  0.07170  0.65600  1.0000
  Li  Li11      1.0  0.14200  0.58400  0.65600  1.0000
  Li  Li12      1.0  0.51400  0.58400  0.65600  1.0000
  Li  Li13      1.0  0.87900  0.37900  0.75800  1.0000
  Li  Li14      1.0  0.28700  0.44200  0.88400  1.0000
  Li  Li15      1.0  0.59700  0.44200  0.88400  1.0000
  Li  Li16      1.0  0.45800  0.95800  0.91700  1.0000
  N   N1        1.0  0.50000  0.26900  0.00099  1.0000
  N   N2        1.0  0.50000  0.73200  0.00099  1.0000
  N   N3        1.0  0.51900  0.25000  0.50100  1.0000
  N   N4        1.0  0.98200  0.25000  0.50100  1.0000
  Te  Te1       1.0  0.14700  0.64700  0.29400  1.0000
  Te  Te2       1.0  0.89700  0.89700  0.79400  1.0000
