data_image0
_chemical_formula_structural       Li16N4Se2
_chemical_formula_sum              "Li16 N4 Se2"
_cell_length_a       7.02971
_cell_length_b       7.02971
_cell_length_c       7.02971
_cell_angle_alpha    119.872
_cell_angle_beta     90.2224
_cell_angle_gamma    119.872

_space_group_name_H-M_alt    "P 1"
_space_group_IT_number       1

loop_
  _space_group_symop_operation_xyz
  'x, y, z'

loop_
  _atom_site_type_symbol
  _atom_site_label
  _atom_site_symmetry_multiplicity
  _atom_site_fract_x
  _atom_site_fract_y
  _atom_site_fract_z
  _atom_site_occupancy
  Li  Li1       1.0  0.61400  0.50000  0.11400  1.0000
  Li  Li2       1.0  0.73600  0.04410  0.15700  1.0000
  Li  Li3       1.0  0.11300  0.42100  0.15700  1.0000
  Li  Li4       1.0  0.65400  0.34600  0.30900  1.0000
  Li  Li5       1.0  0.96300  0.65400  0.30900  1.0000
  Li  Li6       1.0  0.36400  0.00000  0.36400  1.0000
  Li  Li7       1.0  0.55900  0.84600  0.40400  1.0000
  Li  Li8       1.0  0.94200  0.07850  0.48600  1.0000
  Li  Li9       1.0  0.40700  0.54400  0.48600  1.0000
  Li  Li10      1.0  0.03680  0.50000  0.53700  1.0000
  Li  Li11      1.0  0.73600  0.57900  0.69200  1.0000
  Li  Li12      1.0  0.11300  0.95600  0.69200  1.0000
  Li  Li13      1.0  0.55900  0.15400  0.71300  1.0000
  Li  Li14      1.0  0.78700  0.00000  0.78700  1.0000
  Li  Li15      1.0  0.94200  0.45600  0.86300  1.0000
  Li  Li16      1.0  0.40700  0.92100  0.86300  1.0000
  N   N1        1.0  0.75000  0.26900  0.01890  1.0000
  N   N2        1.0  0.75000  0.73100  0.48100  1.0000
  N   N3        1.0  0.73100  0.23100  0.50000  1.0000
  N   N4        1.0  0.26900  0.76900  0.50000  1.0000
  Se  Se1       1.0  0.10000  0.00000  0.10000  1.0000
  Se  Se2       1.0  0.35000  0.50000  0.85000  1.0000
