data_image0
_chemical_formula_structural       Li3O13V6
_chemical_formula_sum              "Li3 O13 V6"
_cell_length_a       3.95672
_cell_length_b       6.25755
_cell_length_c       10.1404
_cell_angle_alpha    100.14
_cell_angle_beta     90
_cell_angle_gamma    108.431

_space_group_name_H-M_alt    "P 1"
_space_group_IT_number       1

loop_
  _space_group_symop_operation_xyz
  'x, y, z'

loop_
  _atom_site_type_symbol
  _atom_site_label
  _atom_site_symmetry_multiplicity
  _atom_site_fract_x
  _atom_site_fract_y
  _atom_site_fract_z
  _atom_site_occupancy
  Li  Li1       1.0  0.00000  0.00000  0.00000  1.0000
  Li  Li2       1.0  0.06780  0.13600  0.40900  1.0000
  Li  Li3       1.0  0.93200  0.86400  0.59100  1.0000
  O   O1        1.0  0.82700  0.65400  0.99900  1.0000
  O   O2        1.0  0.50000  0.00000  0.00000  1.0000
  O   O3        1.0  0.17300  0.34600  0.00062  1.0000
  O   O4        1.0  0.37900  0.75800  0.19800  1.0000
  O   O5        1.0  0.68400  0.36700  0.19800  1.0000
  O   O6        1.0  0.89100  0.78200  0.39200  1.0000
  O   O7        1.0  0.24000  0.48000  0.40500  1.0000
  O   O8        1.0  0.56900  0.13900  0.41800  1.0000
  O   O9        1.0  0.43100  0.86100  0.58200  1.0000
  O   O10       1.0  0.76000  0.52000  0.59500  1.0000
  O   O11       1.0  0.10900  0.21800  0.60800  1.0000
  O   O12       1.0  0.31600  0.63300  0.80200  1.0000
  O   O13       1.0  0.62100  0.24200  0.80200  1.0000
  V   V1        1.0  0.34100  0.68300  0.00152  1.0000
  V   V2        1.0  0.72100  0.44200  0.36600  1.0000
  V   V3        1.0  0.40200  0.80500  0.36800  1.0000
  V   V4        1.0  0.59800  0.19500  0.63200  1.0000
  V   V5        1.0  0.27900  0.55800  0.63400  1.0000
  V   V6        1.0  0.65900  0.31700  0.99800  1.0000
