data_image0
_chemical_formula_structural       Al2H12Li6
_chemical_formula_sum              "Al2 H12 Li6"
_cell_length_a       5.44436
_cell_length_b       5.44436
_cell_length_c       5.44436
_cell_angle_alpha    91.5733
_cell_angle_beta     91.5733
_cell_angle_gamma    91.5733

_space_group_name_H-M_alt    "P 1"
_space_group_IT_number       1

loop_
  _space_group_symop_operation_xyz
  'x, y, z'

loop_
  _atom_site_type_symbol
  _atom_site_label
  _atom_site_symmetry_multiplicity
  _atom_site_fract_x
  _atom_site_fract_y
  _atom_site_fract_z
  _atom_site_occupancy
  Al  Al1       1.0  0.00000  0.00000  0.00000  1.0000
  Al  Al2       1.0  0.50000  0.50000  0.50000  1.0000
  H   H1        1.0  0.70100  0.92200  0.07240  1.0000
  H   H2        1.0  0.92800  0.29900  0.07780  1.0000
  H   H3        1.0  0.40900  0.54800  0.20000  1.0000
  H   H4        1.0  0.07780  0.92800  0.29900  1.0000
  H   H5        1.0  0.54800  0.20000  0.40900  1.0000
  H   H6        1.0  0.80000  0.59100  0.45200  1.0000
  H   H7        1.0  0.20000  0.40900  0.54800  1.0000
  H   H8        1.0  0.45200  0.80000  0.59100  1.0000
  H   H9        1.0  0.92200  0.07240  0.70100  1.0000
  H   H10       1.0  0.59100  0.45200  0.80000  1.0000
  H   H11       1.0  0.07240  0.70100  0.92200  1.0000
  H   H12       1.0  0.29900  0.07780  0.92800  1.0000
  Li  Li1       1.0  0.56200  0.25000  0.06700  1.0000
  Li  Li2       1.0  0.06700  0.56200  0.25000  1.0000
  Li  Li3       1.0  0.75000  0.93300  0.43800  1.0000
  Li  Li4       1.0  0.25000  0.06700  0.56200  1.0000
  Li  Li5       1.0  0.93300  0.43800  0.75000  1.0000
  Li  Li6       1.0  0.43800  0.75000  0.93300  1.0000
