data_image0
_chemical_formula_structural       Cs2I8Li6
_chemical_formula_sum              "Cs2 I8 Li6"
_cell_length_a       11.0353
_cell_length_b       4.62629
_cell_length_c       11.5854
_cell_angle_alpha    90
_cell_angle_beta     92.5568
_cell_angle_gamma    90

_space_group_name_H-M_alt    "P 1"
_space_group_IT_number       1

loop_
  _space_group_symop_operation_xyz
  'x, y, z'

loop_
  _atom_site_type_symbol
  _atom_site_label
  _atom_site_symmetry_multiplicity
  _atom_site_fract_x
  _atom_site_fract_y
  _atom_site_fract_z
  _atom_site_occupancy
  Cs  Cs1       1.0  0.13200  0.50000  0.15100  1.0000
  Cs  Cs2       1.0  0.57800  0.50000  0.30000  1.0000
  I   I1        1.0  0.41500  0.00000  0.06800  1.0000
  I   I2        1.0  0.85200  0.00000  0.23000  1.0000
  I   I3        1.0  0.23300  0.00000  0.40300  1.0000
  I   I4        1.0  0.93600  0.50000  0.56600  1.0000
  I   I5        1.0  0.60500  0.00000  0.57100  1.0000
  I   I6        1.0  0.31800  0.50000  0.73400  1.0000
  I   I7        1.0  0.03330  0.00000  0.89400  1.0000
  I   I8        1.0  0.70200  0.50000  0.90400  1.0000
  Li  Li1       1.0  0.98700  0.00000  0.44400  1.0000
  Li  Li2       1.0  0.36000  0.00000  0.61100  1.0000
  Li  Li3       1.0  0.71100  0.50000  0.66400  1.0000
  Li  Li4       1.0  0.07300  0.50000  0.76900  1.0000
  Li  Li5       1.0  0.45500  0.50000  0.93700  1.0000
  Li  Li6       1.0  0.80900  0.00000  0.99000  1.0000
