data_image0
_chemical_formula_structural       Li6S12Sb6
_chemical_formula_sum              "Li6 S12 Sb6"
_cell_length_a       8.6161
_cell_length_b       8.6161
_cell_length_c       8.6161
_cell_angle_alpha    107.869
_cell_angle_beta     107.869
_cell_angle_gamma    107.869

_space_group_name_H-M_alt    "P 1"
_space_group_IT_number       1

loop_
  _space_group_symop_operation_xyz
  'x, y, z'

loop_
  _atom_site_type_symbol
  _atom_site_label
  _atom_site_symmetry_multiplicity
  _atom_site_fract_x
  _atom_site_fract_y
  _atom_site_fract_z
  _atom_site_occupancy
  Li  Li1       1.0  0.24500  0.68900  0.08560  1.0000
  Li  Li2       1.0  0.68900  0.08560  0.24500  1.0000
  Li  Li3       1.0  0.91400  0.75500  0.31100  1.0000
  Li  Li4       1.0  0.08560  0.24500  0.68900  1.0000
  Li  Li5       1.0  0.31100  0.91400  0.75500  1.0000
  Li  Li6       1.0  0.75500  0.31100  0.91400  1.0000
  S   S1        1.0  0.13100  0.36100  0.05180  1.0000
  S   S2        1.0  0.36100  0.05180  0.13100  1.0000
  S   S3        1.0  0.58500  0.73900  0.15900  1.0000
  S   S4        1.0  0.84100  0.41500  0.26100  1.0000
  S   S5        1.0  0.05180  0.13100  0.36100  1.0000
  S   S6        1.0  0.26100  0.84100  0.41500  1.0000
  S   S7        1.0  0.73900  0.15900  0.58500  1.0000
  S   S8        1.0  0.94800  0.86900  0.63900  1.0000
  S   S9        1.0  0.15900  0.58500  0.73900  1.0000
  S   S10       1.0  0.41500  0.26100  0.84100  1.0000
  S   S11       1.0  0.63900  0.94800  0.86900  1.0000
  S   S12       1.0  0.86900  0.63900  0.94800  1.0000
  Sb  Sb1       1.0  0.44100  0.37700  0.14800  1.0000
  Sb  Sb2       1.0  0.14800  0.44100  0.37700  1.0000
  Sb  Sb3       1.0  0.37700  0.14800  0.44100  1.0000
  Sb  Sb4       1.0  0.62300  0.85200  0.55900  1.0000
  Sb  Sb5       1.0  0.85200  0.55900  0.62300  1.0000
  Sb  Sb6       1.0  0.55900  0.62300  0.85200  1.0000
