data_image0
_chemical_formula_structural       B4Li8Pd12
_chemical_formula_sum              "B4 Li8 Pd12"
_cell_length_a       6.8208
_cell_length_b       6.8208
_cell_length_c       6.8208
_cell_angle_alpha    90
_cell_angle_beta     90
_cell_angle_gamma    90

_space_group_name_H-M_alt    "P 1"
_space_group_IT_number       1

loop_
  _space_group_symop_operation_xyz
  'x, y, z'

loop_
  _atom_site_type_symbol
  _atom_site_label
  _atom_site_symmetry_multiplicity
  _atom_site_fract_x
  _atom_site_fract_y
  _atom_site_fract_z
  _atom_site_occupancy
  B   B1        1.0  0.87500  0.37500  0.12500  1.0000
  B   B2        1.0  0.12500  0.87500  0.37500  1.0000
  B   B3        1.0  0.62500  0.62500  0.62500  1.0000
  B   B4        1.0  0.37500  0.12500  0.87500  1.0000
  Li  Li1       1.0  0.44300  0.55700  0.05710  1.0000
  Li  Li2       1.0  0.69300  0.80700  0.19300  1.0000
  Li  Li3       1.0  0.30700  0.30700  0.30700  1.0000
  Li  Li4       1.0  0.55700  0.05710  0.44300  1.0000
  Li  Li5       1.0  0.05710  0.44300  0.55700  1.0000
  Li  Li6       1.0  0.80700  0.19300  0.69300  1.0000
  Li  Li7       1.0  0.19300  0.69300  0.80700  1.0000
  Li  Li8       1.0  0.94300  0.94300  0.94300  1.0000
  Pd  Pd1       1.0  0.62500  0.19600  0.05430  1.0000
  Pd  Pd2       1.0  0.30400  0.94600  0.12500  1.0000
  Pd  Pd3       1.0  0.05430  0.62500  0.19600  1.0000
  Pd  Pd4       1.0  0.94600  0.12500  0.30400  1.0000
  Pd  Pd5       1.0  0.69600  0.44600  0.37500  1.0000
  Pd  Pd6       1.0  0.37500  0.69600  0.44600  1.0000
  Pd  Pd7       1.0  0.87500  0.80400  0.55400  1.0000
  Pd  Pd8       1.0  0.19600  0.05430  0.62500  1.0000
  Pd  Pd9       1.0  0.44600  0.37500  0.69600  1.0000
  Pd  Pd10      1.0  0.55400  0.87500  0.80400  1.0000
  Pd  Pd11      1.0  0.80400  0.55400  0.87500  1.0000
  Pd  Pd12      1.0  0.12500  0.30400  0.94600  1.0000
