data_image0
_chemical_formula_structural       B4Li8Pt12
_chemical_formula_sum              "B4 Li8 Pt12"
_cell_length_a       6.82948
_cell_length_b       6.82948
_cell_length_c       6.82948
_cell_angle_alpha    90
_cell_angle_beta     90
_cell_angle_gamma    90

_space_group_name_H-M_alt    "P 1"
_space_group_IT_number       1

loop_
  _space_group_symop_operation_xyz
  'x, y, z'

loop_
  _atom_site_type_symbol
  _atom_site_label
  _atom_site_symmetry_multiplicity
  _atom_site_fract_x
  _atom_site_fract_y
  _atom_site_fract_z
  _atom_site_occupancy
  B   B1        1.0  0.87500  0.37500  0.12500  1.0000
  B   B2        1.0  0.12500  0.87500  0.37500  1.0000
  B   B3        1.0  0.62500  0.62500  0.62500  1.0000
  B   B4        1.0  0.37500  0.12500  0.87500  1.0000
  Li  Li1       1.0  0.44700  0.55300  0.05310  1.0000
  Li  Li2       1.0  0.69700  0.80300  0.19700  1.0000
  Li  Li3       1.0  0.30300  0.30300  0.30300  1.0000
  Li  Li4       1.0  0.55300  0.05310  0.44700  1.0000
  Li  Li5       1.0  0.05310  0.44700  0.55300  1.0000
  Li  Li6       1.0  0.80300  0.19700  0.69700  1.0000
  Li  Li7       1.0  0.19700  0.69700  0.80300  1.0000
  Li  Li8       1.0  0.94700  0.94700  0.94700  1.0000
  Pt  Pt1       1.0  0.62500  0.18900  0.06090  1.0000
  Pt  Pt2       1.0  0.31100  0.93900  0.12500  1.0000
  Pt  Pt3       1.0  0.06090  0.62500  0.18900  1.0000
  Pt  Pt4       1.0  0.93900  0.12500  0.31100  1.0000
  Pt  Pt5       1.0  0.68900  0.43900  0.37500  1.0000
  Pt  Pt6       1.0  0.37500  0.68900  0.43900  1.0000
  Pt  Pt7       1.0  0.87500  0.81100  0.56100  1.0000
  Pt  Pt8       1.0  0.18900  0.06090  0.62500  1.0000
  Pt  Pt9       1.0  0.43900  0.37500  0.68900  1.0000
  Pt  Pt10      1.0  0.56100  0.87500  0.81100  1.0000
  Pt  Pt11      1.0  0.81100  0.56100  0.87500  1.0000
  Pt  Pt12      1.0  0.12500  0.31100  0.93900  1.0000
