data_image0
_chemical_formula_structural       B6Cs2H6
_chemical_formula_sum              "B6 Cs2 H6"
_cell_length_a       6.70434
_cell_length_b       6.70434
_cell_length_c       6.70434
_cell_angle_alpha    120
_cell_angle_beta     90
_cell_angle_gamma    120

_space_group_name_H-M_alt    "P 1"
_space_group_IT_number       1

loop_
  _space_group_symop_operation_xyz
  'x, y, z'

loop_
  _atom_site_type_symbol
  _atom_site_label
  _atom_site_symmetry_multiplicity
  _atom_site_fract_x
  _atom_site_fract_y
  _atom_site_fract_z
  _atom_site_occupancy
  B   B1        1.0  0.87100  0.00000  0.12900  1.0000
  B   B2        1.0  0.12900  0.00000  0.12900  1.0000
  B   B3        1.0  0.12900  0.25800  0.12900  1.0000
  B   B4        1.0  0.12900  0.00000  0.87100  1.0000
  B   B5        1.0  0.87100  0.00000  0.87100  1.0000
  B   B6        1.0  0.87100  0.74200  0.87100  1.0000
  Cs  Cs1       1.0  0.75000  0.50000  0.25000  1.0000
  Cs  Cs2       1.0  0.25000  0.50000  0.75000  1.0000
  H   H1        1.0  0.74300  0.00000  0.25700  1.0000
  H   H2        1.0  0.25700  0.00000  0.25700  1.0000
  H   H3        1.0  0.25700  0.51300  0.25700  1.0000
  H   H4        1.0  0.25700  0.00000  0.74300  1.0000
  H   H5        1.0  0.74300  0.00000  0.74300  1.0000
  H   H6        1.0  0.74300  0.48700  0.74300  1.0000
