data_image0
_chemical_formula_structural       AcMg3
_chemical_formula_sum              "Ac1 Mg3"
_cell_length_a       3.58377
_cell_length_b       3.58376
_cell_length_c       10.6932
_cell_angle_alpha    90
_cell_angle_beta     90
_cell_angle_gamma    120

_space_group_name_H-M_alt    "P 1"
_space_group_IT_number       1

loop_
  _space_group_symop_operation_xyz
  'x, y, z'

loop_
  _atom_site_type_symbol
  _atom_site_label
  _atom_site_symmetry_multiplicity
  _atom_site_fract_x
  _atom_site_fract_y
  _atom_site_fract_z
  _atom_site_occupancy
  Ac  Ac1       1.0  0.66700  0.33300  0.75000  1.0000
  Mg  Mg1       1.0  0.00000  0.00000  0.02840  1.0000
  Mg  Mg2       1.0  0.66700  0.33300  0.25000  1.0000
  Mg  Mg3       1.0  0.00000  0.00000  0.47200  1.0000
