data_image0
_chemical_formula_structural       Eu2H8Mg2
_chemical_formula_sum              "Eu2 H8 Mg2"
_cell_length_a       3.84892
_cell_length_b       5.40306
_cell_length_c       6.7124
_cell_angle_alpha    90
_cell_angle_beta     73.3394
_cell_angle_gamma    90

_space_group_name_H-M_alt    "P 1"
_space_group_IT_number       1

loop_
  _space_group_symop_operation_xyz
  'x, y, z'

loop_
  _atom_site_type_symbol
  _atom_site_label
  _atom_site_symmetry_multiplicity
  _atom_site_fract_x
  _atom_site_fract_y
  _atom_site_fract_z
  _atom_site_occupancy
  Eu  Eu1       1.0  0.85000  0.74000  0.30100  1.0000
  Eu  Eu2       1.0  0.15000  0.24000  0.69900  1.0000
  H   H1        1.0  0.45600  0.84500  0.08790  1.0000
  H   H2        1.0  0.92900  0.15800  0.14100  1.0000
  H   H3        1.0  0.32800  0.47600  0.34300  1.0000
  H   H4        1.0  0.29600  0.98500  0.40800  1.0000
  H   H5        1.0  0.70400  0.48500  0.59200  1.0000
  H   H6        1.0  0.67200  0.97600  0.65700  1.0000
  H   H7        1.0  0.07070  0.65800  0.85900  1.0000
  H   H8        1.0  0.54400  0.34500  0.91200  1.0000
  Mg  Mg1       1.0  0.41400  0.19700  0.17200  1.0000
  Mg  Mg2       1.0  0.58600  0.69700  0.82800  1.0000
