data_image0
_chemical_formula_structural       Cs4H8Pd2
_chemical_formula_sum              "Cs4 H8 Pd2"
_cell_length_a       6.10055
_cell_length_b       6.10055
_cell_length_c       8.76983
_cell_angle_alpha    90
_cell_angle_beta     90
_cell_angle_gamma    90

_space_group_name_H-M_alt    "P 1"
_space_group_IT_number       1

loop_
  _space_group_symop_operation_xyz
  'x, y, z'

loop_
  _atom_site_type_symbol
  _atom_site_label
  _atom_site_symmetry_multiplicity
  _atom_site_fract_x
  _atom_site_fract_y
  _atom_site_fract_z
  _atom_site_occupancy
  Cs  Cs1       1.0  0.50000  0.00000  0.25000  1.0000
  Cs  Cs2       1.0  0.00000  0.50000  0.25000  1.0000
  Cs  Cs3       1.0  0.50000  0.00000  0.75000  1.0000
  Cs  Cs4       1.0  0.00000  0.50000  0.75000  1.0000
  H   H1        1.0  0.19300  0.19300  0.00000  1.0000
  H   H2        1.0  0.80700  0.80700  0.00000  1.0000
  H   H3        1.0  0.00000  0.00000  0.19000  1.0000
  H   H4        1.0  0.50000  0.50000  0.31000  1.0000
  H   H5        1.0  0.69300  0.30700  0.50000  1.0000
  H   H6        1.0  0.30700  0.69300  0.50000  1.0000
  H   H7        1.0  0.50000  0.50000  0.69000  1.0000
  H   H8        1.0  0.00000  0.00000  0.81000  1.0000
  Pd  Pd1       1.0  0.00000  0.00000  0.00000  1.0000
  Pd  Pd2       1.0  0.50000  0.50000  0.50000  1.0000
