data_image0
_chemical_formula_structural       Cs6I10Li4
_chemical_formula_sum              "Cs6 I10 Li4"
_cell_length_a       4.83598
_cell_length_b       12.3057
_cell_length_c       15.5056
_cell_angle_alpha    100.306
_cell_angle_beta     98.9715
_cell_angle_gamma    90

_space_group_name_H-M_alt    "P 1"
_space_group_IT_number       1

loop_
  _space_group_symop_operation_xyz
  'x, y, z'

loop_
  _atom_site_type_symbol
  _atom_site_label
  _atom_site_symmetry_multiplicity
  _atom_site_fract_x
  _atom_site_fract_y
  _atom_site_fract_z
  _atom_site_occupancy
  Cs  Cs1       1.0  0.05660  0.15300  0.11300  1.0000
  Cs  Cs2       1.0  0.06870  0.65600  0.13700  1.0000
  Cs  Cs3       1.0  0.74500  0.73900  0.49000  1.0000
  Cs  Cs4       1.0  0.25500  0.26100  0.51000  1.0000
  Cs  Cs5       1.0  0.93100  0.34400  0.86300  1.0000
  Cs  Cs6       1.0  0.94300  0.84700  0.88700  1.0000
  I   I1        1.0  0.55200  0.40500  0.10300  1.0000
  I   I2        1.0  0.55300  0.89400  0.10600  1.0000
  I   I3        1.0  0.65800  0.19900  0.31500  1.0000
  I   I4        1.0  0.17700  0.51300  0.35500  1.0000
  I   I5        1.0  0.17800  0.90000  0.35600  1.0000
  I   I6        1.0  0.82200  0.09970  0.64400  1.0000
  I   I7        1.0  0.82300  0.48700  0.64500  1.0000
  I   I8        1.0  0.34200  0.80100  0.68500  1.0000
  I   I9        1.0  0.44700  0.10600  0.89400  1.0000
  I   I10       1.0  0.44800  0.59500  0.89700  1.0000
  Li  Li1       1.0  0.64200  0.41400  0.28400  1.0000
  Li  Li2       1.0  0.64400  0.96900  0.28800  1.0000
  Li  Li3       1.0  0.35600  0.03090  0.71200  1.0000
  Li  Li4       1.0  0.35800  0.58600  0.71600  1.0000
