data_image0
_chemical_formula_structural       H8Mg4Ru2
_chemical_formula_sum              "H8 Mg4 Ru2"
_cell_length_a       4.75779
_cell_length_b       5.43182
_cell_length_c       5.43182
_cell_angle_alpha    100.844
_cell_angle_beta     90
_cell_angle_gamma    90

_space_group_name_H-M_alt    "P 1"
_space_group_IT_number       1

loop_
  _space_group_symop_operation_xyz
  'x, y, z'

loop_
  _atom_site_type_symbol
  _atom_site_label
  _atom_site_symmetry_multiplicity
  _atom_site_fract_x
  _atom_site_fract_y
  _atom_site_fract_z
  _atom_site_occupancy
  H   H1        1.0  0.25000  0.35600  0.13400  1.0000
  H   H2        1.0  0.51200  0.72000  0.28000  1.0000
  H   H3        1.0  0.98800  0.72000  0.28000  1.0000
  H   H4        1.0  0.75000  0.13400  0.35600  1.0000
  H   H5        1.0  0.25000  0.86600  0.64400  1.0000
  H   H6        1.0  0.01200  0.28000  0.72000  1.0000
  H   H7        1.0  0.48800  0.28000  0.72000  1.0000
  H   H8        1.0  0.75000  0.64400  0.86600  1.0000
  Mg  Mg1       1.0  0.75000  0.35300  0.06970  1.0000
  Mg  Mg2       1.0  0.25000  0.06970  0.35300  1.0000
  Mg  Mg3       1.0  0.75000  0.93000  0.64700  1.0000
  Mg  Mg4       1.0  0.25000  0.64700  0.93000  1.0000
  Ru  Ru1       1.0  0.75000  0.86900  0.13100  1.0000
  Ru  Ru2       1.0  0.25000  0.13100  0.86900  1.0000
