data_image0
_chemical_formula_structural       Ce4H10
_chemical_formula_sum              "Ce4 H10"
_cell_length_a       5.51987
_cell_length_b       5.51987
_cell_length_c       6.80306
_cell_angle_alpha    113.934
_cell_angle_beta     113.934
_cell_angle_gamma    90

_space_group_name_H-M_alt    "P 1"
_space_group_IT_number       1

loop_
  _space_group_symop_operation_xyz
  'x, y, z'

loop_
  _atom_site_type_symbol
  _atom_site_label
  _atom_site_symmetry_multiplicity
  _atom_site_fract_x
  _atom_site_fract_y
  _atom_site_fract_z
  _atom_site_occupancy
  Ce  Ce1       1.0  0.99800  0.99800  0.99600  1.0000
  Ce  Ce2       1.0  0.74000  0.24000  0.47900  1.0000
  Ce  Ce3       1.0  0.24800  0.74800  0.49600  1.0000
  Ce  Ce4       1.0  0.49000  0.49000  0.97900  1.0000
  H   H1        1.0  0.36900  0.38800  0.23800  1.0000
  H   H2        1.0  0.86900  0.38800  0.23800  1.0000
  H   H3        1.0  0.36900  0.84900  0.23800  1.0000
  H   H4        1.0  0.86900  0.84900  0.23800  1.0000
  H   H5        1.0  0.24300  0.24300  0.48500  1.0000
  H   H6        1.0  0.09940  0.11900  0.73800  1.0000
  H   H7        1.0  0.63800  0.11900  0.73800  1.0000
  H   H8        1.0  0.09940  0.61900  0.73800  1.0000
  H   H9        1.0  0.63800  0.61900  0.73800  1.0000
  H   H10       1.0  0.49300  0.99300  0.98500  1.0000
