data_image0
_chemical_formula_structural       Ge6Li6Te12
_chemical_formula_sum              "Ge6 Li6 Te12"
_cell_length_a       7.29437
_cell_length_b       9.19395
_cell_length_c       11.4225
_cell_angle_alpha    75.8236
_cell_angle_beta     77.0962
_cell_angle_gamma    70.6344

_space_group_name_H-M_alt    "P 1"
_space_group_IT_number       1

loop_
  _space_group_symop_operation_xyz
  'x, y, z'

loop_
  _atom_site_type_symbol
  _atom_site_label
  _atom_site_symmetry_multiplicity
  _atom_site_fract_x
  _atom_site_fract_y
  _atom_site_fract_z
  _atom_site_occupancy
  Ge  Ge1       1.0  0.04760  0.74100  0.09690  1.0000
  Ge  Ge2       1.0  0.96200  0.96100  0.20700  1.0000
  Ge  Ge3       1.0  0.06690  0.61100  0.45000  1.0000
  Ge  Ge4       1.0  0.93300  0.38900  0.55000  1.0000
  Ge  Ge5       1.0  0.03830  0.03920  0.79300  1.0000
  Ge  Ge6       1.0  0.95200  0.25900  0.90300  1.0000
  Li  Li1       1.0  0.50000  1.00000  1.00000  1.0000
  Li  Li2       1.0  0.00943  0.34700  0.18900  1.0000
  Li  Li3       1.0  0.52700  0.68000  0.32100  1.0000
  Li  Li4       1.0  0.00000  0.00000  0.50000  1.0000
  Li  Li5       1.0  0.47300  0.32000  0.67900  1.0000
  Li  Li6       1.0  0.99100  0.65300  0.81100  1.0000
  Te  Te1       1.0  0.75300  0.66600  0.07220  1.0000
  Te  Te2       1.0  0.69700  0.20100  0.10100  1.0000
  Te  Te3       1.0  0.27600  0.51900  0.24200  1.0000
  Te  Te4       1.0  0.25900  0.01270  0.25300  1.0000
  Te  Te5       1.0  0.74800  0.85100  0.40800  1.0000
  Te  Te6       1.0  0.73200  0.33200  0.41900  1.0000
  Te  Te7       1.0  0.26800  0.66800  0.58100  1.0000
  Te  Te8       1.0  0.25200  0.14900  0.59200  1.0000
  Te  Te9       1.0  0.74100  0.98700  0.74700  1.0000
  Te  Te10      1.0  0.72400  0.48100  0.75800  1.0000
  Te  Te11      1.0  0.30300  0.79900  0.89900  1.0000
  Te  Te12      1.0  0.24700  0.33400  0.92800  1.0000
