data_image0
_chemical_formula_structural       Ga4I12Li4
_chemical_formula_sum              "Ga4 I12 Li4"
_cell_length_a       8.51744
_cell_length_b       11.4551
_cell_length_c       7.21635
_cell_angle_alpha    90
_cell_angle_beta     92.1101
_cell_angle_gamma    90

_space_group_name_H-M_alt    "P 1"
_space_group_IT_number       1

loop_
  _space_group_symop_operation_xyz
  'x, y, z'

loop_
  _atom_site_type_symbol
  _atom_site_label
  _atom_site_symmetry_multiplicity
  _atom_site_fract_x
  _atom_site_fract_y
  _atom_site_fract_z
  _atom_site_occupancy
  Ga  Ga1       1.0  0.03120  0.75000  0.03230  1.0000
  Ga  Ga2       1.0  0.75800  0.75000  0.13300  1.0000
  Ga  Ga3       1.0  0.24200  0.25000  0.86700  1.0000
  Ga  Ga4       1.0  0.96900  0.25000  0.96800  1.0000
  I   I1        1.0  0.45600  0.25000  0.14000  1.0000
  I   I2        1.0  0.18600  0.56800  0.17800  1.0000
  I   I3        1.0  0.18600  0.93200  0.17800  1.0000
  I   I4        1.0  0.93400  0.25000  0.33000  1.0000
  I   I5        1.0  0.68100  0.56800  0.33700  1.0000
  I   I6        1.0  0.68100  0.93200  0.33700  1.0000
  I   I7        1.0  0.31900  0.06810  0.66300  1.0000
  I   I8        1.0  0.31900  0.43200  0.66300  1.0000
  I   I9        1.0  0.06620  0.75000  0.67000  1.0000
  I   I10       1.0  0.81400  0.06850  0.82200  1.0000
  I   I11       1.0  0.81400  0.43200  0.82200  1.0000
  I   I12       1.0  0.54400  0.75000  0.86000  1.0000
  Li  Li1       1.0  0.50000  0.00000  0.00000  1.0000
  Li  Li2       1.0  0.50000  0.50000  0.00000  1.0000
  Li  Li3       1.0  0.00000  0.00000  0.50000  1.0000
  Li  Li4       1.0  0.00000  0.50000  0.50000  1.0000
