data_image0
_chemical_formula_structural       Al2H8K2
_chemical_formula_sum              "Al2 H8 K2"
_cell_length_a       7.15614
_cell_length_b       5.2493
_cell_length_c       5.2493
_cell_angle_alpha    90
_cell_angle_beta     111.516
_cell_angle_gamma    111.516

_space_group_name_H-M_alt    "P 1"
_space_group_IT_number       1

loop_
  _space_group_symop_operation_xyz
  'x, y, z'

loop_
  _atom_site_type_symbol
  _atom_site_label
  _atom_site_symmetry_multiplicity
  _atom_site_fract_x
  _atom_site_fract_y
  _atom_site_fract_z
  _atom_site_occupancy
  Al  Al1       1.0  0.25000  0.62500  0.37500  1.0000
  Al  Al2       1.0  0.75000  0.37500  0.62500  1.0000
  H   H1        1.0  0.09990  0.31400  0.20200  1.0000
  H   H2        1.0  0.40000  0.79800  0.21400  1.0000
  H   H3        1.0  0.60000  0.39800  0.31400  1.0000
  H   H4        1.0  0.09990  0.78600  0.39800  1.0000
  H   H5        1.0  0.90000  0.21400  0.60200  1.0000
  H   H6        1.0  0.40000  0.60200  0.68600  1.0000
  H   H7        1.0  0.60000  0.20200  0.78600  1.0000
  H   H8        1.0  0.90000  0.68600  0.79800  1.0000
  K   K1        1.0  0.75000  0.87500  0.12500  1.0000
  K   K2        1.0  0.25000  0.12500  0.87500  1.0000
