data_image0
_chemical_formula_structural       Li2O16Ta6
_chemical_formula_sum              "Li2 O16 Ta6"
_cell_length_a       5.03932
_cell_length_b       7.43084
_cell_length_c       7.43084
_cell_angle_alpha    101.71
_cell_angle_beta     90.5041
_cell_angle_gamma    90.5041

_space_group_name_H-M_alt    "P 1"
_space_group_IT_number       1

loop_
  _space_group_symop_operation_xyz
  'x, y, z'

loop_
  _atom_site_type_symbol
  _atom_site_label
  _atom_site_symmetry_multiplicity
  _atom_site_fract_x
  _atom_site_fract_y
  _atom_site_fract_z
  _atom_site_occupancy
  Li  Li1       1.0  0.25000  0.83600  0.16400  1.0000
  Li  Li2       1.0  0.75000  0.16400  0.83600  1.0000
  O   O1        1.0  0.90000  0.68600  0.08190  1.0000
  O   O2        1.0  0.56900  0.19200  0.09070  1.0000
  O   O3        1.0  0.06880  0.09070  0.19200  1.0000
  O   O4        1.0  0.42400  0.56200  0.20300  1.0000
  O   O5        1.0  0.92000  0.42800  0.30500  1.0000
  O   O6        1.0  0.60000  0.91800  0.31400  1.0000
  O   O7        1.0  0.42000  0.30500  0.42800  1.0000
  O   O8        1.0  0.07640  0.79700  0.43800  1.0000
  O   O9        1.0  0.92400  0.20300  0.56200  1.0000
  O   O10       1.0  0.58000  0.69500  0.57200  1.0000
  O   O11       1.0  0.40000  0.08190  0.68600  1.0000
  O   O12       1.0  0.08020  0.57200  0.69500  1.0000
  O   O13       1.0  0.57600  0.43800  0.79700  1.0000
  O   O14       1.0  0.93100  0.90900  0.80800  1.0000
  O   O15       1.0  0.43100  0.80800  0.90900  1.0000
  O   O16       1.0  0.10000  0.31400  0.91800  1.0000
  Ta  Ta1       1.0  0.24800  0.32400  0.15200  1.0000
  Ta  Ta2       1.0  0.74800  0.15200  0.32400  1.0000
  Ta  Ta3       1.0  0.75000  0.66800  0.33200  1.0000
  Ta  Ta4       1.0  0.25000  0.33200  0.66800  1.0000
  Ta  Ta5       1.0  0.25200  0.84800  0.67600  1.0000
  Ta  Ta6       1.0  0.75200  0.67600  0.84800  1.0000
