data_image0
_chemical_formula_structural       I2Li14N4
_chemical_formula_sum              "I2 Li14 N4"
_cell_length_a       7.78502
_cell_length_b       7.78502
_cell_length_c       7.78502
_cell_angle_alpha    120
_cell_angle_beta     90
_cell_angle_gamma    120

_space_group_name_H-M_alt    "P 1"
_space_group_IT_number       1

loop_
  _space_group_symop_operation_xyz
  'x, y, z'

loop_
  _atom_site_type_symbol
  _atom_site_label
  _atom_site_symmetry_multiplicity
  _atom_site_fract_x
  _atom_site_fract_y
  _atom_site_fract_z
  _atom_site_occupancy
  I   I1        1.0  0.87500  0.75000  0.12500  1.0000
  I   I2        1.0  0.12500  0.25000  0.87500  1.0000
  Li  Li1       1.0  0.88800  0.25000  0.11200  1.0000
  Li  Li2       1.0  0.36200  0.72500  0.11200  1.0000
  Li  Li3       1.0  0.36200  0.25000  0.11200  1.0000
  Li  Li4       1.0  0.11200  0.75000  0.36200  1.0000
  Li  Li5       1.0  0.63800  0.75000  0.36200  1.0000
  Li  Li6       1.0  0.11200  0.22500  0.36200  1.0000
  Li  Li7       1.0  0.62500  0.25000  0.37500  1.0000
  Li  Li8       1.0  0.37500  0.75000  0.62500  1.0000
  Li  Li9       1.0  0.36200  0.25000  0.63800  1.0000
  Li  Li10      1.0  0.88800  0.25000  0.63800  1.0000
  Li  Li11      1.0  0.88800  0.77500  0.63800  1.0000
  Li  Li12      1.0  0.63800  0.27500  0.88800  1.0000
  Li  Li13      1.0  0.11200  0.75000  0.88800  1.0000
  Li  Li14      1.0  0.63800  0.75000  0.88800  1.0000
  N   N1        1.0  0.00000  0.00000  0.00000  1.0000
  N   N2        1.0  0.00000  0.50000  0.00000  1.0000
  N   N3        1.0  0.50000  0.50000  0.00000  1.0000
  N   N4        1.0  0.00000  0.00000  0.50000  1.0000
