data_image0
_chemical_formula_structural       As2H2O8Pb2
_chemical_formula_sum              "As2 H2 O8 Pb2"
_cell_length_a       4.8595
_cell_length_b       6.60741
_cell_length_c       5.80302
_cell_angle_alpha    90
_cell_angle_beta     94.3243
_cell_angle_gamma    90

_space_group_name_H-M_alt    "P 1"
_space_group_IT_number       1

loop_
  _space_group_symop_operation_xyz
  'x, y, z'

loop_
  _atom_site_type_symbol
  _atom_site_label
  _atom_site_symmetry_multiplicity
  _atom_site_fract_x
  _atom_site_fract_y
  _atom_site_fract_z
  _atom_site_occupancy
  As  As1       1.0  0.50000  0.79400  0.25000  1.0000
  As  As2       1.0  0.50000  0.20600  0.75000  1.0000
  H   H1        1.0  0.50000  0.50000  0.00000  1.0000
  H   H2        1.0  0.50000  0.50000  0.50000  1.0000
  O   O1        1.0  0.65600  0.63600  0.05920  1.0000
  O   O2        1.0  0.24800  0.93200  0.10200  1.0000
  O   O3        1.0  0.75200  0.93200  0.39800  1.0000
  O   O4        1.0  0.34400  0.63600  0.44100  1.0000
  O   O5        1.0  0.65600  0.36400  0.55900  1.0000
  O   O6        1.0  0.24800  0.06810  0.60200  1.0000
  O   O7        1.0  0.75200  0.06810  0.89800  1.0000
  O   O8        1.0  0.34400  0.36400  0.94100  1.0000
  Pb  Pb1       1.0  0.00000  0.21900  0.25000  1.0000
  Pb  Pb2       1.0  0.00000  0.78100  0.75000  1.0000
