data_image0
_chemical_formula_structural       Er2H6O6
_chemical_formula_sum              "Er2 H6 O6"
_cell_length_a       6.1924
_cell_length_b       6.1925
_cell_length_c       3.47185
_cell_angle_alpha    90
_cell_angle_beta     90
_cell_angle_gamma    119.999

_space_group_name_H-M_alt    "P 1"
_space_group_IT_number       1

loop_
  _space_group_symop_operation_xyz
  'x, y, z'

loop_
  _atom_site_type_symbol
  _atom_site_label
  _atom_site_symmetry_multiplicity
  _atom_site_fract_x
  _atom_site_fract_y
  _atom_site_fract_z
  _atom_site_occupancy
  Er  Er1       1.0  0.33300  0.66700  0.25000  1.0000
  Er  Er2       1.0  0.66700  0.33300  0.75000  1.0000
  H   H1        1.0  0.27400  0.13100  0.25000  1.0000
  H   H2        1.0  0.86900  0.14300  0.25000  1.0000
  H   H3        1.0  0.85700  0.72600  0.25000  1.0000
  H   H4        1.0  0.14300  0.27400  0.75000  1.0000
  H   H5        1.0  0.13100  0.85700  0.75000  1.0000
  H   H6        1.0  0.72600  0.86900  0.75000  1.0000
  O   O1        1.0  0.69000  0.08420  0.25000  1.0000
  O   O2        1.0  0.39400  0.31000  0.25000  1.0000
  O   O3        1.0  0.91600  0.60600  0.25000  1.0000
  O   O4        1.0  0.08420  0.39400  0.75000  1.0000
  O   O5        1.0  0.60600  0.69000  0.75000  1.0000
  O   O6        1.0  0.31000  0.91600  0.75000  1.0000
