data_image0
_chemical_formula_structural       Ga4I16Li4
_chemical_formula_sum              "Ga4 I16 Li4"
_cell_length_a       15.0289
_cell_length_b       7.6174
_cell_length_c       8.11175
_cell_angle_alpha    90
_cell_angle_beta     92.7636
_cell_angle_gamma    90

_space_group_name_H-M_alt    "P 1"
_space_group_IT_number       1

loop_
  _space_group_symop_operation_xyz
  'x, y, z'

loop_
  _atom_site_type_symbol
  _atom_site_label
  _atom_site_symmetry_multiplicity
  _atom_site_fract_x
  _atom_site_fract_y
  _atom_site_fract_z
  _atom_site_occupancy
  Ga  Ga1       1.0  0.09920  0.67500  0.29400  1.0000
  Ga  Ga2       1.0  0.59900  0.82500  0.29400  1.0000
  Ga  Ga3       1.0  0.40100  0.17500  0.70600  1.0000
  Ga  Ga4       1.0  0.90100  0.32500  0.70600  1.0000
  I   I1        1.0  0.18800  0.82100  0.06200  1.0000
  I   I2        1.0  0.68800  0.67900  0.06200  1.0000
  I   I3        1.0  0.06820  0.35700  0.18500  1.0000
  I   I4        1.0  0.56800  0.14300  0.18500  1.0000
  I   I5        1.0  0.44500  0.67900  0.31000  1.0000
  I   I6        1.0  0.94500  0.82100  0.31000  1.0000
  I   I7        1.0  0.30800  0.18500  0.43100  1.0000
  I   I8        1.0  0.80800  0.31500  0.43100  1.0000
  I   I9        1.0  0.19200  0.68500  0.56900  1.0000
  I   I10       1.0  0.69200  0.81500  0.56900  1.0000
  I   I11       1.0  0.05500  0.17900  0.69000  1.0000
  I   I12       1.0  0.55500  0.32100  0.69000  1.0000
  I   I13       1.0  0.43200  0.85700  0.81500  1.0000
  I   I14       1.0  0.93200  0.64300  0.81500  1.0000
  I   I15       1.0  0.31200  0.32100  0.93800  1.0000
  I   I16       1.0  0.81200  0.17900  0.93800  1.0000
  Li  Li1       1.0  0.38000  0.99500  0.15200  1.0000
  Li  Li2       1.0  0.88000  0.50500  0.15200  1.0000
  Li  Li3       1.0  0.12000  0.49500  0.84800  1.0000
  Li  Li4       1.0  0.62000  0.00508  0.84800  1.0000
