data_image0
_chemical_formula_structural       Li2O16V6
_chemical_formula_sum              "Li2 O16 V6"
_cell_length_a       6.5551
_cell_length_b       3.59454
_cell_length_c       11.8846
_cell_angle_alpha    90
_cell_angle_beta     108.38
_cell_angle_gamma    90

_space_group_name_H-M_alt    "P 1"
_space_group_IT_number       1

loop_
  _space_group_symop_operation_xyz
  'x, y, z'

loop_
  _atom_site_type_symbol
  _atom_site_label
  _atom_site_symmetry_multiplicity
  _atom_site_fract_x
  _atom_site_fract_y
  _atom_site_fract_z
  _atom_site_occupancy
  Li  Li1       1.0  0.50100  0.75000  0.31400  1.0000
  Li  Li2       1.0  0.49900  0.25000  0.68600  1.0000
  O   O1        1.0  0.70600  0.75000  0.04830  1.0000
  O   O2        1.0  0.12400  0.75000  0.07190  1.0000
  O   O3        1.0  0.99100  0.25000  0.17400  1.0000
  O   O4        1.0  0.43500  0.25000  0.19200  1.0000
  O   O5        1.0  0.78400  0.75000  0.28500  1.0000
  O   O6        1.0  0.20700  0.75000  0.32500  1.0000
  O   O7        1.0  0.60600  0.25000  0.43600  1.0000
  O   O8        1.0  0.06730  0.25000  0.45700  1.0000
  O   O9        1.0  0.93300  0.75000  0.54300  1.0000
  O   O10       1.0  0.39400  0.75000  0.56400  1.0000
  O   O11       1.0  0.79300  0.25000  0.67500  1.0000
  O   O12       1.0  0.21600  0.25000  0.71500  1.0000
  O   O13       1.0  0.56500  0.75000  0.80800  1.0000
  O   O14       1.0  0.00936  0.75000  0.82600  1.0000
  O   O15       1.0  0.87600  0.25000  0.92800  1.0000
  O   O16       1.0  0.29400  0.25000  0.95200  1.0000
  V   V1        1.0  0.21300  0.25000  0.08060  1.0000
  V   V2        1.0  0.92600  0.75000  0.19300  1.0000
  V   V3        1.0  0.15800  0.75000  0.46200  1.0000
  V   V4        1.0  0.84200  0.25000  0.53800  1.0000
  V   V5        1.0  0.07420  0.25000  0.80700  1.0000
  V   V6        1.0  0.78700  0.75000  0.91900  1.0000
