data_image0
_chemical_formula_structural       Li4Si12Sr8
_chemical_formula_sum              "Li4 Si12 Sr8"
_cell_length_a       8.51734
_cell_length_b       8.5375
_cell_length_c       10.0149
_cell_angle_alpha    102.246
_cell_angle_beta     115.165
_cell_angle_gamma    60.0781

_space_group_name_H-M_alt    "P 1"
_space_group_IT_number       1

loop_
  _space_group_symop_operation_xyz
  'x, y, z'

loop_
  _atom_site_type_symbol
  _atom_site_label
  _atom_site_symmetry_multiplicity
  _atom_site_fract_x
  _atom_site_fract_y
  _atom_site_fract_z
  _atom_site_occupancy
  Li  Li1       1.0  0.45800  0.08470  0.25000  1.0000
  Li  Li2       1.0  0.79200  0.41500  0.25000  1.0000
  Li  Li3       1.0  0.20800  0.58500  0.75000  1.0000
  Li  Li4       1.0  0.54200  0.91500  0.75000  1.0000
  Si  Si1       1.0  0.44400  0.58900  0.24400  1.0000
  Si  Si2       1.0  0.80000  0.91100  0.24400  1.0000
  Si  Si3       1.0  0.96400  0.07280  0.25000  1.0000
  Si  Si4       1.0  0.28600  0.42700  0.25000  1.0000
  Si  Si5       1.0  0.96700  0.58900  0.25600  1.0000
  Si  Si6       1.0  0.28900  0.91100  0.25600  1.0000
  Si  Si7       1.0  0.71100  0.08900  0.74400  1.0000
  Si  Si8       1.0  0.03300  0.41100  0.74400  1.0000
  Si  Si9       1.0  0.71400  0.57300  0.75000  1.0000
  Si  Si10      1.0  0.03640  0.92700  0.75000  1.0000
  Si  Si11      1.0  0.20000  0.08900  0.75600  1.0000
  Si  Si12      1.0  0.55600  0.41100  0.75600  1.0000
  Sr  Sr1       1.0  0.00033  0.75000  0.00066  1.0000
  Sr  Sr2       1.0  0.50100  0.75000  0.00202  1.0000
  Sr  Sr3       1.0  0.74900  0.75000  0.49800  1.0000
  Sr  Sr4       1.0  0.25000  0.75000  0.49900  1.0000
  Sr  Sr5       1.0  0.75000  0.25000  0.50100  1.0000
  Sr  Sr6       1.0  0.25100  0.25000  0.50200  1.0000
  Sr  Sr7       1.0  0.49900  0.25000  0.99800  1.0000
  Sr  Sr8       1.0  0.00000  0.25000  0.99900  1.0000
