data_image0
_chemical_formula_structural       H8Hf2V4
_chemical_formula_sum              "H8 Hf2 V4"
_cell_length_a       5.44633
_cell_length_b       5.38187
_cell_length_c       5.38187
_cell_angle_alpha    90
_cell_angle_beta     119.609
_cell_angle_gamma    119.609

_space_group_name_H-M_alt    "P 1"
_space_group_IT_number       1

loop_
  _space_group_symop_operation_xyz
  'x, y, z'

loop_
  _atom_site_type_symbol
  _atom_site_label
  _atom_site_symmetry_multiplicity
  _atom_site_fract_x
  _atom_site_fract_y
  _atom_site_fract_z
  _atom_site_occupancy
  H   H1        1.0  0.37300  0.50500  0.11800  1.0000
  H   H2        1.0  0.12700  0.88200  0.13200  1.0000
  H   H3        1.0  0.62700  0.13200  0.24500  1.0000
  H   H4        1.0  0.12700  0.24500  0.49500  1.0000
  H   H5        1.0  0.87300  0.75500  0.50500  1.0000
  H   H6        1.0  0.37300  0.86800  0.75500  1.0000
  H   H7        1.0  0.87300  0.11800  0.86800  1.0000
  H   H8        1.0  0.62700  0.49500  0.88200  1.0000
  Hf  Hf1       1.0  0.75000  0.87500  0.12500  1.0000
  Hf  Hf2       1.0  0.25000  0.12500  0.87500  1.0000
  V   V1        1.0  0.00000  0.50000  0.00000  1.0000
  V   V2        1.0  0.00000  0.50000  0.50000  1.0000
  V   V3        1.0  0.50000  0.50000  0.50000  1.0000
  V   V4        1.0  0.50000  0.00000  0.50000  1.0000
