data_image0
_chemical_formula_structural       H4I6K2O2
_chemical_formula_sum              "H4 I6 K2 O2"
_cell_length_a       4.614
_cell_length_b       9.98918
_cell_length_c       9.63298
_cell_angle_alpha    90
_cell_angle_beta     115.816
_cell_angle_gamma    90

_space_group_name_H-M_alt    "P 1"
_space_group_IT_number       1

loop_
  _space_group_symop_operation_xyz
  'x, y, z'

loop_
  _atom_site_type_symbol
  _atom_site_label
  _atom_site_symmetry_multiplicity
  _atom_site_fract_x
  _atom_site_fract_y
  _atom_site_fract_z
  _atom_site_occupancy
  H   H1        1.0  0.71000  0.64500  0.34000  1.0000
  H   H2        1.0  0.75800  0.79700  0.37600  1.0000
  H   H3        1.0  0.71000  0.35500  0.84000  1.0000
  H   H4        1.0  0.75800  0.20300  0.87600  1.0000
  I   I1        1.0  0.38800  0.02990  0.99400  1.0000
  I   I2        1.0  0.36700  0.24300  0.20300  1.0000
  I   I3        1.0  0.33800  0.45900  0.40800  1.0000
  I   I4        1.0  0.38800  0.97000  0.49400  1.0000
  I   I5        1.0  0.36700  0.75700  0.70300  1.0000
  I   I6        1.0  0.33800  0.54100  0.90800  1.0000
  K   K1        1.0  0.02370  0.76400  0.11800  1.0000
  K   K2        1.0  0.02370  0.23600  0.61800  1.0000
  O   O1        1.0  0.68900  0.73300  0.29100  1.0000
  O   O2        1.0  0.68900  0.26700  0.79100  1.0000
