data_image0
_chemical_formula_structural       Ca8Li4Si12
_chemical_formula_sum              "Ca8 Li4 Si12"
_cell_length_a       11.3081
_cell_length_b       10.5765
_cell_length_c       4.40909
_cell_angle_alpha    90
_cell_angle_beta     90
_cell_angle_gamma    90

_space_group_name_H-M_alt    "P 1"
_space_group_IT_number       1

loop_
  _space_group_symop_operation_xyz
  'x, y, z'

loop_
  _atom_site_type_symbol
  _atom_site_label
  _atom_site_symmetry_multiplicity
  _atom_site_fract_x
  _atom_site_fract_y
  _atom_site_fract_z
  _atom_site_occupancy
  Ca  Ca1       1.0  0.15100  0.05080  0.00000  1.0000
  Ca  Ca2       1.0  0.92400  0.32200  0.00000  1.0000
  Ca  Ca3       1.0  0.07610  0.67800  0.00000  1.0000
  Ca  Ca4       1.0  0.84900  0.94900  0.00000  1.0000
  Ca  Ca5       1.0  0.42400  0.17800  0.50000  1.0000
  Ca  Ca6       1.0  0.65100  0.44900  0.50000  1.0000
  Ca  Ca7       1.0  0.34900  0.55100  0.50000  1.0000
  Ca  Ca8       1.0  0.57600  0.82200  0.50000  1.0000
  Li  Li1       1.0  0.21900  0.36400  0.00000  1.0000
  Li  Li2       1.0  0.78100  0.63600  0.00000  1.0000
  Li  Li3       1.0  0.71900  0.13600  0.50000  1.0000
  Li  Li4       1.0  0.28100  0.86400  0.50000  1.0000
  Si  Si1       1.0  0.59900  0.03540  0.00000  1.0000
  Si  Si2       1.0  0.63400  0.25700  0.00000  1.0000
  Si  Si3       1.0  0.46000  0.39200  0.00000  1.0000
  Si  Si4       1.0  0.54000  0.60800  0.00000  1.0000
  Si  Si5       1.0  0.36600  0.74300  0.00000  1.0000
  Si  Si6       1.0  0.40100  0.96500  0.00000  1.0000
  Si  Si7       1.0  0.96000  0.10800  0.50000  1.0000
  Si  Si8       1.0  0.13400  0.24300  0.50000  1.0000
  Si  Si9       1.0  0.09910  0.46500  0.50000  1.0000
  Si  Si10      1.0  0.90100  0.53500  0.50000  1.0000
  Si  Si11      1.0  0.86600  0.75700  0.50000  1.0000
  Si  Si12      1.0  0.03990  0.89200  0.50000  1.0000
