data_image0
_chemical_formula_structural       Dy2H6O6
_chemical_formula_sum              "Dy2 H6 O6"
_cell_length_a       6.22153
_cell_length_b       6.22154
_cell_length_c       3.51714
_cell_angle_alpha    90
_cell_angle_beta     90
_cell_angle_gamma    120

_space_group_name_H-M_alt    "P 1"
_space_group_IT_number       1

loop_
  _space_group_symop_operation_xyz
  'x, y, z'

loop_
  _atom_site_type_symbol
  _atom_site_label
  _atom_site_symmetry_multiplicity
  _atom_site_fract_x
  _atom_site_fract_y
  _atom_site_fract_z
  _atom_site_occupancy
  Dy  Dy1       1.0  0.33300  0.66700  0.25000  1.0000
  Dy  Dy2       1.0  0.66700  0.33300  0.75000  1.0000
  H   H1        1.0  0.27500  0.13200  0.25000  1.0000
  H   H2        1.0  0.86800  0.14300  0.25000  1.0000
  H   H3        1.0  0.85700  0.72500  0.25000  1.0000
  H   H4        1.0  0.14300  0.27500  0.75000  1.0000
  H   H5        1.0  0.13200  0.85700  0.75000  1.0000
  H   H6        1.0  0.72500  0.86800  0.75000  1.0000
  O   O1        1.0  0.69000  0.08310  0.25000  1.0000
  O   O2        1.0  0.39300  0.31000  0.25000  1.0000
  O   O3        1.0  0.91700  0.60700  0.25000  1.0000
  O   O4        1.0  0.08310  0.39300  0.75000  1.0000
  O   O5        1.0  0.60700  0.69000  0.75000  1.0000
  O   O6        1.0  0.31000  0.91700  0.75000  1.0000
