data_image0
_chemical_formula_structural       I4Li4O16
_chemical_formula_sum              "I4 Li4 O16"
_cell_length_a       5.19732
_cell_length_b       8.43216
_cell_length_c       7.85568
_cell_angle_alpha    90
_cell_angle_beta     104.317
_cell_angle_gamma    90

_space_group_name_H-M_alt    "P 1"
_space_group_IT_number       1

loop_
  _space_group_symop_operation_xyz
  'x, y, z'

loop_
  _atom_site_type_symbol
  _atom_site_label
  _atom_site_symmetry_multiplicity
  _atom_site_fract_x
  _atom_site_fract_y
  _atom_site_fract_z
  _atom_site_occupancy
  I   I1        1.0  0.21300  0.20200  0.07210  1.0000
  I   I2        1.0  0.28700  0.70200  0.42800  1.0000
  I   I3        1.0  0.71300  0.29800  0.57200  1.0000
  I   I4        1.0  0.78700  0.79800  0.92800  1.0000
  Li  Li1       1.0  0.74800  0.46600  0.16700  1.0000
  Li  Li2       1.0  0.75200  0.96600  0.33300  1.0000
  Li  Li3       1.0  0.24800  0.03390  0.66700  1.0000
  Li  Li4       1.0  0.25200  0.53400  0.83300  1.0000
  O   O1        1.0  0.39100  0.37000  0.02010  1.0000
  O   O2        1.0  0.86800  0.92600  0.11500  1.0000
  O   O3        1.0  0.92100  0.26300  0.13400  1.0000
  O   O4        1.0  0.08140  0.59900  0.24600  1.0000
  O   O5        1.0  0.41900  0.09880  0.25400  1.0000
  O   O6        1.0  0.57900  0.76300  0.36600  1.0000
  O   O7        1.0  0.63200  0.42600  0.38500  1.0000
  O   O8        1.0  0.10900  0.87000  0.48000  1.0000
  O   O9        1.0  0.89100  0.13000  0.52000  1.0000
  O   O10       1.0  0.36800  0.57400  0.61500  1.0000
  O   O11       1.0  0.42100  0.23700  0.63400  1.0000
  O   O12       1.0  0.58100  0.90100  0.74600  1.0000
  O   O13       1.0  0.91900  0.40100  0.75400  1.0000
  O   O14       1.0  0.07940  0.73700  0.86600  1.0000
  O   O15       1.0  0.13200  0.07400  0.88500  1.0000
  O   O16       1.0  0.60900  0.63000  0.98000  1.0000
