data_image0
_chemical_formula_structural       Ba8Li4Si12
_chemical_formula_sum              "Ba8 Li4 Si12"
_cell_length_a       8.74618
_cell_length_b       8.76478
_cell_length_c       10.6676
_cell_angle_alpha    101.802
_cell_angle_beta     114.201
_cell_angle_gamma    60.0702

_space_group_name_H-M_alt    "P 1"
_space_group_IT_number       1

loop_
  _space_group_symop_operation_xyz
  'x, y, z'

loop_
  _atom_site_type_symbol
  _atom_site_label
  _atom_site_symmetry_multiplicity
  _atom_site_fract_x
  _atom_site_fract_y
  _atom_site_fract_z
  _atom_site_occupancy
  Ba  Ba1       1.0  0.25000  0.75000  0.00092  1.0000
  Ba  Ba2       1.0  0.25100  0.25000  0.00120  1.0000
  Ba  Ba3       1.0  0.49900  0.25000  0.49900  1.0000
  Ba  Ba4       1.0  1.00000  0.75000  0.49900  1.0000
  Ba  Ba5       1.0  0.00046  0.25000  0.50100  1.0000
  Ba  Ba6       1.0  0.50100  0.75000  0.50100  1.0000
  Ba  Ba7       1.0  0.74900  0.75000  0.99900  1.0000
  Ba  Ba8       1.0  0.75000  0.25000  0.99900  1.0000
  Li  Li1       1.0  0.20800  0.58400  0.25000  1.0000
  Li  Li2       1.0  0.54200  0.91600  0.25000  1.0000
  Li  Li3       1.0  0.45800  0.08450  0.75000  1.0000
  Li  Li4       1.0  0.79200  0.41600  0.75000  1.0000
  Si  Si1       1.0  0.71300  0.09230  0.24300  1.0000
  Si  Si2       1.0  0.02930  0.40800  0.24300  1.0000
  Si  Si3       1.0  0.71700  0.56600  0.25000  1.0000
  Si  Si4       1.0  0.03320  0.93400  0.25000  1.0000
  Si  Si5       1.0  0.19400  0.09230  0.25700  1.0000
  Si  Si6       1.0  0.56300  0.40800  0.25700  1.0000
  Si  Si7       1.0  0.43700  0.59200  0.74300  1.0000
  Si  Si8       1.0  0.80600  0.90800  0.74300  1.0000
  Si  Si9       1.0  0.96700  0.06640  0.75000  1.0000
  Si  Si10      1.0  0.28300  0.43400  0.75000  1.0000
  Si  Si11      1.0  0.97100  0.59200  0.75700  1.0000
  Si  Si12      1.0  0.28700  0.90800  0.75700  1.0000
