data_image0
_chemical_formula_structural       Ba8Ge12Li4
_chemical_formula_sum              "Ba8 Ge12 Li4"
_cell_length_a       8.92986
_cell_length_b       8.95524
_cell_length_c       10.7597
_cell_angle_alpha    101.94
_cell_angle_beta     114.517
_cell_angle_gamma    60.0937

_space_group_name_H-M_alt    "P 1"
_space_group_IT_number       1

loop_
  _space_group_symop_operation_xyz
  'x, y, z'

loop_
  _atom_site_type_symbol
  _atom_site_label
  _atom_site_symmetry_multiplicity
  _atom_site_fract_x
  _atom_site_fract_y
  _atom_site_fract_z
  _atom_site_occupancy
  Ba  Ba1       1.0  0.25100  0.25000  0.00224  1.0000
  Ba  Ba2       1.0  0.75200  0.25000  0.00382  1.0000
  Ba  Ba3       1.0  0.99800  0.25000  0.49600  1.0000
  Ba  Ba4       1.0  0.49900  0.25000  0.49800  1.0000
  Ba  Ba5       1.0  0.50100  0.75000  0.50200  1.0000
  Ba  Ba6       1.0  0.00191  0.75000  0.50400  1.0000
  Ba  Ba7       1.0  0.24800  0.75000  0.99600  1.0000
  Ba  Ba8       1.0  0.74900  0.75000  0.99800  1.0000
  Ge  Ge1       1.0  0.70700  0.08660  0.24200  1.0000
  Ge  Ge2       1.0  0.03460  0.41300  0.24200  1.0000
  Ge  Ge3       1.0  0.71200  0.57600  0.25000  1.0000
  Ge  Ge4       1.0  0.03810  0.92400  0.25000  1.0000
  Ge  Ge5       1.0  0.20600  0.08660  0.25800  1.0000
  Ge  Ge6       1.0  0.55200  0.41300  0.25800  1.0000
  Ge  Ge7       1.0  0.44800  0.58700  0.74200  1.0000
  Ge  Ge8       1.0  0.79400  0.91300  0.74200  1.0000
  Ge  Ge9       1.0  0.96200  0.07630  0.75000  1.0000
  Ge  Ge10      1.0  0.28800  0.42400  0.75000  1.0000
  Ge  Ge11      1.0  0.96500  0.58700  0.75800  1.0000
  Ge  Ge12      1.0  0.29300  0.91300  0.75800  1.0000
  Li  Li1       1.0  0.20600  0.58800  0.25000  1.0000
  Li  Li2       1.0  0.54400  0.91200  0.25000  1.0000
  Li  Li3       1.0  0.45600  0.08780  0.75000  1.0000
  Li  Li4       1.0  0.79400  0.41200  0.75000  1.0000
