data_image0
_chemical_formula_structural       H8N4Sr2
_chemical_formula_sum              "H8 N4 Sr2"
_cell_length_a       5.40898
_cell_length_b       5.40898
_cell_length_c       6.63476
_cell_angle_alpha    114.056
_cell_angle_beta     114.056
_cell_angle_gamma    90

_space_group_name_H-M_alt    "P 1"
_space_group_IT_number       1

loop_
  _space_group_symop_operation_xyz
  'x, y, z'

loop_
  _atom_site_type_symbol
  _atom_site_label
  _atom_site_symmetry_multiplicity
  _atom_site_fract_x
  _atom_site_fract_y
  _atom_site_fract_z
  _atom_site_occupancy
  H   H1        1.0  0.54900  0.19900  0.09880  1.0000
  H   H2        1.0  0.54900  0.89900  0.09880  1.0000
  H   H3        1.0  0.70100  0.55100  0.40100  1.0000
  H   H4        1.0  0.70100  0.85100  0.40100  1.0000
  H   H5        1.0  0.14900  0.29900  0.59900  1.0000
  H   H6        1.0  0.44900  0.29900  0.59900  1.0000
  H   H7        1.0  0.10100  0.45100  0.90100  1.0000
  H   H8        1.0  0.80100  0.45100  0.90100  1.0000
  N   N1        1.0  0.00943  0.50900  0.01890  1.0000
  N   N2        1.0  0.24100  0.24100  0.48100  1.0000
  N   N3        1.0  0.75900  0.75900  0.51900  1.0000
  N   N4        1.0  0.49100  0.99100  0.98100  1.0000
  Sr  Sr1       1.0  0.00000  0.00000  0.00000  1.0000
  Sr  Sr2       1.0  0.25000  0.75000  0.50000  1.0000
