data_image0
_chemical_formula_structural       H6O6Y2
_chemical_formula_sum              "H6 O6 Y2"
_cell_length_a       6.21883
_cell_length_b       6.21886
_cell_length_c       3.51701
_cell_angle_alpha    90
_cell_angle_beta     90
_cell_angle_gamma    120

_space_group_name_H-M_alt    "P 1"
_space_group_IT_number       1

loop_
  _space_group_symop_operation_xyz
  'x, y, z'

loop_
  _atom_site_type_symbol
  _atom_site_label
  _atom_site_symmetry_multiplicity
  _atom_site_fract_x
  _atom_site_fract_y
  _atom_site_fract_z
  _atom_site_occupancy
  H   H1        1.0  0.27200  0.13100  0.25000  1.0000
  H   H2        1.0  0.86900  0.14100  0.25000  1.0000
  H   H3        1.0  0.85900  0.72800  0.25000  1.0000
  H   H4        1.0  0.14100  0.27200  0.75000  1.0000
  H   H5        1.0  0.13100  0.85900  0.75000  1.0000
  H   H6        1.0  0.72800  0.86900  0.75000  1.0000
  O   O1        1.0  0.69200  0.08280  0.25000  1.0000
  O   O2        1.0  0.39100  0.30800  0.25000  1.0000
  O   O3        1.0  0.91700  0.60900  0.25000  1.0000
  O   O4        1.0  0.08280  0.39100  0.75000  1.0000
  O   O5        1.0  0.60900  0.69200  0.75000  1.0000
  O   O6        1.0  0.30800  0.91700  0.75000  1.0000
  Y   Y1        1.0  0.33300  0.66700  0.25000  1.0000
  Y   Y2        1.0  0.66700  0.33300  0.75000  1.0000
