data_image0
_chemical_formula_structural       Ag4F2H4I2O2
_chemical_formula_sum              "Ag4 F2 H4 I2 O2"
_cell_length_a       4.66671
_cell_length_b       7.70238
_cell_length_c       6.3992
_cell_angle_alpha    90
_cell_angle_beta     93.4628
_cell_angle_gamma    90

_space_group_name_H-M_alt    "P 1"
_space_group_IT_number       1

loop_
  _space_group_symop_operation_xyz
  'x, y, z'

loop_
  _atom_site_type_symbol
  _atom_site_label
  _atom_site_symmetry_multiplicity
  _atom_site_fract_x
  _atom_site_fract_y
  _atom_site_fract_z
  _atom_site_occupancy
  Ag  Ag1       1.0  0.01670  0.55600  0.28600  1.0000
  Ag  Ag2       1.0  0.02950  0.99800  0.29400  1.0000
  Ag  Ag3       1.0  0.97000  0.49800  0.70600  1.0000
  Ag  Ag4       1.0  0.98300  0.05580  0.71400  1.0000
  F   F1        1.0  0.29600  0.93500  0.99700  1.0000
  F   F2        1.0  0.70400  0.43500  0.00344  1.0000
  H   H1        1.0  0.55600  0.04560  0.00369  1.0000
  H   H2        1.0  0.70800  0.24100  0.01390  1.0000
  H   H3        1.0  0.29200  0.74100  0.98600  1.0000
  H   H4        1.0  0.44400  0.54600  0.99600  1.0000
  I   I1        1.0  0.34500  0.27700  0.49700  1.0000
  I   I2        1.0  0.65500  0.77700  0.50300  1.0000
  O   O1        1.0  0.74500  0.11100  0.00991  1.0000
  O   O2        1.0  0.25500  0.61100  0.99000  1.0000
