data_image0
_chemical_formula_structural       Li8Se12Te4
_chemical_formula_sum              "Li8 Se12 Te4"
_cell_length_a       5.6088
_cell_length_b       11.9758
_cell_length_c       8.21835
_cell_angle_alpha    90
_cell_angle_beta     92.4155
_cell_angle_gamma    90

_space_group_name_H-M_alt    "P 1"
_space_group_IT_number       1

loop_
  _space_group_symop_operation_xyz
  'x, y, z'

loop_
  _atom_site_type_symbol
  _atom_site_label
  _atom_site_symmetry_multiplicity
  _atom_site_fract_x
  _atom_site_fract_y
  _atom_site_fract_z
  _atom_site_occupancy
  Li  Li1       1.0  0.76300  0.41200  0.13400  1.0000
  Li  Li2       1.0  0.73700  0.77300  0.14800  1.0000
  Li  Li3       1.0  0.26300  0.27300  0.35200  1.0000
  Li  Li4       1.0  0.23700  0.91200  0.36600  1.0000
  Li  Li5       1.0  0.76300  0.08830  0.63400  1.0000
  Li  Li6       1.0  0.73700  0.72700  0.64800  1.0000
  Li  Li7       1.0  0.26300  0.22700  0.85200  1.0000
  Li  Li8       1.0  0.23700  0.58800  0.86600  1.0000
  Se  Se1       1.0  0.22900  0.75100  0.11700  1.0000
  Se  Se2       1.0  0.25600  0.42200  0.11900  1.0000
  Se  Se3       1.0  0.26000  0.09510  0.12700  1.0000
  Se  Se4       1.0  0.74000  0.59500  0.37300  1.0000
  Se  Se5       1.0  0.74400  0.92200  0.38100  1.0000
  Se  Se6       1.0  0.77100  0.25100  0.38300  1.0000
  Se  Se7       1.0  0.22900  0.74900  0.61700  1.0000
  Se  Se8       1.0  0.25600  0.07800  0.61900  1.0000
  Se  Se9       1.0  0.26000  0.40500  0.62700  1.0000
  Se  Se10      1.0  0.74000  0.90500  0.87300  1.0000
  Se  Se11      1.0  0.74400  0.57800  0.88100  1.0000
  Se  Se12      1.0  0.77100  0.24900  0.88300  1.0000
  Te  Te1       1.0  0.71600  0.08550  0.18600  1.0000
  Te  Te2       1.0  0.28400  0.58500  0.31400  1.0000
  Te  Te3       1.0  0.71600  0.41500  0.68600  1.0000
  Te  Te4       1.0  0.28400  0.91500  0.81400  1.0000
