data_image0
_chemical_formula_structural       Al2H8Th4
_chemical_formula_sum              "Al2 H8 Th4"
_cell_length_a       6.47955
_cell_length_b       6.27182
_cell_length_c       6.27182
_cell_angle_alpha    105.476
_cell_angle_beta     58.8982
_cell_angle_gamma    121.102

_space_group_name_H-M_alt    "P 1"
_space_group_IT_number       1

loop_
  _space_group_symop_operation_xyz
  'x, y, z'

loop_
  _atom_site_type_symbol
  _atom_site_label
  _atom_site_symmetry_multiplicity
  _atom_site_fract_x
  _atom_site_fract_y
  _atom_site_fract_z
  _atom_site_occupancy
  Al  Al1       1.0  0.25000  0.00000  0.00000  1.0000
  Al  Al2       1.0  0.75000  0.00000  0.00000  1.0000
  H   H1        1.0  0.48000  0.50000  0.24000  1.0000
  H   H2        1.0  0.77900  0.50000  0.24000  1.0000
  H   H3        1.0  0.01960  0.24000  0.50000  1.0000
  H   H4        1.0  0.72100  0.24000  0.50000  1.0000
  H   H5        1.0  0.98000  0.76000  0.50000  1.0000
  H   H6        1.0  0.27900  0.76000  0.50000  1.0000
  H   H7        1.0  0.22100  0.50000  0.76000  1.0000
  H   H8        1.0  0.52000  0.50000  0.76000  1.0000
  Th  Th1       1.0  0.16500  0.50000  0.17100  1.0000
  Th  Th2       1.0  0.33500  0.17100  0.50000  1.0000
  Th  Th3       1.0  0.66500  0.82900  0.50000  1.0000
  Th  Th4       1.0  0.83500  0.50000  0.82900  1.0000
