data_image0
_chemical_formula_structural       Al2Be2H10
_chemical_formula_sum              "Al2 Be2 H10"
_cell_length_a       4.62372
_cell_length_b       4.20429
_cell_length_c       6.02261
_cell_angle_alpha    90
_cell_angle_beta     89.3237
_cell_angle_gamma    90

_space_group_name_H-M_alt    "P 1"
_space_group_IT_number       1

loop_
  _space_group_symop_operation_xyz
  'x, y, z'

loop_
  _atom_site_type_symbol
  _atom_site_label
  _atom_site_symmetry_multiplicity
  _atom_site_fract_x
  _atom_site_fract_y
  _atom_site_fract_z
  _atom_site_occupancy
  Al  Al1       1.0  0.75500  0.49000  0.00004  1.0000
  Al  Al2       1.0  0.24500  0.99000  0.00000  1.0000
  Be  Be1       1.0  0.99800  0.73000  0.37900  1.0000
  Be  Be2       1.0  0.00239  0.23000  0.62100  1.0000
  H   H1        1.0  0.49800  0.24000  0.10200  1.0000
  H   H2        1.0  0.99700  0.23900  0.10900  1.0000
  H   H3        1.0  0.74100  0.66900  0.25600  1.0000
  H   H4        1.0  0.25400  0.81600  0.25700  1.0000
  H   H5        1.0  0.12800  0.46400  0.48300  1.0000
  H   H6        1.0  0.87200  0.96400  0.51700  1.0000
  H   H7        1.0  0.74600  0.31600  0.74300  1.0000
  H   H8        1.0  0.25900  0.16900  0.74400  1.0000
  H   H9        1.0  0.00263  0.73900  0.89100  1.0000
  H   H10       1.0  0.50200  0.74000  0.89800  1.0000
