data_image0
_chemical_formula_structural       Li2O16Sb6
_chemical_formula_sum              "Li2 O16 Sb6"
_cell_length_a       10.3354
_cell_length_b       4.70904
_cell_length_c       5.62847
_cell_angle_alpha    90
_cell_angle_beta     96.7056
_cell_angle_gamma    90

_space_group_name_H-M_alt    "P 1"
_space_group_IT_number       1

loop_
  _space_group_symop_operation_xyz
  'x, y, z'

loop_
  _atom_site_type_symbol
  _atom_site_label
  _atom_site_symmetry_multiplicity
  _atom_site_fract_x
  _atom_site_fract_y
  _atom_site_fract_z
  _atom_site_occupancy
  Li  Li1       1.0  0.50000  0.50000  0.00000  1.0000
  Li  Li2       1.0  0.00000  0.00000  0.00000  1.0000
  O   O1        1.0  0.67300  0.69100  0.01260  1.0000
  O   O2        1.0  0.17300  0.80900  0.01260  1.0000
  O   O3        1.0  0.58100  0.17700  0.23500  1.0000
  O   O4        1.0  0.08110  0.32300  0.23500  1.0000
  O   O5        1.0  0.92100  0.79300  0.27700  1.0000
  O   O6        1.0  0.42100  0.70700  0.27700  1.0000
  O   O7        1.0  0.82600  0.28100  0.48000  1.0000
  O   O8        1.0  0.32600  0.21900  0.48000  1.0000
  O   O9        1.0  0.67400  0.78100  0.52000  1.0000
  O   O10       1.0  0.17400  0.71900  0.52000  1.0000
  O   O11       1.0  0.57900  0.29300  0.72300  1.0000
  O   O12       1.0  0.07900  0.20700  0.72300  1.0000
  O   O13       1.0  0.91900  0.67700  0.76500  1.0000
  O   O14       1.0  0.41900  0.82300  0.76500  1.0000
  O   O15       1.0  0.82700  0.19100  0.98700  1.0000
  O   O16       1.0  0.32700  0.30900  0.98700  1.0000
  Sb  Sb1       1.0  0.75100  0.98000  0.23600  1.0000
  Sb  Sb2       1.0  0.25100  0.52000  0.23600  1.0000
  Sb  Sb3       1.0  0.50000  0.00000  0.50000  1.0000
  Sb  Sb4       1.0  0.00000  0.50000  0.50000  1.0000
  Sb  Sb5       1.0  0.74900  0.48000  0.76400  1.0000
  Sb  Sb6       1.0  0.24900  0.02030  0.76400  1.0000
