data_image0
_chemical_formula_structural       H8I2N2
_chemical_formula_sum              "H8 I2 N2"
_cell_length_a       6.03084
_cell_length_b       6.03084
_cell_length_c       4.23366
_cell_angle_alpha    90
_cell_angle_beta     90
_cell_angle_gamma    90

_space_group_name_H-M_alt    "P 1"
_space_group_IT_number       1

loop_
  _space_group_symop_operation_xyz
  'x, y, z'

loop_
  _atom_site_type_symbol
  _atom_site_label
  _atom_site_symmetry_multiplicity
  _atom_site_fract_x
  _atom_site_fract_y
  _atom_site_fract_z
  _atom_site_occupancy
  H   H1        1.0  0.00000  0.14200  0.14200  1.0000
  H   H2        1.0  0.35800  0.50000  0.14200  1.0000
  H   H3        1.0  0.64200  0.50000  0.14200  1.0000
  H   H4        1.0  0.00000  0.85800  0.14200  1.0000
  H   H5        1.0  0.14200  0.00000  0.85800  1.0000
  H   H6        1.0  0.85800  0.00000  0.85800  1.0000
  H   H7        1.0  0.50000  0.35800  0.85800  1.0000
  H   H8        1.0  0.50000  0.64200  0.85800  1.0000
  I   I1        1.0  0.00000  0.50000  0.46900  1.0000
  I   I2        1.0  0.50000  0.00000  0.53100  1.0000
  N   N1        1.0  0.00000  0.00000  0.00000  1.0000
  N   N2        1.0  0.50000  0.50000  0.00000  1.0000
