data_image0
_chemical_formula_structural       Ba9HIn4
_chemical_formula_sum              "Ba9 H1 In4"
_cell_length_a       5.97238
_cell_length_b       10.3567
_cell_length_c       10.3567
_cell_angle_alpha    94.7689
_cell_angle_beta     73.2417
_cell_angle_gamma    106.758

_space_group_name_H-M_alt    "P 1"
_space_group_IT_number       1

loop_
  _space_group_symop_operation_xyz
  'x, y, z'

loop_
  _atom_site_type_symbol
  _atom_site_label
  _atom_site_symmetry_multiplicity
  _atom_site_fract_x
  _atom_site_fract_y
  _atom_site_fract_z
  _atom_site_occupancy
  Ba  Ba1       1.0  0.50000  0.00000  0.00000  1.0000
  Ba  Ba2       1.0  0.81800  0.71000  0.07410  1.0000
  Ba  Ba3       1.0  0.12600  0.51200  0.26000  1.0000
  Ba  Ba4       1.0  0.89200  0.07410  0.29000  1.0000
  Ba  Ba5       1.0  0.38600  0.26000  0.48800  1.0000
  Ba  Ba6       1.0  0.61400  0.74000  0.51200  1.0000
  Ba  Ba7       1.0  0.10800  0.92600  0.71000  1.0000
  Ba  Ba8       1.0  0.87400  0.48800  0.74000  1.0000
  Ba  Ba9       1.0  0.18200  0.29000  0.92600  1.0000
  H   H1        1.0  0.00000  0.00000  0.00000  1.0000
  In  In1       1.0  0.60000  0.33800  0.13800  1.0000
  In  In2       1.0  0.26200  0.86200  0.33800  1.0000
  In  In3       1.0  0.73800  0.13800  0.66200  1.0000
  In  In4       1.0  0.40000  0.66200  0.86200  1.0000
