data_image0
_chemical_formula_structural       B4Li12S12
_chemical_formula_sum              "B4 Li12 S12"
_cell_length_a       8.16039
_cell_length_b       10.0963
_cell_length_c       6.17341
_cell_angle_alpha    90
_cell_angle_beta     90
_cell_angle_gamma    90

_space_group_name_H-M_alt    "P 1"
_space_group_IT_number       1

loop_
  _space_group_symop_operation_xyz
  'x, y, z'

loop_
  _atom_site_type_symbol
  _atom_site_label
  _atom_site_symmetry_multiplicity
  _atom_site_fract_x
  _atom_site_fract_y
  _atom_site_fract_z
  _atom_site_occupancy
  B   B1        1.0  0.88200  0.25000  0.11900  1.0000
  B   B2        1.0  0.38200  0.25000  0.38100  1.0000
  B   B3        1.0  0.61800  0.75000  0.61900  1.0000
  B   B4        1.0  0.11800  0.75000  0.88100  1.0000
  Li  Li1       1.0  0.49400  0.75000  0.04990  1.0000
  Li  Li2       1.0  0.17100  0.50800  0.10100  1.0000
  Li  Li3       1.0  0.17100  0.99200  0.10100  1.0000
  Li  Li4       1.0  0.67100  0.50800  0.39900  1.0000
  Li  Li5       1.0  0.67100  0.99200  0.39900  1.0000
  Li  Li6       1.0  0.99400  0.75000  0.45000  1.0000
  Li  Li7       1.0  0.00592  0.25000  0.55000  1.0000
  Li  Li8       1.0  0.32900  0.00823  0.60100  1.0000
  Li  Li9       1.0  0.32900  0.49200  0.60100  1.0000
  Li  Li10      1.0  0.82900  0.00823  0.89900  1.0000
  Li  Li11      1.0  0.82900  0.49200  0.89900  1.0000
  Li  Li12      1.0  0.50600  0.25000  0.95000  1.0000
  S   S1        1.0  0.20200  0.75000  0.15700  1.0000
  S   S2        1.0  0.42300  0.09350  0.24100  1.0000
  S   S3        1.0  0.42300  0.40700  0.24100  1.0000
  S   S4        1.0  0.92300  0.09350  0.25900  1.0000
  S   S5        1.0  0.92300  0.40700  0.25900  1.0000
  S   S6        1.0  0.70200  0.75000  0.34300  1.0000
  S   S7        1.0  0.29800  0.25000  0.65700  1.0000
  S   S8        1.0  0.07690  0.59300  0.74100  1.0000
  S   S9        1.0  0.07690  0.90700  0.74100  1.0000
  S   S10       1.0  0.57700  0.59300  0.75900  1.0000
  S   S11       1.0  0.57700  0.90700  0.75900  1.0000
  S   S12       1.0  0.79800  0.25000  0.84300  1.0000
