data_image0
_chemical_formula_structural       Br16Li8Zn4
_chemical_formula_sum              "Br16 Li8 Zn4"
_cell_length_a       13.612
_cell_length_b       7.87878
_cell_length_c       6.4828
_cell_angle_alpha    90
_cell_angle_beta     90
_cell_angle_gamma    90

_space_group_name_H-M_alt    "P 1"
_space_group_IT_number       1

loop_
  _space_group_symop_operation_xyz
  'x, y, z'

loop_
  _atom_site_type_symbol
  _atom_site_label
  _atom_site_symmetry_multiplicity
  _atom_site_fract_x
  _atom_site_fract_y
  _atom_site_fract_z
  _atom_site_occupancy
  Br  Br1       1.0  0.91100  0.75000  0.21800  1.0000
  Br  Br2       1.0  0.92500  0.25000  0.24900  1.0000
  Br  Br3       1.0  0.16700  0.00596  0.24900  1.0000
  Br  Br4       1.0  0.16700  0.49400  0.24900  1.0000
  Br  Br5       1.0  0.66700  0.00596  0.25100  1.0000
  Br  Br6       1.0  0.66700  0.49400  0.25100  1.0000
  Br  Br7       1.0  0.42500  0.25000  0.25100  1.0000
  Br  Br8       1.0  0.41100  0.75000  0.28200  1.0000
  Br  Br9       1.0  0.58900  0.25000  0.71800  1.0000
  Br  Br10      1.0  0.57500  0.75000  0.74900  1.0000
  Br  Br11      1.0  0.33300  0.50600  0.74900  1.0000
  Br  Br12      1.0  0.33300  0.99400  0.74900  1.0000
  Br  Br13      1.0  0.83300  0.50600  0.75100  1.0000
  Br  Br14      1.0  0.83300  0.99400  0.75100  1.0000
  Br  Br15      1.0  0.07530  0.75000  0.75100  1.0000
  Br  Br16      1.0  0.08950  0.25000  0.78200  1.0000
  Li  Li1       1.0  0.00000  0.00000  0.00000  1.0000
  Li  Li2       1.0  0.00000  0.50000  0.00000  1.0000
  Li  Li3       1.0  0.26500  0.25000  0.00528  1.0000
  Li  Li4       1.0  0.76500  0.25000  0.49500  1.0000
  Li  Li5       1.0  0.50000  0.00000  0.50000  1.0000
  Li  Li6       1.0  0.50000  0.50000  0.50000  1.0000
  Li  Li7       1.0  0.23500  0.75000  0.50500  1.0000
  Li  Li8       1.0  0.73500  0.75000  0.99500  1.0000
  Zn  Zn1       1.0  0.58800  0.25000  0.08860  1.0000
  Zn  Zn2       1.0  0.08760  0.25000  0.41100  1.0000
  Zn  Zn3       1.0  0.91200  0.75000  0.58900  1.0000
  Zn  Zn4       1.0  0.41200  0.75000  0.91100  1.0000
