data_image0
_chemical_formula_structural       Au4Li12O12
_chemical_formula_sum              "Au4 Li12 O12"
_cell_length_a       9.11797
_cell_length_b       9.11797
_cell_length_c       3.56943
_cell_angle_alpha    90
_cell_angle_beta     90
_cell_angle_gamma    90

_space_group_name_H-M_alt    "P 1"
_space_group_IT_number       1

loop_
  _space_group_symop_operation_xyz
  'x, y, z'

loop_
  _atom_site_type_symbol
  _atom_site_label
  _atom_site_symmetry_multiplicity
  _atom_site_fract_x
  _atom_site_fract_y
  _atom_site_fract_z
  _atom_site_occupancy
  Au  Au1       1.0  0.38100  0.38100  0.00000  1.0000
  Au  Au2       1.0  0.61900  0.61900  0.00000  1.0000
  Au  Au3       1.0  0.88100  0.11900  0.50000  1.0000
  Au  Au4       1.0  0.11900  0.88100  0.50000  1.0000
  Li  Li1       1.0  0.59200  0.14000  0.00000  1.0000
  Li  Li2       1.0  0.16600  0.16600  0.00000  1.0000
  Li  Li3       1.0  0.86000  0.40800  0.00000  1.0000
  Li  Li4       1.0  0.14000  0.59200  0.00000  1.0000
  Li  Li5       1.0  0.83400  0.83400  0.00000  1.0000
  Li  Li6       1.0  0.40800  0.86000  0.00000  1.0000
  Li  Li7       1.0  0.36000  0.09160  0.50000  1.0000
  Li  Li8       1.0  0.66600  0.33400  0.50000  1.0000
  Li  Li9       1.0  0.09160  0.36000  0.50000  1.0000
  Li  Li10      1.0  0.90800  0.64000  0.50000  1.0000
  Li  Li11      1.0  0.33400  0.66600  0.50000  1.0000
  Li  Li12      1.0  0.64000  0.90800  0.50000  1.0000
  O   O1        1.0  0.38100  0.16000  0.00000  1.0000
  O   O2        1.0  0.16000  0.38100  0.00000  1.0000
  O   O3        1.0  0.60800  0.39200  0.00000  1.0000
  O   O4        1.0  0.39200  0.60800  0.00000  1.0000
  O   O5        1.0  0.84000  0.61900  0.00000  1.0000
  O   O6        1.0  0.61900  0.84000  0.00000  1.0000
  O   O7        1.0  0.10800  0.10800  0.50000  1.0000
  O   O8        1.0  0.66000  0.11900  0.50000  1.0000
  O   O9        1.0  0.88100  0.34000  0.50000  1.0000
  O   O10       1.0  0.11900  0.66000  0.50000  1.0000
  O   O11       1.0  0.34000  0.88100  0.50000  1.0000
  O   O12       1.0  0.89200  0.89200  0.50000  1.0000
