data_image0
_chemical_formula_structural       Li8O16Te4
_chemical_formula_sum              "Li8 O16 Te4"
_cell_length_a       6.02237
_cell_length_b       6.02237
_cell_length_c       8.25614
_cell_angle_alpha    90
_cell_angle_beta     90
_cell_angle_gamma    90

_space_group_name_H-M_alt    "P 1"
_space_group_IT_number       1

loop_
  _space_group_symop_operation_xyz
  'x, y, z'

loop_
  _atom_site_type_symbol
  _atom_site_label
  _atom_site_symmetry_multiplicity
  _atom_site_fract_x
  _atom_site_fract_y
  _atom_site_fract_z
  _atom_site_occupancy
  Li  Li1       1.0  0.50000  0.29200  0.00000  1.0000
  Li  Li2       1.0  0.25100  0.74900  0.12500  1.0000
  Li  Li3       1.0  0.70800  0.50000  0.25000  1.0000
  Li  Li4       1.0  0.25100  0.25100  0.37500  1.0000
  Li  Li5       1.0  0.50000  0.70800  0.50000  1.0000
  Li  Li6       1.0  0.74900  0.25100  0.62500  1.0000
  Li  Li7       1.0  0.29200  0.50000  0.75000  1.0000
  Li  Li8       1.0  0.74900  0.74900  0.87500  1.0000
  O   O1        1.0  0.23400  0.47500  0.00493  1.0000
  O   O2        1.0  0.77200  0.02150  0.01260  1.0000
  O   O3        1.0  0.97900  0.22800  0.23700  1.0000
  O   O4        1.0  0.52500  0.76600  0.24500  1.0000
  O   O5        1.0  0.52500  0.23400  0.25500  1.0000
  O   O6        1.0  0.97900  0.77200  0.26300  1.0000
  O   O7        1.0  0.77200  0.97900  0.48700  1.0000
  O   O8        1.0  0.23400  0.52500  0.49500  1.0000
  O   O9        1.0  0.76600  0.52500  0.50500  1.0000
  O   O10       1.0  0.22800  0.97900  0.51300  1.0000
  O   O11       1.0  0.02150  0.77200  0.73700  1.0000
  O   O12       1.0  0.47500  0.23400  0.74500  1.0000
  O   O13       1.0  0.47500  0.76600  0.75500  1.0000
  O   O14       1.0  0.02150  0.22800  0.76300  1.0000
  O   O15       1.0  0.22800  0.02150  0.98700  1.0000
  O   O16       1.0  0.76600  0.47500  0.99500  1.0000
  Te  Te1       1.0  0.00000  0.27400  0.00000  1.0000
  Te  Te2       1.0  0.72600  0.00000  0.25000  1.0000
  Te  Te3       1.0  0.00000  0.72600  0.50000  1.0000
  Te  Te4       1.0  0.27400  0.00000  0.75000  1.0000
