data_image0
_chemical_formula_structural       As4Li12S12
_chemical_formula_sum              "As4 Li12 S12"
_cell_length_a       8.01853
_cell_length_b       6.6403
_cell_length_c       9.81968
_cell_angle_alpha    90
_cell_angle_beta     90
_cell_angle_gamma    90

_space_group_name_H-M_alt    "P 1"
_space_group_IT_number       1

loop_
  _space_group_symop_operation_xyz
  'x, y, z'

loop_
  _atom_site_type_symbol
  _atom_site_label
  _atom_site_symmetry_multiplicity
  _atom_site_fract_x
  _atom_site_fract_y
  _atom_site_fract_z
  _atom_site_occupancy
  As  As1       1.0  0.75300  0.09690  0.99900  1.0000
  As  As2       1.0  0.25300  0.40300  0.99900  1.0000
  As  As3       1.0  0.74700  0.59700  0.49900  1.0000
  As  As4       1.0  0.24700  0.90300  0.49900  1.0000
  Li  Li1       1.0  0.74800  0.61700  0.11100  1.0000
  Li  Li2       1.0  0.24800  0.88300  0.11100  1.0000
  Li  Li3       1.0  0.43400  0.54800  0.27800  1.0000
  Li  Li4       1.0  0.93400  0.95200  0.27800  1.0000
  Li  Li5       1.0  0.57800  0.14600  0.31100  1.0000
  Li  Li6       1.0  0.07820  0.35400  0.31100  1.0000
  Li  Li7       1.0  0.75200  0.11700  0.61100  1.0000
  Li  Li8       1.0  0.25200  0.38300  0.61100  1.0000
  Li  Li9       1.0  0.06600  0.04840  0.77800  1.0000
  Li  Li10      1.0  0.56600  0.45200  0.77800  1.0000
  Li  Li11      1.0  0.92200  0.64600  0.81100  1.0000
  Li  Li12      1.0  0.42200  0.85400  0.81100  1.0000
  S   S1        1.0  0.45800  0.64300  0.01020  1.0000
  S   S2        1.0  0.95800  0.85700  0.01020  1.0000
  S   S3        1.0  0.31500  0.21800  0.18700  1.0000
  S   S4        1.0  0.81500  0.28200  0.18700  1.0000
  S   S5        1.0  0.15900  0.70700  0.32400  1.0000
  S   S6        1.0  0.65900  0.79300  0.32400  1.0000
  S   S7        1.0  0.04150  0.14300  0.51000  1.0000
  S   S8        1.0  0.54200  0.35700  0.51000  1.0000
  S   S9        1.0  0.18500  0.71800  0.68700  1.0000
  S   S10       1.0  0.68500  0.78200  0.68700  1.0000
  S   S11       1.0  0.34100  0.20700  0.82400  1.0000
  S   S12       1.0  0.84100  0.29300  0.82400  1.0000
