data_image0
_chemical_formula_structural       Cs3H9Mg3
_chemical_formula_sum              "Cs3 H9 Mg3"
_cell_length_a       6.14714
_cell_length_b       6.14714
_cell_length_c       8.16882
_cell_angle_alpha    112.102
_cell_angle_beta     67.898
_cell_angle_gamma    120

_space_group_name_H-M_alt    "P 1"
_space_group_IT_number       1

loop_
  _space_group_symop_operation_xyz
  'x, y, z'

loop_
  _atom_site_type_symbol
  _atom_site_label
  _atom_site_symmetry_multiplicity
  _atom_site_fract_x
  _atom_site_fract_y
  _atom_site_fract_z
  _atom_site_occupancy
  Cs  Cs1       1.0  0.00000  0.00000  0.00000  1.0000
  Cs  Cs2       1.0  0.21400  0.78600  0.35900  1.0000
  Cs  Cs3       1.0  0.78600  0.21400  0.64100  1.0000
  H   H1        1.0  0.50000  0.00000  0.00000  1.0000
  H   H2        1.0  0.50000  0.50000  0.00000  1.0000
  H   H3        1.0  0.00000  0.50000  0.00000  1.0000
  H   H4        1.0  0.69800  0.30200  0.32200  1.0000
  H   H5        1.0  0.69800  0.71800  0.32200  1.0000
  H   H6        1.0  0.28200  0.30200  0.32200  1.0000
  H   H7        1.0  0.71800  0.69800  0.67800  1.0000
  H   H8        1.0  0.30200  0.28200  0.67800  1.0000
  H   H9        1.0  0.30200  0.69800  0.67800  1.0000
  Mg  Mg1       1.0  0.62100  0.37900  0.13600  1.0000
  Mg  Mg2       1.0  0.50000  0.50000  0.50000  1.0000
  Mg  Mg3       1.0  0.37900  0.62100  0.86400  1.0000
