data_image0
_chemical_formula_structural       Gd8Li8Sn8
_chemical_formula_sum              "Gd8 Li8 Sn8"
_cell_length_a       9.38165
_cell_length_b       9.38155
_cell_length_c       7.40981
_cell_angle_alpha    90
_cell_angle_beta     90
_cell_angle_gamma    120

_space_group_name_H-M_alt    "P 1"
_space_group_IT_number       1

loop_
  _space_group_symop_operation_xyz
  'x, y, z'

loop_
  _atom_site_type_symbol
  _atom_site_label
  _atom_site_symmetry_multiplicity
  _atom_site_fract_x
  _atom_site_fract_y
  _atom_site_fract_z
  _atom_site_occupancy
  Gd  Gd1       1.0  0.00000  0.00000  0.00123  1.0000
  Gd  Gd2       1.0  0.51200  0.02390  0.00578  1.0000
  Gd  Gd3       1.0  0.51200  0.48800  0.00578  1.0000
  Gd  Gd4       1.0  0.97600  0.48800  0.00578  1.0000
  Gd  Gd5       1.0  0.00000  0.00000  0.50100  1.0000
  Gd  Gd6       1.0  0.48800  0.97600  0.50600  1.0000
  Gd  Gd7       1.0  0.02390  0.51200  0.50600  1.0000
  Gd  Gd8       1.0  0.48800  0.51200  0.50600  1.0000
  Li  Li1       1.0  0.16700  0.33400  0.21100  1.0000
  Li  Li2       1.0  0.16700  0.83300  0.21100  1.0000
  Li  Li3       1.0  0.66600  0.83300  0.21100  1.0000
  Li  Li4       1.0  0.66700  0.33300  0.32800  1.0000
  Li  Li5       1.0  0.83300  0.66600  0.71100  1.0000
  Li  Li6       1.0  0.33400  0.16700  0.71100  1.0000
  Li  Li7       1.0  0.83300  0.16700  0.71100  1.0000
  Li  Li8       1.0  0.33300  0.66700  0.82800  1.0000
  Sn  Sn1       1.0  0.33300  0.66700  0.23800  1.0000
  Sn  Sn2       1.0  0.33300  0.16700  0.27100  1.0000
  Sn  Sn3       1.0  0.83300  0.16700  0.27100  1.0000
  Sn  Sn4       1.0  0.83300  0.66700  0.27100  1.0000
  Sn  Sn5       1.0  0.66700  0.33300  0.73800  1.0000
  Sn  Sn6       1.0  0.16700  0.33300  0.77100  1.0000
  Sn  Sn7       1.0  0.16700  0.83300  0.77100  1.0000
  Sn  Sn8       1.0  0.66700  0.83300  0.77100  1.0000
