data_image0
_chemical_formula_structural       Li6O8P2
_chemical_formula_sum              "Li6 O8 P2"
_cell_length_a       6.07284
_cell_length_b       5.21238
_cell_length_c       4.81719
_cell_angle_alpha    90
_cell_angle_beta     90
_cell_angle_gamma    90

_space_group_name_H-M_alt    "P 1"
_space_group_IT_number       1

loop_
  _space_group_symop_operation_xyz
  'x, y, z'

loop_
  _atom_site_type_symbol
  _atom_site_label
  _atom_site_symmetry_multiplicity
  _atom_site_fract_x
  _atom_site_fract_y
  _atom_site_fract_z
  _atom_site_occupancy
  Li  Li1       1.0  0.00000  0.15900  0.49000  1.0000
  Li  Li2       1.0  0.25300  0.67200  0.49100  1.0000
  Li  Li3       1.0  0.74700  0.67200  0.49100  1.0000
  Li  Li4       1.0  0.50000  0.84100  0.99000  1.0000
  Li  Li5       1.0  0.24700  0.32800  0.99100  1.0000
  Li  Li6       1.0  0.75300  0.32800  0.99100  1.0000
  O   O1        1.0  0.00000  0.81900  0.32100  1.0000
  O   O2        1.0  0.29000  0.31400  0.39200  1.0000
  O   O3        1.0  0.71000  0.31400  0.39200  1.0000
  O   O4        1.0  0.50000  0.89200  0.39600  1.0000
  O   O5        1.0  0.50000  0.18100  0.82100  1.0000
  O   O6        1.0  0.21000  0.68600  0.89200  1.0000
  O   O7        1.0  0.79000  0.68600  0.89200  1.0000
  O   O8        1.0  0.00000  0.10800  0.89600  1.0000
  P   P1        1.0  0.00000  0.82500  0.99900  1.0000
  P   P2        1.0  0.50000  0.17500  0.49900  1.0000
