data_image0
_chemical_formula_structural       Li8O14P4
_chemical_formula_sum              "Li8 O14 P4"
_cell_length_a       8.51166
_cell_length_b       7.07272
_cell_length_c       5.15218
_cell_angle_alpha    111.627
_cell_angle_beta     89.9293
_cell_angle_gamma    103.47

_space_group_name_H-M_alt    "P 1"
_space_group_IT_number       1

loop_
  _space_group_symop_operation_xyz
  'x, y, z'

loop_
  _atom_site_type_symbol
  _atom_site_label
  _atom_site_symmetry_multiplicity
  _atom_site_fract_x
  _atom_site_fract_y
  _atom_site_fract_z
  _atom_site_occupancy
  Li  Li1       1.0  0.75900  0.41900  0.02360  1.0000
  Li  Li2       1.0  0.98800  0.85500  0.10900  1.0000
  Li  Li3       1.0  0.55400  0.24800  0.29900  1.0000
  Li  Li4       1.0  0.21000  0.32400  0.34900  1.0000
  Li  Li5       1.0  0.79000  0.67600  0.65100  1.0000
  Li  Li6       1.0  0.44600  0.75200  0.70100  1.0000
  Li  Li7       1.0  0.01200  0.14500  0.89100  1.0000
  Li  Li8       1.0  0.24100  0.58100  0.97600  1.0000
  O   O1        1.0  0.76300  0.70200  0.04010  1.0000
  O   O2        1.0  0.46700  0.72500  0.04670  1.0000
  O   O3        1.0  0.12300  0.73700  0.25100  1.0000
  O   O4        1.0  0.98500  0.15000  0.27100  1.0000
  O   O5        1.0  0.68200  0.04060  0.30600  1.0000
  O   O6        1.0  0.79800  0.40400  0.39200  1.0000
  O   O7        1.0  0.62200  0.74200  0.48400  1.0000
  O   O8        1.0  0.37800  0.25800  0.51600  1.0000
  O   O9        1.0  0.20200  0.59600  0.60800  1.0000
  O   O10       1.0  0.31800  0.95900  0.69400  1.0000
  O   O11       1.0  0.01480  0.85000  0.72900  1.0000
  O   O12       1.0  0.87700  0.26300  0.74900  1.0000
  O   O13       1.0  0.53300  0.27500  0.95300  1.0000
  O   O14       1.0  0.23700  0.29800  0.96000  1.0000
  P   P1        1.0  0.62900  0.78400  0.21500  1.0000
  P   P2        1.0  0.84900  0.22500  0.44100  1.0000
  P   P3        1.0  0.15100  0.77500  0.55900  1.0000
  P   P4        1.0  0.37100  0.21600  0.78500  1.0000
