data_image0
_chemical_formula_structural       B26C4Li2
_chemical_formula_sum              "B26 C4 Li2"
_cell_length_a       5.677
_cell_length_b       7.31544
_cell_length_c       7.31544
_cell_angle_alpha    95.48
_cell_angle_beta     112.831
_cell_angle_gamma    112.831

_space_group_name_H-M_alt    "P 1"
_space_group_IT_number       1

loop_
  _space_group_symop_operation_xyz
  'x, y, z'

loop_
  _atom_site_type_symbol
  _atom_site_label
  _atom_site_symmetry_multiplicity
  _atom_site_fract_x
  _atom_site_fract_y
  _atom_site_fract_z
  _atom_site_occupancy
  B   B1        1.0  0.31900  0.22800  0.09050  1.0000
  B   B2        1.0  0.99900  0.22800  0.09050  1.0000
  B   B3        1.0  0.30400  0.98000  0.12300  1.0000
  B   B4        1.0  0.79900  0.98000  0.12300  1.0000
  B   B5        1.0  0.98800  0.82100  0.15500  1.0000
  B   B6        1.0  0.17700  0.10400  0.25100  1.0000
  B   B7        1.0  0.00051  0.40900  0.27200  1.0000
  B   B8        1.0  0.68100  0.40900  0.27200  1.0000
  B   B9        1.0  0.98800  0.65500  0.32100  1.0000
  B   B10       1.0  0.63700  0.88700  0.38700  1.0000
  B   B11       1.0  0.82300  0.24900  0.39600  1.0000
  B   B12       1.0  0.30400  0.62300  0.48000  1.0000
  B   B13       1.0  0.79900  0.62300  0.48000  1.0000
  B   B14       1.0  0.20100  0.37700  0.52000  1.0000
  B   B15       1.0  0.69600  0.37700  0.52000  1.0000
  B   B16       1.0  0.17700  0.75100  0.60400  1.0000
  B   B17       1.0  0.36300  0.11300  0.61300  1.0000
  B   B18       1.0  0.01220  0.34500  0.67900  1.0000
  B   B19       1.0  0.31900  0.59100  0.72800  1.0000
  B   B20       1.0  0.99900  0.59100  0.72800  1.0000
  B   B21       1.0  0.82300  0.89600  0.74900  1.0000
  B   B22       1.0  0.01220  0.17900  0.84500  1.0000
  B   B23       1.0  0.20100  0.02010  0.87700  1.0000
  B   B24       1.0  0.69600  0.02010  0.87700  1.0000
  B   B25       1.0  0.00051  0.77200  0.90900  1.0000
  B   B26       1.0  0.68100  0.77200  0.90900  1.0000
  C   C1        1.0  0.62900  0.01010  0.24800  1.0000
  C   C2        1.0  0.37100  0.25200  0.49000  1.0000
  C   C3        1.0  0.62900  0.74800  0.51000  1.0000
  C   C4        1.0  0.37100  0.99000  0.75200  1.0000
  Li  Li1       1.0  0.31000  0.56000  0.06030  1.0000
  Li  Li2       1.0  0.69000  0.44000  0.94000  1.0000
