data_image0
_chemical_formula_structural       LiMg3
_chemical_formula_sum              "Li1 Mg3"
_cell_length_a       3.16419
_cell_length_b       5.92886
_cell_length_c       5.44245
_cell_angle_alpha    62.6788
_cell_angle_beta     90
_cell_angle_gamma    74.5233

_space_group_name_H-M_alt    "P 1"
_space_group_IT_number       1

loop_
  _space_group_symop_operation_xyz
  'x, y, z'

loop_
  _atom_site_type_symbol
  _atom_site_label
  _atom_site_symmetry_multiplicity
  _atom_site_fract_x
  _atom_site_fract_y
  _atom_site_fract_z
  _atom_site_occupancy
  Li  Li1       1.0  0.75000  0.50000  0.08270  1.0000
  Mg  Mg1       1.0  0.00123  0.99800  0.00071  1.0000
  Mg  Mg2       1.0  0.49900  0.00247  0.49800  1.0000
  Mg  Mg3       1.0  0.25000  0.50000  0.58500  1.0000
