data_image0
_chemical_formula_structural       Li12Na4Si24
_chemical_formula_sum              "Li12 Na4 Si24"
_cell_length_a       17.8521
_cell_length_b       3.78242
_cell_length_c       10.2517
_cell_angle_alpha    90
_cell_angle_beta     90
_cell_angle_gamma    90

_space_group_name_H-M_alt    "P 1"
_space_group_IT_number       1

loop_
  _space_group_symop_operation_xyz
  'x, y, z'

loop_
  _atom_site_type_symbol
  _atom_site_label
  _atom_site_symmetry_multiplicity
  _atom_site_fract_x
  _atom_site_fract_y
  _atom_site_fract_z
  _atom_site_occupancy
  Li  Li1       1.0  0.93200  0.25000  0.01520  1.0000
  Li  Li2       1.0  0.18700  0.25000  0.06150  1.0000
  Li  Li3       1.0  0.52800  0.25000  0.09190  1.0000
  Li  Li4       1.0  0.02790  0.25000  0.40800  1.0000
  Li  Li5       1.0  0.68700  0.25000  0.43900  1.0000
  Li  Li6       1.0  0.43200  0.25000  0.48500  1.0000
  Li  Li7       1.0  0.56800  0.75000  0.51500  1.0000
  Li  Li8       1.0  0.31300  0.75000  0.56100  1.0000
  Li  Li9       1.0  0.97200  0.75000  0.59200  1.0000
  Li  Li10      1.0  0.47200  0.75000  0.90800  1.0000
  Li  Li11      1.0  0.81300  0.75000  0.93900  1.0000
  Li  Li12      1.0  0.06790  0.75000  0.98500  1.0000
  Na  Na1       1.0  0.92500  0.75000  0.25000  1.0000
  Na  Na2       1.0  0.42500  0.75000  0.25000  1.0000
  Na  Na3       1.0  0.57500  0.25000  0.75000  1.0000
  Na  Na4       1.0  0.07530  0.25000  0.75000  1.0000
  Si  Si1       1.0  0.61700  0.75000  0.00303  1.0000
  Si  Si2       1.0  0.30400  0.75000  0.02280  1.0000
  Si  Si3       1.0  0.79600  0.25000  0.14000  1.0000
  Si  Si4       1.0  0.05370  0.25000  0.16400  1.0000
  Si  Si5       1.0  0.25100  0.75000  0.24200  1.0000
  Si  Si6       1.0  0.61700  0.75000  0.24200  1.0000
  Si  Si7       1.0  0.11700  0.75000  0.25800  1.0000
  Si  Si8       1.0  0.75100  0.75000  0.25800  1.0000
  Si  Si9       1.0  0.55400  0.25000  0.33600  1.0000
  Si  Si10      1.0  0.29600  0.25000  0.36000  1.0000
  Si  Si11      1.0  0.80400  0.75000  0.47700  1.0000
  Si  Si12      1.0  0.11700  0.75000  0.49700  1.0000
  Si  Si13      1.0  0.88300  0.25000  0.50300  1.0000
  Si  Si14      1.0  0.19600  0.25000  0.52300  1.0000
  Si  Si15      1.0  0.70400  0.75000  0.64000  1.0000
  Si  Si16      1.0  0.44600  0.75000  0.66400  1.0000
  Si  Si17      1.0  0.24900  0.25000  0.74200  1.0000
  Si  Si18      1.0  0.88300  0.25000  0.74200  1.0000
  Si  Si19      1.0  0.38300  0.25000  0.75800  1.0000
  Si  Si20      1.0  0.74900  0.25000  0.75800  1.0000
  Si  Si21      1.0  0.94600  0.75000  0.83600  1.0000
  Si  Si22      1.0  0.20400  0.75000  0.86000  1.0000
  Si  Si23      1.0  0.69600  0.25000  0.97700  1.0000
  Si  Si24      1.0  0.38300  0.25000  0.99700  1.0000
