data_image0
_chemical_formula_structural       Pd2Ti
_chemical_formula_sum              "Pd2 Ti1"
_cell_length_a       3.06519
_cell_length_b       3.45554
_cell_length_c       4.92976
_cell_angle_alpha    110.517
_cell_angle_beta     108.113
_cell_angle_gamma    90

_space_group_name_H-M_alt    "P 1"
_space_group_IT_number       1

loop_
  _space_group_symop_operation_xyz
  'x, y, z'

loop_
  _atom_site_type_symbol
  _atom_site_label
  _atom_site_symmetry_multiplicity
  _atom_site_fract_x
  _atom_site_fract_y
  _atom_site_fract_z
  _atom_site_occupancy
  Pd  Pd1       1.0  0.65700  0.65700  0.31500  1.0000
  Pd  Pd2       1.0  0.34300  0.34300  0.68500  1.0000
  Ti  Ti1       1.0  0.00000  0.00000  0.00000  1.0000
