data_image0
_chemical_formula_structural       Bi4Li12O16
_chemical_formula_sum              "Bi4 Li12 O16"
_cell_length_a       8.68321
_cell_length_b       8.68321
_cell_length_c       4.24734
_cell_angle_alpha    90
_cell_angle_beta     90
_cell_angle_gamma    90

_space_group_name_H-M_alt    "P 1"
_space_group_IT_number       1

loop_
  _space_group_symop_operation_xyz
  'x, y, z'

loop_
  _atom_site_type_symbol
  _atom_site_label
  _atom_site_symmetry_multiplicity
  _atom_site_fract_x
  _atom_site_fract_y
  _atom_site_fract_z
  _atom_site_occupancy
  Bi  Bi1       1.0  0.13500  0.13500  0.00000  1.0000
  Bi  Bi2       1.0  0.86500  0.86500  0.00000  1.0000
  Bi  Bi3       1.0  0.63500  0.36500  0.50000  1.0000
  Bi  Bi4       1.0  0.36500  0.63500  0.50000  1.0000
  Li  Li1       1.0  0.60600  0.11200  0.00000  1.0000
  Li  Li2       1.0  0.37000  0.37000  0.00000  1.0000
  Li  Li3       1.0  0.88800  0.39400  0.00000  1.0000
  Li  Li4       1.0  0.11200  0.60600  0.00000  1.0000
  Li  Li5       1.0  0.63000  0.63000  0.00000  1.0000
  Li  Li6       1.0  0.39400  0.88800  0.00000  1.0000
  Li  Li7       1.0  0.38800  0.10600  0.50000  1.0000
  Li  Li8       1.0  0.87000  0.13000  0.50000  1.0000
  Li  Li9       1.0  0.10600  0.38800  0.50000  1.0000
  Li  Li10      1.0  0.89400  0.61200  0.50000  1.0000
  Li  Li11      1.0  0.13000  0.87000  0.50000  1.0000
  Li  Li12      1.0  0.61200  0.89400  0.50000  1.0000
  O   O1        1.0  0.88600  0.11400  0.00000  1.0000
  O   O2        1.0  0.37000  0.12300  0.00000  1.0000
  O   O3        1.0  0.12300  0.37000  0.00000  1.0000
  O   O4        1.0  0.62400  0.37600  0.00000  1.0000
  O   O5        1.0  0.37600  0.62400  0.00000  1.0000
  O   O6        1.0  0.87700  0.63000  0.00000  1.0000
  O   O7        1.0  0.63000  0.87700  0.00000  1.0000
  O   O8        1.0  0.11400  0.88600  0.00000  1.0000
  O   O9        1.0  0.12400  0.12400  0.50000  1.0000
  O   O10       1.0  0.62300  0.13000  0.50000  1.0000
  O   O11       1.0  0.87000  0.37700  0.50000  1.0000
  O   O12       1.0  0.38600  0.38600  0.50000  1.0000
  O   O13       1.0  0.61400  0.61400  0.50000  1.0000
  O   O14       1.0  0.13000  0.62300  0.50000  1.0000
  O   O15       1.0  0.37700  0.87000  0.50000  1.0000
  O   O16       1.0  0.87600  0.87600  0.50000  1.0000
