data_image0
_chemical_formula_structural       Ca6H18Li6
_chemical_formula_sum              "Ca6 H18 Li6"
_cell_length_a       5.10164
_cell_length_b       5.10164
_cell_length_c       12.2325
_cell_angle_alpha    90
_cell_angle_beta     90
_cell_angle_gamma    120

_space_group_name_H-M_alt    "P 1"
_space_group_IT_number       1

loop_
  _space_group_symop_operation_xyz
  'x, y, z'

loop_
  _atom_site_type_symbol
  _atom_site_label
  _atom_site_symmetry_multiplicity
  _atom_site_fract_x
  _atom_site_fract_y
  _atom_site_fract_z
  _atom_site_occupancy
  Ca  Ca1       1.0  0.66700  0.33300  0.08340  1.0000
  Ca  Ca2       1.0  0.00000  0.00000  0.25000  1.0000
  Ca  Ca3       1.0  0.33300  0.66700  0.41700  1.0000
  Ca  Ca4       1.0  0.66700  0.33300  0.58300  1.0000
  Ca  Ca5       1.0  0.00000  0.00000  0.75000  1.0000
  Ca  Ca6       1.0  0.33300  0.66700  0.91700  1.0000
  H   H1        1.0  0.12100  0.33300  0.08330  1.0000
  H   H2        1.0  0.66700  0.78800  0.08330  1.0000
  H   H3        1.0  0.21200  0.87900  0.08330  1.0000
  H   H4        1.0  0.54600  0.00000  0.25000  1.0000
  H   H5        1.0  0.45400  0.45400  0.25000  1.0000
  H   H6        1.0  0.00000  0.54600  0.25000  1.0000
  H   H7        1.0  0.33300  0.12100  0.41700  1.0000
  H   H8        1.0  0.87900  0.21200  0.41700  1.0000
  H   H9        1.0  0.78800  0.66700  0.41700  1.0000
  H   H10       1.0  0.21200  0.33300  0.58300  1.0000
  H   H11       1.0  0.12100  0.78800  0.58300  1.0000
  H   H12       1.0  0.66700  0.87900  0.58300  1.0000
  H   H13       1.0  0.45400  0.00000  0.75000  1.0000
  H   H14       1.0  0.00000  0.45400  0.75000  1.0000
  H   H15       1.0  0.54600  0.54600  0.75000  1.0000
  H   H16       1.0  0.78800  0.12100  0.91700  1.0000
  H   H17       1.0  0.33300  0.21200  0.91700  1.0000
  H   H18       1.0  0.87900  0.66700  0.91700  1.0000
  Li  Li1       1.0  0.00000  0.00000  0.00001  1.0000
  Li  Li2       1.0  0.33300  0.66700  0.16700  1.0000
  Li  Li3       1.0  0.66700  0.33300  0.33300  1.0000
  Li  Li4       1.0  0.00000  0.00000  0.50000  1.0000
  Li  Li5       1.0  0.33300  0.66700  0.66700  1.0000
  Li  Li6       1.0  0.66700  0.33300  0.83300  1.0000
