data_image0
_chemical_formula_structural       Li24Mg6Si8
_chemical_formula_sum              "Li24 Mg6 Si8"
_cell_length_a       9.13549
_cell_length_b       9.13549
_cell_length_c       9.13549
_cell_angle_alpha    109.471
_cell_angle_beta     109.471
_cell_angle_gamma    109.471

_space_group_name_H-M_alt    "P 1"
_space_group_IT_number       1

loop_
  _space_group_symop_operation_xyz
  'x, y, z'

loop_
  _atom_site_type_symbol
  _atom_site_label
  _atom_site_symmetry_multiplicity
  _atom_site_fract_x
  _atom_site_fract_y
  _atom_site_fract_z
  _atom_site_occupancy
  Li  Li1       1.0  0.68800  0.41900  0.03290  1.0000
  Li  Li2       1.0  0.11400  0.76900  0.08110  1.0000
  Li  Li3       1.0  0.26900  0.58100  0.11400  1.0000
  Li  Li4       1.0  0.46700  0.38600  0.15500  1.0000
  Li  Li5       1.0  0.53300  0.91900  0.18800  1.0000
  Li  Li6       1.0  0.84500  0.81200  0.23100  1.0000
  Li  Li7       1.0  0.08110  0.61400  0.26900  1.0000
  Li  Li8       1.0  0.23100  0.34500  0.31200  1.0000
  Li  Li9       1.0  0.73100  0.31200  0.34500  1.0000
  Li  Li10      1.0  0.96700  0.15500  0.38600  1.0000
  Li  Li11      1.0  0.18800  0.03290  0.41900  1.0000
  Li  Li12      1.0  0.88600  0.65500  0.46700  1.0000
  Li  Li13      1.0  0.41900  0.68800  0.53300  1.0000
  Li  Li14      1.0  0.76900  0.11400  0.58100  1.0000
  Li  Li15      1.0  0.58100  0.26900  0.61400  1.0000
  Li  Li16      1.0  0.38600  0.46700  0.65500  1.0000
  Li  Li17      1.0  0.91900  0.53300  0.68800  1.0000
  Li  Li18      1.0  0.81200  0.84500  0.73100  1.0000
  Li  Li19      1.0  0.61400  0.08110  0.76900  1.0000
  Li  Li20      1.0  0.34500  0.23100  0.81200  1.0000
  Li  Li21      1.0  0.31200  0.73100  0.84500  1.0000
  Li  Li22      1.0  0.15500  0.96700  0.88600  1.0000
  Li  Li23      1.0  0.03290  0.18800  0.91900  1.0000
  Li  Li24      1.0  0.65500  0.88600  0.96700  1.0000
  Mg  Mg1       1.0  0.87500  0.25000  0.12500  1.0000
  Mg  Mg2       1.0  0.37500  0.12500  0.25000  1.0000
  Mg  Mg3       1.0  0.62500  0.75000  0.37500  1.0000
  Mg  Mg4       1.0  0.25000  0.87500  0.62500  1.0000
  Mg  Mg5       1.0  0.12500  0.37500  0.75000  1.0000
  Mg  Mg6       1.0  0.75000  0.62500  0.87500  1.0000
  Si  Si1       1.0  0.50000  0.09350  0.00000  1.0000
  Si  Si2       1.0  0.50000  0.59300  0.00000  1.0000
  Si  Si3       1.0  0.00000  0.00000  0.09350  1.0000
  Si  Si4       1.0  0.40700  0.90700  0.40700  1.0000
  Si  Si5       1.0  0.09350  0.50000  0.50000  1.0000
  Si  Si6       1.0  0.59300  0.50000  0.50000  1.0000
  Si  Si7       1.0  0.00000  0.00000  0.59300  1.0000
  Si  Si8       1.0  0.90700  0.40700  0.90700  1.0000
