data_image0
_chemical_formula_structural       Li12Nb4O16
_chemical_formula_sum              "Li12 Nb4 O16"
_cell_length_a       7.28035
_cell_length_b       7.28035
_cell_length_c       7.28035
_cell_angle_alpha    109.471
_cell_angle_beta     109.471
_cell_angle_gamma    109.471

_space_group_name_H-M_alt    "P 1"
_space_group_IT_number       1

loop_
  _space_group_symop_operation_xyz
  'x, y, z'

loop_
  _atom_site_type_symbol
  _atom_site_label
  _atom_site_symmetry_multiplicity
  _atom_site_fract_x
  _atom_site_fract_y
  _atom_site_fract_z
  _atom_site_occupancy
  Li  Li1       1.0  0.72900  0.48700  0.00082  1.0000
  Li  Li2       1.0  0.51400  0.51300  0.24200  1.0000
  Li  Li3       1.0  0.27200  0.75800  0.27100  1.0000
  Li  Li4       1.0  0.75800  0.27100  0.27200  1.0000
  Li  Li5       1.0  0.72800  0.99900  0.48600  1.0000
  Li  Li6       1.0  0.00082  0.72900  0.48700  1.0000
  Li  Li7       1.0  0.24200  0.51400  0.51300  1.0000
  Li  Li8       1.0  0.51300  0.24200  0.51400  1.0000
  Li  Li9       1.0  0.99900  0.48600  0.72800  1.0000
  Li  Li10      1.0  0.48700  0.00082  0.72900  1.0000
  Li  Li11      1.0  0.27100  0.27200  0.75800  1.0000
  Li  Li12      1.0  0.48600  0.72800  0.99900  1.0000
  Nb  Nb1       1.0  0.28200  0.00000  0.00000  1.0000
  Nb  Nb2       1.0  0.00000  0.28200  0.00000  1.0000
  Nb  Nb3       1.0  0.00000  0.00000  0.28200  1.0000
  Nb  Nb4       1.0  0.71800  0.71800  0.71800  1.0000
  O   O1        1.0  0.24200  0.48900  0.99900  1.0000
  O   O2        1.0  0.77000  0.00000  0.00000  1.0000
  O   O3        1.0  0.00000  0.77000  0.00000  1.0000
  O   O4        1.0  0.49000  0.24200  0.00053  1.0000
  O   O5        1.0  0.23000  0.23000  0.23000  1.0000
  O   O6        1.0  0.48900  0.99900  0.24200  1.0000
  O   O7        1.0  0.00053  0.49000  0.24200  1.0000
  O   O8        1.0  0.75800  0.75800  0.24700  1.0000
  O   O9        1.0  0.99900  0.24200  0.48900  1.0000
  O   O10       1.0  0.24200  0.00053  0.49000  1.0000
  O   O11       1.0  0.51100  0.75300  0.51000  1.0000
  O   O12       1.0  0.75300  0.51000  0.51100  1.0000
  O   O13       1.0  0.51000  0.51100  0.75300  1.0000
  O   O14       1.0  0.24700  0.75800  0.75800  1.0000
  O   O15       1.0  0.75800  0.24700  0.75800  1.0000
  O   O16       1.0  0.00000  0.00000  0.77000  1.0000
