data_image0
_chemical_formula_structural       NbPt2
_chemical_formula_sum              "Nb1 Pt2"
_cell_length_a       2.81827
_cell_length_b       3.98036
_cell_length_c       4.91562
_cell_angle_alpha    113.883
_cell_angle_beta     106.658
_cell_angle_gamma    90

_space_group_name_H-M_alt    "P 1"
_space_group_IT_number       1

loop_
  _space_group_symop_operation_xyz
  'x, y, z'

loop_
  _atom_site_type_symbol
  _atom_site_label
  _atom_site_symmetry_multiplicity
  _atom_site_fract_x
  _atom_site_fract_y
  _atom_site_fract_z
  _atom_site_occupancy
  Nb  Nb1       1.0  0.00000  0.00000  0.00000  1.0000
  Pt  Pt1       1.0  0.66400  0.66400  0.32800  1.0000
  Pt  Pt2       1.0  0.33600  0.33600  0.67200  1.0000
