data_image0
_chemical_formula_structural       F8H6K2
_chemical_formula_sum              "F8 H6 K2"
_cell_length_a       5.44032
_cell_length_b       5.44032
_cell_length_c       5.44032
_cell_angle_alpha    97.587
_cell_angle_beta     82.413
_cell_angle_gamma    97.587

_space_group_name_H-M_alt    "P 1"
_space_group_IT_number       1

loop_
  _space_group_symop_operation_xyz
  'x, y, z'

loop_
  _atom_site_type_symbol
  _atom_site_label
  _atom_site_symmetry_multiplicity
  _atom_site_fract_x
  _atom_site_fract_y
  _atom_site_fract_z
  _atom_site_occupancy
  F   F1        1.0  0.42000  0.25000  0.07990  1.0000
  F   F2        1.0  0.25000  0.75000  0.25000  1.0000
  F   F3        1.0  0.92000  0.42000  0.25000  1.0000
  F   F4        1.0  0.75000  0.92000  0.42000  1.0000
  F   F5        1.0  0.25000  0.07990  0.58000  1.0000
  F   F6        1.0  0.07990  0.58000  0.75000  1.0000
  F   F7        1.0  0.75000  0.25000  0.75000  1.0000
  F   F8        1.0  0.58000  0.75000  0.92000  1.0000
  H   H1        1.0  0.44100  0.75000  0.05940  1.0000
  H   H2        1.0  0.05940  0.55900  0.25000  1.0000
  H   H3        1.0  0.25000  0.94100  0.44100  1.0000
  H   H4        1.0  0.75000  0.05940  0.55900  1.0000
  H   H5        1.0  0.94100  0.44100  0.75000  1.0000
  H   H6        1.0  0.55900  0.25000  0.94100  1.0000
  K   K1        1.0  0.00000  0.00000  0.00000  1.0000
  K   K2        1.0  0.50000  0.50000  0.50000  1.0000
