data_image0
_chemical_formula_structural       F8H4N4
_chemical_formula_sum              "F8 H4 N4"
_cell_length_a       6.05051
_cell_length_b       4.52347
_cell_length_c       4.80489
_cell_angle_alpha    90
_cell_angle_beta     90
_cell_angle_gamma    90

_space_group_name_H-M_alt    "P 1"
_space_group_IT_number       1

loop_
  _space_group_symop_operation_xyz
  'x, y, z'

loop_
  _atom_site_type_symbol
  _atom_site_label
  _atom_site_symmetry_multiplicity
  _atom_site_fract_x
  _atom_site_fract_y
  _atom_site_fract_z
  _atom_site_occupancy
  F   F1        1.0  0.07240  0.42500  0.25300  1.0000
  F   F2        1.0  0.57200  0.57500  0.25300  1.0000
  F   F3        1.0  0.43700  0.12100  0.25600  1.0000
  F   F4        1.0  0.93700  0.87900  0.25600  1.0000
  F   F5        1.0  0.42800  0.42500  0.75300  1.0000
  F   F6        1.0  0.92800  0.57500  0.75300  1.0000
  F   F7        1.0  0.06280  0.12100  0.75600  1.0000
  F   F8        1.0  0.56300  0.87900  0.75600  1.0000
  H   H1        1.0  0.70900  0.24400  0.07020  1.0000
  H   H2        1.0  0.20900  0.75600  0.07020  1.0000
  H   H3        1.0  0.79100  0.24400  0.57000  1.0000
  H   H4        1.0  0.29100  0.75600  0.57000  1.0000
  N   N1        1.0  0.63800  0.27500  0.27100  1.0000
  N   N2        1.0  0.13800  0.72500  0.27100  1.0000
  N   N3        1.0  0.86200  0.27500  0.77100  1.0000
  N   N4        1.0  0.36200  0.72500  0.77100  1.0000
