data_image0
_chemical_formula_structural       Cs2F5Li3
_chemical_formula_sum              "Cs2 F5 Li3"
_cell_length_a       3.91665
_cell_length_b       4.02111
_cell_length_c       9.89503
_cell_angle_alpha    78.2765
_cell_angle_beta     90
_cell_angle_gamma    90

_space_group_name_H-M_alt    "P 1"
_space_group_IT_number       1

loop_
  _space_group_symop_operation_xyz
  'x, y, z'

loop_
  _atom_site_type_symbol
  _atom_site_label
  _atom_site_symmetry_multiplicity
  _atom_site_fract_x
  _atom_site_fract_y
  _atom_site_fract_z
  _atom_site_occupancy
  Cs  Cs1       1.0  0.50000  0.37800  0.24500  1.0000
  Cs  Cs2       1.0  0.00000  0.73300  0.53400  1.0000
  F   F1        1.0  0.00000  0.48600  0.02710  1.0000
  F   F2        1.0  0.00000  0.88800  0.22500  1.0000
  F   F3        1.0  0.50000  0.22200  0.55700  1.0000
  F   F4        1.0  0.50000  0.60900  0.78200  1.0000
  F   F5        1.0  0.00000  0.08780  0.82400  1.0000
  Li  Li1       1.0  0.00000  0.98600  0.02840  1.0000
  Li  Li2       1.0  0.50000  0.12200  0.75500  1.0000
  Li  Li3       1.0  0.00000  0.57900  0.84200  1.0000
