data_image0
_chemical_formula_structural       FeH4K2O10S2
_chemical_formula_sum              "Fe1 H4 K2 O10 S2"
_cell_length_a       7.16469
_cell_length_b       5.29149
_cell_length_c       6.46944
_cell_angle_alpha    107.293
_cell_angle_beta     109.648
_cell_angle_gamma    94.7929

_space_group_name_H-M_alt    "P 1"
_space_group_IT_number       1

loop_
  _space_group_symop_operation_xyz
  'x, y, z'

loop_
  _atom_site_type_symbol
  _atom_site_label
  _atom_site_symmetry_multiplicity
  _atom_site_fract_x
  _atom_site_fract_y
  _atom_site_fract_z
  _atom_site_occupancy
  Fe  Fe1       1.0  0.50000  0.50000  0.50000  1.0000
  H   H1        1.0  0.11500  0.29200  0.36000  1.0000
  H   H2        1.0  0.15100  0.60600  0.43900  1.0000
  H   H3        1.0  0.84900  0.39400  0.56100  1.0000
  H   H4        1.0  0.88500  0.70800  0.64000  1.0000
  K   K1        1.0  0.75500  0.80500  0.18100  1.0000
  K   K2        1.0  0.24500  0.19500  0.81900  1.0000
  O   O1        1.0  0.87000  0.24300  0.05990  1.0000
  O   O2        1.0  0.39600  0.63600  0.21700  1.0000
  O   O3        1.0  0.41700  0.10200  0.23800  1.0000
  O   O4        1.0  0.16500  0.89300  0.34900  1.0000
  O   O5        1.0  0.19800  0.45600  0.49100  1.0000
  O   O6        1.0  0.80200  0.54400  0.50900  1.0000
  O   O7        1.0  0.83500  0.10700  0.65100  1.0000
  O   O8        1.0  0.58300  0.89800  0.76200  1.0000
  O   O9        1.0  0.60400  0.36400  0.78300  1.0000
  O   O10       1.0  0.13000  0.75700  0.94000  1.0000
  S   S1        1.0  0.27300  0.84800  0.18400  1.0000
  S   S2        1.0  0.72700  0.15200  0.81600  1.0000
