data_image0
_chemical_formula_structural       Br6Fe2H8N2
_chemical_formula_sum              "Br6 Fe2 H8 N2"
_cell_length_a       7.44497
_cell_length_b       7.45872
_cell_length_c       6.10767
_cell_angle_alpha    90
_cell_angle_beta     90
_cell_angle_gamma    119.782

_space_group_name_H-M_alt    "P 1"
_space_group_IT_number       1

loop_
  _space_group_symop_operation_xyz
  'x, y, z'

loop_
  _atom_site_type_symbol
  _atom_site_label
  _atom_site_symmetry_multiplicity
  _atom_site_fract_x
  _atom_site_fract_y
  _atom_site_fract_z
  _atom_site_occupancy
  Br  Br1       1.0  0.79600  0.12100  0.26200  1.0000
  Br  Br2       1.0  0.32600  0.20200  0.26300  1.0000
  Br  Br3       1.0  0.87700  0.67400  0.26300  1.0000
  Br  Br4       1.0  0.20400  0.87900  0.76200  1.0000
  Br  Br5       1.0  0.67400  0.79800  0.76300  1.0000
  Br  Br6       1.0  0.12300  0.32600  0.76300  1.0000
  Fe  Fe1       1.0  0.00000  0.99900  0.01030  1.0000
  Fe  Fe2       1.0  0.00030  0.00054  0.51000  1.0000
  H   H1        1.0  0.33500  0.66800  0.06860  1.0000
  H   H2        1.0  0.33400  0.53300  0.29000  1.0000
  H   H3        1.0  0.20100  0.66700  0.29000  1.0000
  H   H4        1.0  0.46600  0.79800  0.29200  1.0000
  H   H5        1.0  0.66500  0.33200  0.56900  1.0000
  H   H6        1.0  0.66600  0.46700  0.79000  1.0000
  H   H7        1.0  0.79900  0.33300  0.79000  1.0000
  H   H8        1.0  0.53400  0.20200  0.79200  1.0000
  N   N1        1.0  0.33400  0.66700  0.23800  1.0000
  N   N2        1.0  0.66600  0.33300  0.73800  1.0000
