data_image0
_chemical_formula_structural       CdCr2H4K2O10
_chemical_formula_sum              "Cd1 Cr2 H4 K2 O10"
_cell_length_a       5.874
_cell_length_b       6.3494
_cell_length_c       7.46448
_cell_angle_alpha    108.626
_cell_angle_beta     97.1239
_cell_angle_gamma    109.369

_space_group_name_H-M_alt    "P 1"
_space_group_IT_number       1

loop_
  _space_group_symop_operation_xyz
  'x, y, z'

loop_
  _atom_site_type_symbol
  _atom_site_label
  _atom_site_symmetry_multiplicity
  _atom_site_fract_x
  _atom_site_fract_y
  _atom_site_fract_z
  _atom_site_occupancy
  Cd  Cd1       1.0  0.00000  0.00000  0.00000  1.0000
  Cr  Cr1       1.0  0.67900  0.35000  0.24200  1.0000
  Cr  Cr2       1.0  0.32100  0.65000  0.75800  1.0000
  H   H1        1.0  0.93300  0.84800  0.31800  1.0000
  H   H2        1.0  0.12300  0.12900  0.40400  1.0000
  H   H3        1.0  0.87700  0.87100  0.59600  1.0000
  H   H4        1.0  0.06750  0.15200  0.68200  1.0000
  K   K1        1.0  0.35200  0.70300  0.24400  1.0000
  K   K2        1.0  0.64800  0.29700  0.75600  1.0000
  O   O1        1.0  0.41100  0.26600  0.07890  1.0000
  O   O2        1.0  0.89600  0.32800  0.12000  1.0000
  O   O3        1.0  0.06700  0.97100  0.29100  1.0000
  O   O4        1.0  0.64600  0.18000  0.36900  1.0000
  O   O5        1.0  0.76300  0.63900  0.38900  1.0000
  O   O6        1.0  0.23700  0.36100  0.61100  1.0000
  O   O7        1.0  0.35400  0.82000  0.63100  1.0000
  O   O8        1.0  0.93300  0.02930  0.70900  1.0000
  O   O9        1.0  0.10400  0.67200  0.88000  1.0000
  O   O10       1.0  0.58900  0.73400  0.92100  1.0000
