data_image0
_chemical_formula_structural       I6Li2Sc2
_chemical_formula_sum              "I6 Li2 Sc2"
_cell_length_a       7.40318
_cell_length_b       7.40383
_cell_length_c       6.68826
_cell_angle_alpha    90
_cell_angle_beta     90
_cell_angle_gamma    119.997

_space_group_name_H-M_alt    "P 1"
_space_group_IT_number       1

loop_
  _space_group_symop_operation_xyz
  'x, y, z'

loop_
  _atom_site_type_symbol
  _atom_site_label
  _atom_site_symmetry_multiplicity
  _atom_site_fract_x
  _atom_site_fract_y
  _atom_site_fract_z
  _atom_site_occupancy
  I   I1        1.0  0.33100  0.33200  0.25000  1.0000
  I   I2        1.0  0.00150  0.66900  0.25000  1.0000
  I   I3        1.0  0.66800  0.99800  0.25000  1.0000
  I   I4        1.0  0.00147  0.33200  0.75000  1.0000
  I   I5        1.0  0.66800  0.66900  0.75000  1.0000
  I   I6        1.0  0.33100  0.99800  0.75000  1.0000
  Li  Li1       1.0  0.33300  0.66700  0.00000  1.0000
  Li  Li2       1.0  0.33300  0.66700  0.50000  1.0000
  Sc  Sc1       1.0  0.00003  0.00006  0.00000  1.0000
  Sc  Sc2       1.0  0.00003  0.00006  0.50000  1.0000
