data_image0
_chemical_formula_structural       H12I4Si4
_chemical_formula_sum              "H12 I4 Si4"
_cell_length_a       4.483
_cell_length_b       8.21792
_cell_length_c       10.2058
_cell_angle_alpha    90
_cell_angle_beta     102.755
_cell_angle_gamma    90

_space_group_name_H-M_alt    "P 1"
_space_group_IT_number       1

loop_
  _space_group_symop_operation_xyz
  'x, y, z'

loop_
  _atom_site_type_symbol
  _atom_site_label
  _atom_site_symmetry_multiplicity
  _atom_site_fract_x
  _atom_site_fract_y
  _atom_site_fract_z
  _atom_site_occupancy
  H   H1        1.0  0.58300  0.53800  0.12500  1.0000
  H   H2        1.0  0.32500  0.83300  0.19300  1.0000
  H   H3        1.0  0.77500  0.01610  0.22200  1.0000
  H   H4        1.0  0.22500  0.51600  0.27800  1.0000
  H   H5        1.0  0.67500  0.33300  0.30700  1.0000
  H   H6        1.0  0.41700  0.03830  0.37500  1.0000
  H   H7        1.0  0.58300  0.96200  0.62500  1.0000
  H   H8        1.0  0.32500  0.66700  0.69300  1.0000
  H   H9        1.0  0.77500  0.48400  0.72200  1.0000
  H   H10       1.0  0.22500  0.98400  0.77800  1.0000
  H   H11       1.0  0.67500  0.16700  0.80700  1.0000
  H   H12       1.0  0.41700  0.46200  0.87500  1.0000
  I   I1        1.0  0.13100  0.22800  0.05870  1.0000
  I   I2        1.0  0.86900  0.72800  0.44100  1.0000
  I   I3        1.0  0.13100  0.27200  0.55900  1.0000
  I   I4        1.0  0.86900  0.77200  0.94100  1.0000
  Si  Si1       1.0  0.44300  0.42900  0.21100  1.0000
  Si  Si2       1.0  0.55700  0.92900  0.28900  1.0000
  Si  Si3       1.0  0.44300  0.07060  0.71100  1.0000
  Si  Si4       1.0  0.55700  0.57100  0.78900  1.0000
