data_image0
_chemical_formula_structural       Cl5Cs3Li2
_chemical_formula_sum              "Cl5 Cs3 Li2"
_cell_length_a       4.20096
_cell_length_b       5.80089
_cell_length_c       12.6371
_cell_angle_alpha    103.256
_cell_angle_beta     99.5509
_cell_angle_gamma    90.0726

_space_group_name_H-M_alt    "P 1"
_space_group_IT_number       1

loop_
  _space_group_symop_operation_xyz
  'x, y, z'

loop_
  _atom_site_type_symbol
  _atom_site_label
  _atom_site_symmetry_multiplicity
  _atom_site_fract_x
  _atom_site_fract_y
  _atom_site_fract_z
  _atom_site_occupancy
  Cl  Cl1       1.0  0.23800  0.49400  0.00000  1.0000
  Cl  Cl2       1.0  0.36500  0.11400  0.24000  1.0000
  Cl  Cl3       1.0  0.48700  0.79800  0.48200  1.0000
  Cl  Cl4       1.0  0.00469  0.31600  0.51800  1.0000
  Cl  Cl5       1.0  0.12500  0.87400  0.76000  1.0000
  Cs  Cs1       1.0  0.73900  0.99200  0.00000  1.0000
  Cs  Cs2       1.0  0.87100  0.61000  0.25000  1.0000
  Cs  Cs3       1.0  0.62200  0.36100  0.75000  1.0000
  Li  Li1       1.0  0.46100  0.17200  0.43200  1.0000
  Li  Li2       1.0  0.02920  0.74000  0.56800  1.0000
