data_image0
_chemical_formula_structural       Cl5Cs2Li3
_chemical_formula_sum              "Cl5 Cs2 Li3"
_cell_length_a       4.67113
_cell_length_b       5.12668
_cell_length_c       11.7059
_cell_angle_alpha    102.649
_cell_angle_beta     101.509
_cell_angle_gamma    90

_space_group_name_H-M_alt    "P 1"
_space_group_IT_number       1

loop_
  _space_group_symop_operation_xyz
  'x, y, z'

loop_
  _atom_site_type_symbol
  _atom_site_label
  _atom_site_symmetry_multiplicity
  _atom_site_fract_x
  _atom_site_fract_y
  _atom_site_fract_z
  _atom_site_occupancy
  Cl  Cl1       1.0  0.50000  0.99900  0.00000  1.0000
  Cl  Cl2       1.0  0.61000  0.60900  0.21900  1.0000
  Cl  Cl3       1.0  0.74500  0.25100  0.49000  1.0000
  Cl  Cl4       1.0  0.25500  0.76100  0.51000  1.0000
  Cl  Cl5       1.0  0.39000  0.39000  0.78100  1.0000
  Cs  Cs1       1.0  0.11800  0.11700  0.23700  1.0000
  Cs  Cs2       1.0  0.88200  0.88000  0.76300  1.0000
  Li  Li1       1.0  0.50000  0.49300  0.00000  1.0000
  Li  Li2       1.0  0.71600  0.71200  0.43300  1.0000
  Li  Li3       1.0  0.28400  0.27900  0.56700  1.0000
