data_image0
_chemical_formula_structural       B8Ca4H8
_chemical_formula_sum              "B8 Ca4 H8"
_cell_length_a       16.5831
_cell_length_b       3.32414
_cell_length_c       3.55207
_cell_angle_alpha    90.3352
_cell_angle_beta     90.0401
_cell_angle_gamma    86.7199

_space_group_name_H-M_alt    "P 1"
_space_group_IT_number       1

loop_
  _space_group_symop_operation_xyz
  'x, y, z'

loop_
  _atom_site_type_symbol
  _atom_site_label
  _atom_site_symmetry_multiplicity
  _atom_site_fract_x
  _atom_site_fract_y
  _atom_site_fract_z
  _atom_site_occupancy
  B   B1        1.0  0.49300  0.25200  0.00106  1.0000
  B   B2        1.0  0.74600  0.11200  0.02100  1.0000
  B   B3        1.0  0.24600  0.11200  0.48000  1.0000
  B   B4        1.0  0.99300  0.25200  0.49900  1.0000
  B   B5        1.0  0.00742  0.74800  0.50100  1.0000
  B   B6        1.0  0.75400  0.88800  0.52000  1.0000
  B   B7        1.0  0.25400  0.88800  0.97900  1.0000
  B   B8        1.0  0.50700  0.74800  0.99900  1.0000
  Ca  Ca1       1.0  0.88600  0.79300  0.00869  1.0000
  Ca  Ca2       1.0  0.38600  0.79300  0.49200  1.0000
  Ca  Ca3       1.0  0.61400  0.20700  0.50800  1.0000
  Ca  Ca4       1.0  0.11400  0.20700  0.99100  1.0000
  H   H1        1.0  0.68700  0.35900  0.01700  1.0000
  H   H2        1.0  0.80600  0.32700  0.02750  1.0000
  H   H3        1.0  0.30600  0.32700  0.47300  1.0000
  H   H4        1.0  0.18700  0.35900  0.48300  1.0000
  H   H5        1.0  0.81300  0.64100  0.51700  1.0000
  H   H6        1.0  0.69400  0.67300  0.52700  1.0000
  H   H7        1.0  0.19400  0.67300  0.97200  1.0000
  H   H8        1.0  0.31300  0.64100  0.98300  1.0000
