data_image0
_chemical_formula_structural       Mg4Te2
_chemical_formula_sum              "Mg4 Te2"
_cell_length_a       3.46934
_cell_length_b       3.46933
_cell_length_c       15.5376
_cell_angle_alpha    90
_cell_angle_beta     90
_cell_angle_gamma    120

_space_group_name_H-M_alt    "P 1"
_space_group_IT_number       1

loop_
  _space_group_symop_operation_xyz
  'x, y, z'

loop_
  _atom_site_type_symbol
  _atom_site_label
  _atom_site_symmetry_multiplicity
  _atom_site_fract_x
  _atom_site_fract_y
  _atom_site_fract_z
  _atom_site_occupancy
  Mg  Mg1       1.0  0.00000  0.00000  0.00996  1.0000
  Mg  Mg2       1.0  0.66700  0.33300  0.16900  1.0000
  Mg  Mg3       1.0  0.00000  0.00000  0.33100  1.0000
  Mg  Mg4       1.0  0.66700  0.33300  0.49000  1.0000
  Te  Te1       1.0  0.00000  0.00000  0.62800  1.0000
  Te  Te2       1.0  0.66700  0.33300  0.87200  1.0000
