data_image0
_chemical_formula_structural       Ba2Br2H10O6
_chemical_formula_sum              "Ba2 Br2 H10 O6"
_cell_length_a       4.54837
_cell_length_b       4.54837
_cell_length_c       11.6948
_cell_angle_alpha    90
_cell_angle_beta     90
_cell_angle_gamma    90

_space_group_name_H-M_alt    "P 1"
_space_group_IT_number       1

loop_
  _space_group_symop_operation_xyz
  'x, y, z'

loop_
  _atom_site_type_symbol
  _atom_site_label
  _atom_site_symmetry_multiplicity
  _atom_site_fract_x
  _atom_site_fract_y
  _atom_site_fract_z
  _atom_site_occupancy
  Ba  Ba1       1.0  0.25000  0.25000  0.18800  1.0000
  Ba  Ba2       1.0  0.75000  0.75000  0.81200  1.0000
  Br  Br1       1.0  0.75000  0.75000  0.09490  1.0000
  Br  Br2       1.0  0.25000  0.25000  0.90500  1.0000
  H   H1        1.0  0.75000  0.06760  0.37400  1.0000
  H   H2        1.0  0.75000  0.43200  0.37400  1.0000
  H   H3        1.0  0.06760  0.75000  0.37400  1.0000
  H   H4        1.0  0.43200  0.75000  0.37400  1.0000
  H   H5        1.0  0.25000  0.25000  0.48800  1.0000
  H   H6        1.0  0.75000  0.75000  0.51200  1.0000
  H   H7        1.0  0.56800  0.25000  0.62600  1.0000
  H   H8        1.0  0.93200  0.25000  0.62600  1.0000
  H   H9        1.0  0.25000  0.56800  0.62600  1.0000
  H   H10       1.0  0.25000  0.93200  0.62600  1.0000
  O   O1        1.0  0.75000  0.25000  0.32300  1.0000
  O   O2        1.0  0.25000  0.75000  0.32300  1.0000
  O   O3        1.0  0.75000  0.75000  0.42900  1.0000
  O   O4        1.0  0.25000  0.25000  0.57100  1.0000
  O   O5        1.0  0.75000  0.25000  0.67700  1.0000
  O   O6        1.0  0.25000  0.75000  0.67700  1.0000
