data_image0
_chemical_formula_structural       Li4Sb4Sr3
_chemical_formula_sum              "Li4 Sb4 Sr3"
_cell_length_a       4.81988
_cell_length_b       7.47648
_cell_length_c       9.07034
_cell_angle_alpha    114.339
_cell_angle_beta     105.408
_cell_angle_gamma    90

_space_group_name_H-M_alt    "P 1"
_space_group_IT_number       1

loop_
  _space_group_symop_operation_xyz
  'x, y, z'

loop_
  _atom_site_type_symbol
  _atom_site_label
  _atom_site_symmetry_multiplicity
  _atom_site_fract_x
  _atom_site_fract_y
  _atom_site_fract_z
  _atom_site_occupancy
  Li  Li1       1.0  0.17500  0.36700  0.35000  1.0000
  Li  Li2       1.0  0.17500  0.98200  0.35000  1.0000
  Li  Li3       1.0  0.82500  0.01790  0.65000  1.0000
  Li  Li4       1.0  0.82500  0.63300  0.65000  1.0000
  Sb  Sb1       1.0  0.00000  0.30700  0.00000  1.0000
  Sb  Sb2       1.0  0.00000  0.69300  0.00000  1.0000
  Sb  Sb3       1.0  0.71400  0.21400  0.42800  1.0000
  Sb  Sb4       1.0  0.28600  0.78600  0.57200  1.0000
  Sr  Sr1       1.0  0.50000  0.00000  0.00000  1.0000
  Sr  Sr2       1.0  0.63100  0.63100  0.26100  1.0000
  Sr  Sr3       1.0  0.36900  0.36900  0.73900  1.0000
