data_image0
_chemical_formula_structural       H10N2O6Se2
_chemical_formula_sum              "H10 N2 O6 Se2"
_cell_length_a       4.90904
_cell_length_b       5.83704
_cell_length_c       6.62386
_cell_angle_alpha    70.1295
_cell_angle_beta     72.2824
_cell_angle_gamma    89.6609

_space_group_name_H-M_alt    "P 1"
_space_group_IT_number       1

loop_
  _space_group_symop_operation_xyz
  'x, y, z'

loop_
  _atom_site_type_symbol
  _atom_site_label
  _atom_site_symmetry_multiplicity
  _atom_site_fract_x
  _atom_site_fract_y
  _atom_site_fract_z
  _atom_site_occupancy
  H   H1        1.0  0.39500  0.30200  0.17200  1.0000
  H   H2        1.0  0.52600  0.02930  0.26400  1.0000
  H   H3        1.0  0.17500  0.03710  0.26800  1.0000
  H   H4        1.0  0.26400  0.59800  0.44800  1.0000
  H   H5        1.0  0.28100  0.13400  0.44900  1.0000
  H   H6        1.0  0.71900  0.86600  0.55100  1.0000
  H   H7        1.0  0.73600  0.40200  0.55200  1.0000
  H   H8        1.0  0.82500  0.96300  0.73200  1.0000
  H   H9        1.0  0.47400  0.97100  0.73600  1.0000
  H   H10       1.0  0.60500  0.69800  0.82800  1.0000
  N   N1        1.0  0.34500  0.12500  0.28700  1.0000
  N   N2        1.0  0.65500  0.87500  0.71300  1.0000
  O   O1        1.0  0.29000  0.63700  0.18700  1.0000
  O   O2        1.0  0.84900  0.89700  0.26700  1.0000
  O   O3        1.0  0.75700  0.39400  0.39500  1.0000
  O   O4        1.0  0.24300  0.60600  0.60500  1.0000
  O   O5        1.0  0.15100  0.10300  0.73300  1.0000
  O   O6        1.0  0.71000  0.36300  0.81300  1.0000
  Se  Se1       1.0  0.95300  0.66500  0.16800  1.0000
  Se  Se2       1.0  0.04680  0.33500  0.83200  1.0000
