data_image0
_chemical_formula_structural       F8Ga2H8N2
_chemical_formula_sum              "F8 Ga2 H8 N2"
_cell_length_a       5.13513
_cell_length_b       5.13513
_cell_length_c       7.14504
_cell_angle_alpha    111.06
_cell_angle_beta     111.06
_cell_angle_gamma    90

_space_group_name_H-M_alt    "P 1"
_space_group_IT_number       1

loop_
  _space_group_symop_operation_xyz
  'x, y, z'

loop_
  _atom_site_type_symbol
  _atom_site_label
  _atom_site_symmetry_multiplicity
  _atom_site_fract_x
  _atom_site_fract_y
  _atom_site_fract_z
  _atom_site_occupancy
  F   F1        1.0  0.32900  0.17100  0.00000  1.0000
  F   F2        1.0  0.82900  0.32900  0.00000  1.0000
  F   F3        1.0  0.17100  0.67100  0.00000  1.0000
  F   F4        1.0  0.67100  0.82900  0.00000  1.0000
  F   F5        1.0  0.15000  0.15000  0.30000  1.0000
  F   F6        1.0  0.65000  0.65000  0.30000  1.0000
  F   F7        1.0  0.35000  0.35000  0.70000  1.0000
  F   F8        1.0  0.85000  0.85000  0.70000  1.0000
  Ga  Ga1       1.0  0.00000  0.00000  0.00000  1.0000
  Ga  Ga2       1.0  0.50000  0.50000  0.00000  1.0000
  H   H1        1.0  0.81600  0.08610  0.40200  1.0000
  H   H2        1.0  0.58600  0.31600  0.40200  1.0000
  H   H3        1.0  0.08610  0.58600  0.40200  1.0000
  H   H4        1.0  0.31600  0.81600  0.40200  1.0000
  H   H5        1.0  0.68400  0.18400  0.59800  1.0000
  H   H6        1.0  0.91400  0.41400  0.59800  1.0000
  H   H7        1.0  0.41400  0.68400  0.59800  1.0000
  H   H8        1.0  0.18400  0.91400  0.59800  1.0000
  N   N1        1.0  0.75000  0.25000  0.50000  1.0000
  N   N2        1.0  0.25000  0.75000  0.50000  1.0000
