data_image0
_chemical_formula_structural       F8Li2Yb2
_chemical_formula_sum              "F8 Li2 Yb2"
_cell_length_a       6.29268
_cell_length_b       5.06912
_cell_length_c       5.06912
_cell_angle_alpha    90
_cell_angle_beta     113.752
_cell_angle_gamma    113.752

_space_group_name_H-M_alt    "P 1"
_space_group_IT_number       1

loop_
  _space_group_symop_operation_xyz
  'x, y, z'

loop_
  _atom_site_type_symbol
  _atom_site_label
  _atom_site_symmetry_multiplicity
  _atom_site_fract_x
  _atom_site_fract_y
  _atom_site_fract_z
  _atom_site_occupancy
  F   F1        1.0  0.91800  0.22700  0.04360  1.0000
  F   F2        1.0  0.41800  0.37400  0.22700  1.0000
  F   F3        1.0  0.58200  0.95600  0.30900  1.0000
  F   F4        1.0  0.91800  0.69100  0.37400  1.0000
  F   F5        1.0  0.08220  0.30900  0.62600  1.0000
  F   F6        1.0  0.41800  0.04360  0.69100  1.0000
  F   F7        1.0  0.58200  0.62600  0.77300  1.0000
  F   F8        1.0  0.08220  0.77300  0.95600  1.0000
  Li  Li1       1.0  0.75000  0.87500  0.12500  1.0000
  Li  Li2       1.0  0.25000  0.12500  0.87500  1.0000
  Yb  Yb1       1.0  0.25000  0.62500  0.37500  1.0000
  Yb  Yb2       1.0  0.75000  0.37500  0.62500  1.0000
