data_image0
_chemical_formula_structural       H8N2O8Re2
_chemical_formula_sum              "H8 N2 O8 Re2"
_cell_length_a       5.83489
_cell_length_b       5.83489
_cell_length_c       7.35571
_cell_angle_alpha    113.367
_cell_angle_beta     113.367
_cell_angle_gamma    90

_space_group_name_H-M_alt    "P 1"
_space_group_IT_number       1

loop_
  _space_group_symop_operation_xyz
  'x, y, z'

loop_
  _atom_site_type_symbol
  _atom_site_label
  _atom_site_symmetry_multiplicity
  _atom_site_fract_x
  _atom_site_fract_y
  _atom_site_fract_z
  _atom_site_occupancy
  H   H1        1.0  0.41600  0.50300  0.10100  1.0000
  H   H2        1.0  0.68500  0.59800  0.10100  1.0000
  H   H3        1.0  0.56500  0.15200  0.39900  1.0000
  H   H4        1.0  0.83400  0.24700  0.39900  1.0000
  H   H5        1.0  0.84800  0.16600  0.60100  1.0000
  H   H6        1.0  0.75300  0.43500  0.60100  1.0000
  H   H7        1.0  0.49700  0.31500  0.89900  1.0000
  H   H8        1.0  0.40200  0.58400  0.89900  1.0000
  N   N1        1.0  0.50000  0.50000  0.00000  1.0000
  N   N2        1.0  0.75000  0.25000  0.50000  1.0000
  O   O1        1.0  0.87300  0.21300  0.16400  1.0000
  O   O2        1.0  0.29200  0.95100  0.16400  1.0000
  O   O3        1.0  0.37700  0.53700  0.33600  1.0000
  O   O4        1.0  0.95800  0.79900  0.33600  1.0000
  O   O5        1.0  0.46300  0.04160  0.66400  1.0000
  O   O6        1.0  0.20100  0.62300  0.66400  1.0000
  O   O7        1.0  0.04890  0.12700  0.83600  1.0000
  O   O8        1.0  0.78700  0.70800  0.83600  1.0000
  Re  Re1       1.0  0.00000  0.00000  0.00000  1.0000
  Re  Re2       1.0  0.25000  0.75000  0.50000  1.0000
