data_image0
_chemical_formula_structural       Li4O4Rb4
_chemical_formula_sum              "Li4 O4 Rb4"
_cell_length_a       6.53492
_cell_length_b       3.51411
_cell_length_c       8.8516
_cell_angle_alpha    90
_cell_angle_beta     90
_cell_angle_gamma    90

_space_group_name_H-M_alt    "P 1"
_space_group_IT_number       1

loop_
  _space_group_symop_operation_xyz
  'x, y, z'

loop_
  _atom_site_type_symbol
  _atom_site_label
  _atom_site_symmetry_multiplicity
  _atom_site_fract_x
  _atom_site_fract_y
  _atom_site_fract_z
  _atom_site_occupancy
  Li  Li1       1.0  0.60400  0.25000  0.00165  1.0000
  Li  Li2       1.0  0.10400  0.25000  0.49800  1.0000
  Li  Li3       1.0  0.89600  0.75000  0.50200  1.0000
  Li  Li4       1.0  0.39600  0.75000  0.99800  1.0000
  O   O1        1.0  0.68900  0.75000  0.04820  1.0000
  O   O2        1.0  0.18900  0.75000  0.45200  1.0000
  O   O3        1.0  0.81100  0.25000  0.54800  1.0000
  O   O4        1.0  0.31100  0.25000  0.95200  1.0000
  Rb  Rb1       1.0  0.99600  0.25000  0.18000  1.0000
  Rb  Rb2       1.0  0.49600  0.25000  0.32000  1.0000
  Rb  Rb3       1.0  0.50400  0.75000  0.68000  1.0000
  Rb  Rb4       1.0  0.00360  0.75000  0.82000  1.0000
