data_image0
_chemical_formula_structural       H4O10Si2Zn4
_chemical_formula_sum              "H4 O10 Si2 Zn4"
_cell_length_a       5.02818
_cell_length_b       7.27252
_cell_length_c       7.27252
_cell_angle_alpha    95.3808
_cell_angle_beta     110.224
_cell_angle_gamma    110.224

_space_group_name_H-M_alt    "P 1"
_space_group_IT_number       1

loop_
  _space_group_symop_operation_xyz
  'x, y, z'

loop_
  _atom_site_type_symbol
  _atom_site_label
  _atom_site_symmetry_multiplicity
  _atom_site_fract_x
  _atom_site_fract_y
  _atom_site_fract_z
  _atom_site_occupancy
  H   H1        1.0  0.60200  0.38100  0.38100  1.0000
  H   H2        1.0  0.10700  0.41100  0.41100  1.0000
  H   H3        1.0  0.28600  0.58900  0.58900  1.0000
  H   H4        1.0  0.83900  0.61900  0.61900  1.0000
  O   O1        1.0  0.62400  0.00000  0.00000  1.0000
  O   O2        1.0  0.48900  0.63400  0.04130  1.0000
  O   O3        1.0  0.20600  0.83800  0.16200  1.0000
  O   O4        1.0  0.37500  0.31500  0.31500  1.0000
  O   O5        1.0  0.81500  0.95900  0.36600  1.0000
  O   O6        1.0  0.06940  0.50000  0.50000  1.0000
  O   O7        1.0  0.48900  0.04130  0.63400  1.0000
  O   O8        1.0  0.74500  0.68500  0.68500  1.0000
  O   O9        1.0  0.20600  0.16200  0.83800  1.0000
  O   O10       1.0  0.81500  0.36600  0.95900  1.0000
  Si  Si1       1.0  0.52700  0.85500  0.14500  1.0000
  Si  Si2       1.0  0.52700  0.14500  0.85500  1.0000
  Zn  Zn1       1.0  0.22900  0.36600  0.04760  1.0000
  Zn  Zn2       1.0  0.22900  0.04760  0.36600  1.0000
  Zn  Zn3       1.0  0.81500  0.95200  0.63400  1.0000
  Zn  Zn4       1.0  0.81500  0.63400  0.95200  1.0000
