data_image0
_chemical_formula_structural       H4Li4O10Se2
_chemical_formula_sum              "H4 Li4 O10 Se2"
_cell_length_a       5.56066
_cell_length_b       4.87833
_cell_length_c       8.1864
_cell_angle_alpha    90
_cell_angle_beta     110.414
_cell_angle_gamma    90

_space_group_name_H-M_alt    "P 1"
_space_group_IT_number       1

loop_
  _space_group_symop_operation_xyz
  'x, y, z'

loop_
  _atom_site_type_symbol
  _atom_site_label
  _atom_site_symmetry_multiplicity
  _atom_site_fract_x
  _atom_site_fract_y
  _atom_site_fract_z
  _atom_site_occupancy
  H   H1        1.0  0.04290  0.35000  0.36800  1.0000
  H   H2        1.0  0.00549  0.04140  0.49700  1.0000
  H   H3        1.0  0.99500  0.54100  0.50300  1.0000
  H   H4        1.0  0.95700  0.85000  0.63200  1.0000
  Li  Li1       1.0  0.70100  0.49600  0.01000  1.0000
  Li  Li2       1.0  0.55900  0.97400  0.41300  1.0000
  Li  Li3       1.0  0.44100  0.47400  0.58700  1.0000
  Li  Li4       1.0  0.29900  0.99600  0.99000  1.0000
  O   O1        1.0  0.37900  0.38000  0.02370  1.0000
  O   O2        1.0  0.01440  0.36900  0.17000  1.0000
  O   O3        1.0  0.31800  0.82800  0.20700  1.0000
  O   O4        1.0  0.51900  0.36700  0.37900  1.0000
  O   O5        1.0  0.08750  0.36800  0.49800  1.0000
  O   O6        1.0  0.91300  0.86800  0.50200  1.0000
  O   O7        1.0  0.48100  0.86700  0.62100  1.0000
  O   O8        1.0  0.68200  0.32800  0.79300  1.0000
  O   O9        1.0  0.98600  0.86900  0.83000  1.0000
  O   O10       1.0  0.62100  0.88000  0.97600  1.0000
  Se  Se1       1.0  0.30600  0.48700  0.19300  1.0000
  Se  Se2       1.0  0.69400  0.98700  0.80700  1.0000
