data_image0
_chemical_formula_structural       C4CrH4KO10
_chemical_formula_sum              "C4 Cr1 H4 K1 O10"
_cell_length_a       4.74235
_cell_length_b       4.74235
_cell_length_c       9.69961
_cell_angle_alpha    92.6482
_cell_angle_beta     92.6482
_cell_angle_gamma    95.9197

_space_group_name_H-M_alt    "P 1"
_space_group_IT_number       1

loop_
  _space_group_symop_operation_xyz
  'x, y, z'

loop_
  _atom_site_type_symbol
  _atom_site_label
  _atom_site_symmetry_multiplicity
  _atom_site_fract_x
  _atom_site_fract_y
  _atom_site_fract_z
  _atom_site_occupancy
  C   C1        1.0  0.73700  0.51800  0.23800  1.0000
  C   C2        1.0  0.51800  0.73700  0.23800  1.0000
  C   C3        1.0  0.48200  0.26300  0.76200  1.0000
  C   C4        1.0  0.26300  0.48200  0.76200  1.0000
  Cr  Cr1       1.0  0.50000  0.50000  0.50000  1.0000
  H   H1        1.0  0.25400  0.01860  0.39500  1.0000
  H   H2        1.0  0.01860  0.25400  0.39500  1.0000
  H   H3        1.0  0.98100  0.74600  0.60500  1.0000
  H   H4        1.0  0.74600  0.98100  0.60500  1.0000
  K   K1        1.0  0.00000  0.00000  0.00000  1.0000
  O   O1        1.0  0.89300  0.49200  0.14200  1.0000
  O   O2        1.0  0.49200  0.89300  0.14200  1.0000
  O   O3        1.0  0.73900  0.37200  0.35000  1.0000
  O   O4        1.0  0.37200  0.73900  0.35000  1.0000
  O   O5        1.0  0.19500  0.19500  0.44300  1.0000
  O   O6        1.0  0.80500  0.80500  0.55700  1.0000
  O   O7        1.0  0.62800  0.26100  0.65000  1.0000
  O   O8        1.0  0.26100  0.62800  0.65000  1.0000
  O   O9        1.0  0.50800  0.10700  0.85800  1.0000
  O   O10       1.0  0.10700  0.50800  0.85800  1.0000
