data_image0
_chemical_formula_structural       Au2F8Li2
_chemical_formula_sum              "Au2 F8 Li2"
_cell_length_a       5.46771
_cell_length_b       4.98782
_cell_length_c       6.1878
_cell_angle_alpha    113.238
_cell_angle_beta     116.22
_cell_angle_gamma    90

_space_group_name_H-M_alt    "P 1"
_space_group_IT_number       1

loop_
  _space_group_symop_operation_xyz
  'x, y, z'

loop_
  _atom_site_type_symbol
  _atom_site_label
  _atom_site_symmetry_multiplicity
  _atom_site_fract_x
  _atom_site_fract_y
  _atom_site_fract_z
  _atom_site_occupancy
  Au  Au1       1.0  0.50000  0.00000  0.50000  1.0000
  Au  Au2       1.0  0.00000  0.50000  0.50000  1.0000
  F   F1        1.0  0.70900  0.58500  0.22200  1.0000
  F   F2        1.0  0.51300  0.08490  0.22200  1.0000
  F   F3        1.0  0.01290  0.13900  0.22400  1.0000
  F   F4        1.0  0.21200  0.63900  0.22400  1.0000
  F   F5        1.0  0.78800  0.36100  0.77600  1.0000
  F   F6        1.0  0.98700  0.86100  0.77600  1.0000
  F   F7        1.0  0.29100  0.41500  0.77800  1.0000
  F   F8        1.0  0.48700  0.91500  0.77800  1.0000
  Li  Li1       1.0  0.75200  0.75000  0.00000  1.0000
  Li  Li2       1.0  0.24800  0.25000  0.00000  1.0000
