data_image0
_chemical_formula_structural       Cl8Gd2Li2
_chemical_formula_sum              "Cl8 Gd2 Li2"
_cell_length_a       8.00063
_cell_length_b       6.45456
_cell_length_c       6.45456
_cell_angle_alpha    90
_cell_angle_beta     113.79
_cell_angle_gamma    113.79

_space_group_name_H-M_alt    "P 1"
_space_group_IT_number       1

loop_
  _space_group_symop_operation_xyz
  'x, y, z'

loop_
  _atom_site_type_symbol
  _atom_site_label
  _atom_site_symmetry_multiplicity
  _atom_site_fract_x
  _atom_site_fract_y
  _atom_site_fract_z
  _atom_site_occupancy
  Cl  Cl1       1.0  0.08940  0.32700  0.12400  1.0000
  Cl  Cl2       1.0  0.41100  0.03470  0.17300  1.0000
  Cl  Cl3       1.0  0.58900  0.62400  0.26200  1.0000
  Cl  Cl4       1.0  0.08940  0.76200  0.46500  1.0000
  Cl  Cl5       1.0  0.91100  0.23800  0.53500  1.0000
  Cl  Cl6       1.0  0.41100  0.37600  0.73800  1.0000
  Cl  Cl7       1.0  0.58900  0.96500  0.82700  1.0000
  Cl  Cl8       1.0  0.91100  0.67300  0.87600  1.0000
  Gd  Gd1       1.0  0.75000  0.37500  0.12500  1.0000
  Gd  Gd2       1.0  0.25000  0.62500  0.87500  1.0000
  Li  Li1       1.0  0.25000  0.12500  0.37500  1.0000
  Li  Li2       1.0  0.75000  0.87500  0.62500  1.0000
