data_image0
_chemical_formula_structural       Ba2H14Re2
_chemical_formula_sum              "Ba2 H14 Re2"
_cell_length_a       4.81553
_cell_length_b       9.88917
_cell_length_c       3.58201
_cell_angle_alpha    90
_cell_angle_beta     80.6132
_cell_angle_gamma    90

_space_group_name_H-M_alt    "P 1"
_space_group_IT_number       1

loop_
  _space_group_symop_operation_xyz
  'x, y, z'

loop_
  _atom_site_type_symbol
  _atom_site_label
  _atom_site_symmetry_multiplicity
  _atom_site_fract_x
  _atom_site_fract_y
  _atom_site_fract_z
  _atom_site_occupancy
  Ba  Ba1       1.0  0.00000  0.00000  0.00000  1.0000
  Ba  Ba2       1.0  0.00000  0.50000  0.00000  1.0000
  H   H1        1.0  0.64900  0.25000  0.02720  1.0000
  H   H2        1.0  0.74500  0.75000  0.06750  1.0000
  H   H3        1.0  0.38800  0.58300  0.39100  1.0000
  H   H4        1.0  0.38800  0.91700  0.39100  1.0000
  H   H5        1.0  0.27100  0.14700  0.45400  1.0000
  H   H6        1.0  0.27100  0.35300  0.45400  1.0000
  H   H7        1.0  0.11600  0.75000  0.49100  1.0000
  H   H8        1.0  0.88400  0.25000  0.50900  1.0000
  H   H9        1.0  0.72900  0.64700  0.54600  1.0000
  H   H10       1.0  0.72900  0.85300  0.54600  1.0000
  H   H11       1.0  0.61200  0.08280  0.60900  1.0000
  H   H12       1.0  0.61200  0.41700  0.60900  1.0000
  H   H13       1.0  0.25500  0.25000  0.93300  1.0000
  H   H14       1.0  0.35100  0.75000  0.97300  1.0000
  Re  Re1       1.0  0.47500  0.75000  0.42700  1.0000
  Re  Re2       1.0  0.52500  0.25000  0.57300  1.0000
