data_image0
_chemical_formula_structural       F8Li2Mn2
_chemical_formula_sum              "F8 Li2 Mn2"
_cell_length_a       5.25346
_cell_length_b       4.52485
_cell_length_c       5.58166
_cell_angle_alpha    89.9999
_cell_angle_beta     113.558
_cell_angle_gamma    90.0001

_space_group_name_H-M_alt    "P 1"
_space_group_IT_number       1

loop_
  _space_group_symop_operation_xyz
  'x, y, z'

loop_
  _atom_site_type_symbol
  _atom_site_label
  _atom_site_symmetry_multiplicity
  _atom_site_fract_x
  _atom_site_fract_y
  _atom_site_fract_z
  _atom_site_occupancy
  F   F1        1.0  0.84600  0.71200  0.14000  1.0000
  F   F2        1.0  0.33600  0.80800  0.14400  1.0000
  F   F3        1.0  0.66400  0.30800  0.35600  1.0000
  F   F4        1.0  0.15400  0.21200  0.36000  1.0000
  F   F5        1.0  0.84600  0.78800  0.64000  1.0000
  F   F6        1.0  0.33600  0.69200  0.64400  1.0000
  F   F7        1.0  0.66400  0.19200  0.85600  1.0000
  F   F8        1.0  0.15400  0.28800  0.86000  1.0000
  Li  Li1       1.0  0.50000  0.50000  0.00000  1.0000
  Li  Li2       1.0  0.50000  0.00000  0.50000  1.0000
  Mn  Mn1       1.0  0.00000  0.00000  0.00000  1.0000
  Mn  Mn2       1.0  0.00000  0.50000  0.50000  1.0000
