data_image0
_chemical_formula_structural       Cl6Cs4Li2
_chemical_formula_sum              "Cl6 Cs4 Li2"
_cell_length_a       4.25113
_cell_length_b       7.74828
_cell_length_c       11.8607
_cell_angle_alpha    90
_cell_angle_beta     79.6762
_cell_angle_gamma    90

_space_group_name_H-M_alt    "P 1"
_space_group_IT_number       1

loop_
  _space_group_symop_operation_xyz
  'x, y, z'

loop_
  _atom_site_type_symbol
  _atom_site_label
  _atom_site_symmetry_multiplicity
  _atom_site_fract_x
  _atom_site_fract_y
  _atom_site_fract_z
  _atom_site_occupancy
  Cl  Cl1       1.0  0.41100  0.00019  0.17800  1.0000
  Cl  Cl2       1.0  0.41100  0.50000  0.17800  1.0000
  Cl  Cl3       1.0  0.79800  0.75000  0.40500  1.0000
  Cl  Cl4       1.0  0.20200  0.25000  0.59500  1.0000
  Cl  Cl5       1.0  0.58900  0.50000  0.82200  1.0000
  Cl  Cl6       1.0  0.58900  0.00000  0.82200  1.0000
  Cs  Cs1       1.0  0.99600  0.75000  0.00892  1.0000
  Cs  Cs2       1.0  0.82200  0.25000  0.35700  1.0000
  Cs  Cs3       1.0  0.17800  0.75000  0.64300  1.0000
  Cs  Cs4       1.0  0.00446  0.25000  0.99100  1.0000
  Li  Li1       1.0  0.35100  0.75000  0.29700  1.0000
  Li  Li2       1.0  0.64900  0.25000  0.70300  1.0000
