data_image0
_chemical_formula_structural       F8Li2Sc2
_chemical_formula_sum              "F8 Li2 Sc2"
_cell_length_a       4.91683
_cell_length_b       4.91683
_cell_length_c       6.06415
_cell_angle_alpha    113.916
_cell_angle_beta     113.916
_cell_angle_gamma    90

_space_group_name_H-M_alt    "P 1"
_space_group_IT_number       1

loop_
  _space_group_symop_operation_xyz
  'x, y, z'

loop_
  _atom_site_type_symbol
  _atom_site_label
  _atom_site_symmetry_multiplicity
  _atom_site_fract_x
  _atom_site_fract_y
  _atom_site_fract_z
  _atom_site_occupancy
  F   F1        1.0  0.32900  0.12000  0.08770  1.0000
  F   F2        1.0  0.75900  0.46800  0.08770  1.0000
  F   F3        1.0  0.03250  0.17100  0.41200  1.0000
  F   F4        1.0  0.38000  0.74100  0.41200  1.0000
  F   F5        1.0  0.62000  0.25900  0.58800  1.0000
  F   F6        1.0  0.96800  0.82900  0.58800  1.0000
  F   F7        1.0  0.24100  0.53200  0.91200  1.0000
  F   F8        1.0  0.67100  0.88000  0.91200  1.0000
  Li  Li1       1.0  0.12500  0.37500  0.25000  1.0000
  Li  Li2       1.0  0.87500  0.62500  0.75000  1.0000
  Sc  Sc1       1.0  0.62500  0.87500  0.25000  1.0000
  Sc  Sc2       1.0  0.37500  0.12500  0.75000  1.0000
