data_image0
_chemical_formula_structural       AlH6K2Li
_chemical_formula_sum              "Al1 H6 K2 Li1"
_cell_length_a       5.42512
_cell_length_b       5.42588
_cell_length_c       5.42588
_cell_angle_alpha    120.008
_cell_angle_beta     60.0044
_cell_angle_gamma    119.996

_space_group_name_H-M_alt    "P 1"
_space_group_IT_number       1

loop_
  _space_group_symop_operation_xyz
  'x, y, z'

loop_
  _atom_site_type_symbol
  _atom_site_label
  _atom_site_symmetry_multiplicity
  _atom_site_fract_x
  _atom_site_fract_y
  _atom_site_fract_z
  _atom_site_occupancy
  Al  Al1       1.0  0.00000  0.00000  0.00000  1.0000
  H   H1        1.0  0.76900  0.76900  0.23100  1.0000
  H   H2        1.0  0.76900  0.23100  0.23100  1.0000
  H   H3        1.0  0.23100  0.23100  0.23100  1.0000
  H   H4        1.0  0.76900  0.76900  0.76900  1.0000
  H   H5        1.0  0.23100  0.76900  0.76900  1.0000
  H   H6        1.0  0.23100  0.23100  0.76900  1.0000
  K   K1        1.0  0.25000  0.75000  0.25000  1.0000
  K   K2        1.0  0.75000  0.25000  0.75000  1.0000
  Li  Li1       1.0  0.50000  0.50000  0.50000  1.0000
