data_image0
_chemical_formula_structural       Au2Be
_chemical_formula_sum              "Au2 Be1"
_cell_length_a       2.94421
_cell_length_b       2.94421
_cell_length_c       5.47148
_cell_angle_alpha    105.608
_cell_angle_beta     105.608
_cell_angle_gamma    90

_space_group_name_H-M_alt    "P 1"
_space_group_IT_number       1

loop_
  _space_group_symop_operation_xyz
  'x, y, z'

loop_
  _atom_site_type_symbol
  _atom_site_label
  _atom_site_symmetry_multiplicity
  _atom_site_fract_x
  _atom_site_fract_y
  _atom_site_fract_z
  _atom_site_occupancy
  Au  Au1       1.0  0.64200  0.64200  0.28300  1.0000
  Au  Au2       1.0  0.35800  0.35800  0.71700  1.0000
  Be  Be1       1.0  0.00000  0.00000  0.00000  1.0000
