data_image0
_chemical_formula_structural       Mg4Sc2
_chemical_formula_sum              "Mg4 Sc2"
_cell_length_a       5.13804
_cell_length_b       5.5902
_cell_length_c       5.5902
_cell_angle_alpha    60
_cell_angle_beta     90
_cell_angle_gamma    90

_space_group_name_H-M_alt    "P 1"
_space_group_IT_number       1

loop_
  _space_group_symop_operation_xyz
  'x, y, z'

loop_
  _atom_site_type_symbol
  _atom_site_label
  _atom_site_symmetry_multiplicity
  _atom_site_fract_x
  _atom_site_fract_y
  _atom_site_fract_z
  _atom_site_occupancy
  Mg  Mg1       1.0  0.00000  0.00473  0.00000  1.0000
  Mg  Mg2       1.0  0.50000  0.33300  0.00000  1.0000
  Mg  Mg3       1.0  0.00000  0.33300  0.32900  1.0000
  Mg  Mg4       1.0  0.00000  0.66200  0.67100  1.0000
  Sc  Sc1       1.0  0.50000  0.66700  0.33300  1.0000
  Sc  Sc2       1.0  0.50000  0.00000  0.66700  1.0000
