data_image0
_chemical_formula_structural       F8Li2Lu2
_chemical_formula_sum              "F8 Li2 Lu2"
_cell_length_a       4.85567
_cell_length_b       5.03791
_cell_length_c       6.14236
_cell_angle_alpha    112.196
_cell_angle_beta     111.206
_cell_angle_gamma    94.6907

_space_group_name_H-M_alt    "P 1"
_space_group_IT_number       1

loop_
  _space_group_symop_operation_xyz
  'x, y, z'

loop_
  _atom_site_type_symbol
  _atom_site_label
  _atom_site_symmetry_multiplicity
  _atom_site_fract_x
  _atom_site_fract_y
  _atom_site_fract_z
  _atom_site_occupancy
  F   F1        1.0  0.09740  0.31300  0.07600  1.0000
  F   F2        1.0  0.47900  0.76300  0.07600  1.0000
  F   F3        1.0  0.19000  0.05340  0.41700  1.0000
  F   F4        1.0  0.72700  0.36400  0.41700  1.0000
  F   F5        1.0  0.27300  0.63600  0.58300  1.0000
  F   F6        1.0  0.81000  0.94700  0.58300  1.0000
  F   F7        1.0  0.52100  0.23700  0.92400  1.0000
  F   F8        1.0  0.90300  0.68700  0.92400  1.0000
  Li  Li1       1.0  0.35200  0.10200  0.20400  1.0000
  Li  Li2       1.0  0.64800  0.89800  0.79600  1.0000
  Lu  Lu1       1.0  0.87900  0.62900  0.25800  1.0000
  Lu  Lu2       1.0  0.12100  0.37100  0.74200  1.0000
