data_image0
_chemical_formula_structural       Li4Sb4Sr4
_chemical_formula_sum              "Li4 Sb4 Sr4"
_cell_length_a       8.03302
_cell_length_b       4.82834
_cell_length_c       8.44912
_cell_angle_alpha    90
_cell_angle_beta     90
_cell_angle_gamma    90

_space_group_name_H-M_alt    "P 1"
_space_group_IT_number       1

loop_
  _space_group_symop_operation_xyz
  'x, y, z'

loop_
  _atom_site_type_symbol
  _atom_site_label
  _atom_site_symmetry_multiplicity
  _atom_site_fract_x
  _atom_site_fract_y
  _atom_site_fract_z
  _atom_site_occupancy
  Li  Li1       1.0  0.84000  0.75000  0.07620  1.0000
  Li  Li2       1.0  0.34000  0.75000  0.42400  1.0000
  Li  Li3       1.0  0.66000  0.25000  0.57600  1.0000
  Li  Li4       1.0  0.16000  0.25000  0.92400  1.0000
  Sb  Sb1       1.0  0.22300  0.75000  0.09330  1.0000
  Sb  Sb2       1.0  0.72300  0.75000  0.40700  1.0000
  Sb  Sb3       1.0  0.27700  0.25000  0.59300  1.0000
  Sb  Sb4       1.0  0.77700  0.25000  0.90700  1.0000
  Sr  Sr1       1.0  0.50300  0.25000  0.20800  1.0000
  Sr  Sr2       1.0  0.00335  0.25000  0.29200  1.0000
  Sr  Sr3       1.0  0.99700  0.75000  0.70800  1.0000
  Sr  Sr4       1.0  0.49700  0.75000  0.79200  1.0000
