data_image0
_chemical_formula_structural       Cl2H12NiO6
_chemical_formula_sum              "Cl2 H12 Ni1 O6"
_cell_length_a       6.08549
_cell_length_b       6.08549
_cell_length_c       6.3647
_cell_angle_alpha    116.688
_cell_angle_beta     63.3124
_cell_angle_gamma    111.689

_space_group_name_H-M_alt    "P 1"
_space_group_IT_number       1

loop_
  _space_group_symop_operation_xyz
  'x, y, z'

loop_
  _atom_site_type_symbol
  _atom_site_label
  _atom_site_symmetry_multiplicity
  _atom_site_fract_x
  _atom_site_fract_y
  _atom_site_fract_z
  _atom_site_occupancy
  Cl  Cl1       1.0  0.72000  0.28000  0.17600  1.0000
  Cl  Cl2       1.0  0.28000  0.72000  0.82400  1.0000
  H   H1        1.0  0.26600  0.73400  0.15800  1.0000
  H   H2        1.0  0.33200  0.21400  0.23200  1.0000
  H   H3        1.0  0.78600  0.66800  0.23200  1.0000
  H   H4        1.0  0.20000  0.42200  0.28200  1.0000
  H   H5        1.0  0.57800  0.80000  0.28200  1.0000
  H   H6        1.0  0.17700  0.82300  0.45700  1.0000
  H   H7        1.0  0.82300  0.17700  0.54300  1.0000
  H   H8        1.0  0.42200  0.20000  0.71800  1.0000
  H   H9        1.0  0.80000  0.57800  0.71800  1.0000
  H   H10       1.0  0.21400  0.33200  0.76800  1.0000
  H   H11       1.0  0.66800  0.78600  0.76800  1.0000
  H   H12       1.0  0.73400  0.26600  0.84200  1.0000
  Ni  Ni1       1.0  0.00000  0.00000  0.00000  1.0000
  O   O1        1.0  0.16800  0.24000  0.26200  1.0000
  O   O2        1.0  0.76000  0.83200  0.26200  1.0000
  O   O3        1.0  0.28200  0.71800  0.29900  1.0000
  O   O4        1.0  0.71800  0.28200  0.70100  1.0000
  O   O5        1.0  0.24000  0.16800  0.73800  1.0000
  O   O6        1.0  0.83200  0.76000  0.73800  1.0000
