data_image0
_chemical_formula_structural       Br2H12Sr7
_chemical_formula_sum              "Br2 H12 Sr7"
_cell_length_a       9.95056
_cell_length_b       9.95055
_cell_length_c       3.98265
_cell_angle_alpha    90
_cell_angle_beta     90
_cell_angle_gamma    120

_space_group_name_H-M_alt    "P 1"
_space_group_IT_number       1

loop_
  _space_group_symop_operation_xyz
  'x, y, z'

loop_
  _atom_site_type_symbol
  _atom_site_label
  _atom_site_symmetry_multiplicity
  _atom_site_fract_x
  _atom_site_fract_y
  _atom_site_fract_z
  _atom_site_occupancy
  Br  Br1       1.0  0.00000  1.00000  0.00000  1.0000
  Br  Br2       1.0  0.33300  0.66700  0.50000  1.0000
  H   H1        1.0  0.39200  0.18100  0.00000  1.0000
  H   H2        1.0  0.81900  0.21100  0.00000  1.0000
  H   H3        1.0  0.30600  0.39500  0.00000  1.0000
  H   H4        1.0  0.78900  0.60800  0.00000  1.0000
  H   H5        1.0  0.09000  0.69400  0.00000  1.0000
  H   H6        1.0  0.60500  0.91000  0.00000  1.0000
  H   H7        1.0  0.55900  0.12000  0.50000  1.0000
  H   H8        1.0  0.05590  0.28200  0.50000  1.0000
  H   H9        1.0  0.88000  0.43900  0.50000  1.0000
  H   H10       1.0  0.56100  0.44100  0.50000  1.0000
  H   H11       1.0  0.71800  0.77400  0.50000  1.0000
  H   H12       1.0  0.22600  0.94400  0.50000  1.0000
  Sr  Sr1       1.0  0.66700  0.33300  0.00000  1.0000
  Sr  Sr2       1.0  0.07390  0.43300  0.00000  1.0000
  Sr  Sr3       1.0  0.56700  0.64100  0.00000  1.0000
  Sr  Sr4       1.0  0.35900  0.92600  0.00000  1.0000
  Sr  Sr5       1.0  0.77600  0.05030  0.50000  1.0000
  Sr  Sr6       1.0  0.27500  0.22400  0.50000  1.0000
  Sr  Sr7       1.0  0.95000  0.72500  0.50000  1.0000
