data_image0
_chemical_formula_structural       C4CuH4Na2O10
_chemical_formula_sum              "C4 Cu1 H4 Na2 O10"
_cell_length_a       7.36709
_cell_length_b       9.41985
_cell_length_c       3.41866
_cell_angle_alpha    80.717
_cell_angle_beta     103.977
_cell_angle_gamma    107.868

_space_group_name_H-M_alt    "P 1"
_space_group_IT_number       1

loop_
  _space_group_symop_operation_xyz
  'x, y, z'

loop_
  _atom_site_type_symbol
  _atom_site_label
  _atom_site_symmetry_multiplicity
  _atom_site_fract_x
  _atom_site_fract_y
  _atom_site_fract_z
  _atom_site_occupancy
  C   C1        1.0  0.22300  0.27800  0.18300  1.0000
  C   C2        1.0  0.02620  0.25700  0.29500  1.0000
  C   C3        1.0  0.97400  0.74300  0.70500  1.0000
  C   C4        1.0  0.77700  0.72200  0.81700  1.0000
  Cu  Cu1       1.0  0.00000  0.00000  0.00000  1.0000
  H   H1        1.0  0.67900  0.17100  0.01580  1.0000
  H   H2        1.0  0.53100  0.80400  0.06810  1.0000
  H   H3        1.0  0.46900  0.19600  0.93200  1.0000
  H   H4        1.0  0.32100  0.82900  0.98400  1.0000
  Na  Na1       1.0  0.69900  0.42300  0.38000  1.0000
  Na  Na2       1.0  0.30100  0.57700  0.62000  1.0000
  O   O1        1.0  0.24100  0.16300  0.04940  1.0000
  O   O2        1.0  0.39900  0.76000  0.12300  1.0000
  O   O3        1.0  0.35000  0.40000  0.22000  1.0000
  O   O4        1.0  0.90200  0.12600  0.24500  1.0000
  O   O5        1.0  0.99800  0.36100  0.43100  1.0000
  O   O6        1.0  0.00182  0.63900  0.56900  1.0000
  O   O7        1.0  0.09830  0.87400  0.75500  1.0000
  O   O8        1.0  0.65000  0.60000  0.78000  1.0000
  O   O9        1.0  0.60100  0.24000  0.87700  1.0000
  O   O10       1.0  0.75900  0.83700  0.95100  1.0000
