data_image0
_chemical_formula_structural       Cl2H12Sr7
_chemical_formula_sum              "Cl2 H12 Sr7"
_cell_length_a       9.89472
_cell_length_b       9.89471
_cell_length_c       3.91958
_cell_angle_alpha    90
_cell_angle_beta     90
_cell_angle_gamma    120

_space_group_name_H-M_alt    "P 1"
_space_group_IT_number       1

loop_
  _space_group_symop_operation_xyz
  'x, y, z'

loop_
  _atom_site_type_symbol
  _atom_site_label
  _atom_site_symmetry_multiplicity
  _atom_site_fract_x
  _atom_site_fract_y
  _atom_site_fract_z
  _atom_site_occupancy
  Cl  Cl1       1.0  0.00000  0.00000  0.00000  1.0000
  Cl  Cl2       1.0  0.33300  0.66700  0.50000  1.0000
  H   H1        1.0  0.39000  0.17700  0.00000  1.0000
  H   H2        1.0  0.82300  0.21400  0.00000  1.0000
  H   H3        1.0  0.30200  0.39300  0.00000  1.0000
  H   H4        1.0  0.78600  0.61000  0.00000  1.0000
  H   H5        1.0  0.09130  0.69800  0.00000  1.0000
  H   H6        1.0  0.60700  0.90900  0.00000  1.0000
  H   H7        1.0  0.56200  0.11700  0.50000  1.0000
  H   H8        1.0  0.05690  0.28400  0.50000  1.0000
  H   H9        1.0  0.55600  0.43800  0.50000  1.0000
  H   H10       1.0  0.88300  0.44400  0.50000  1.0000
  H   H11       1.0  0.71600  0.77300  0.50000  1.0000
  H   H12       1.0  0.22700  0.94300  0.50000  1.0000
  Sr  Sr1       1.0  0.66700  0.33300  0.00000  1.0000
  Sr  Sr2       1.0  0.07900  0.44000  0.00000  1.0000
  Sr  Sr3       1.0  0.56000  0.63900  0.00000  1.0000
  Sr  Sr4       1.0  0.36100  0.92100  0.00000  1.0000
  Sr  Sr5       1.0  0.78300  0.05100  0.50000  1.0000
  Sr  Sr6       1.0  0.26800  0.21700  0.50000  1.0000
  Sr  Sr7       1.0  0.94900  0.73200  0.50000  1.0000
