data_image0
_chemical_formula_structural       Cl8CrLi5
_chemical_formula_sum              "Cl8 Cr1 Li5"
_cell_length_a       6.19854
_cell_length_b       6.19854
_cell_length_c       7.18549
_cell_angle_alpha    90
_cell_angle_beta     90
_cell_angle_gamma    70.8025

_space_group_name_H-M_alt    "P 1"
_space_group_IT_number       1

loop_
  _space_group_symop_operation_xyz
  'x, y, z'

loop_
  _atom_site_type_symbol
  _atom_site_label
  _atom_site_symmetry_multiplicity
  _atom_site_fract_x
  _atom_site_fract_y
  _atom_site_fract_z
  _atom_site_occupancy
  Cl  Cl1       1.0  0.25100  0.25100  0.00000  1.0000
  Cl  Cl2       1.0  0.74900  0.74900  0.00000  1.0000
  Cl  Cl3       1.0  0.73200  0.26800  0.26800  1.0000
  Cl  Cl4       1.0  0.26800  0.73200  0.26800  1.0000
  Cl  Cl5       1.0  0.26600  0.26600  0.50000  1.0000
  Cl  Cl6       1.0  0.73400  0.73400  0.50000  1.0000
  Cl  Cl7       1.0  0.73200  0.26800  0.73200  1.0000
  Cl  Cl8       1.0  0.26800  0.73200  0.73200  1.0000
  Cr  Cr1       1.0  0.50000  0.50000  0.50000  1.0000
  Li  Li1       1.0  0.50000  0.50000  0.00000  1.0000
  Li  Li2       1.0  0.50000  0.00000  0.23400  1.0000
  Li  Li3       1.0  1.00000  0.50000  0.23400  1.0000
  Li  Li4       1.0  0.50000  0.00000  0.76600  1.0000
  Li  Li5       1.0  1.00000  0.50000  0.76600  1.0000
