data_image0
_chemical_formula_structural       F4H12Si4
_chemical_formula_sum              "F4 H12 Si4"
_cell_length_a       7.16025
_cell_length_b       7.09839
_cell_length_c       4.32042
_cell_angle_alpha    90
_cell_angle_beta     95.6233
_cell_angle_gamma    90

_space_group_name_H-M_alt    "P 1"
_space_group_IT_number       1

loop_
  _space_group_symop_operation_xyz
  'x, y, z'

loop_
  _atom_site_type_symbol
  _atom_site_label
  _atom_site_symmetry_multiplicity
  _atom_site_fract_x
  _atom_site_fract_y
  _atom_site_fract_z
  _atom_site_occupancy
  F   F1        1.0  0.89700  0.83900  0.00620  1.0000
  F   F2        1.0  0.60300  0.33900  0.49400  1.0000
  F   F3        1.0  0.39700  0.66100  0.50600  1.0000
  F   F4        1.0  0.10300  0.16100  0.99400  1.0000
  H   H1        1.0  0.76400  0.21800  0.02300  1.0000
  H   H2        1.0  0.37500  0.39600  0.03010  1.0000
  H   H3        1.0  0.44600  0.07160  0.21200  1.0000
  H   H4        1.0  0.05420  0.57200  0.28800  1.0000
  H   H5        1.0  0.12500  0.89600  0.47000  1.0000
  H   H6        1.0  0.73600  0.71800  0.47700  1.0000
  H   H7        1.0  0.26400  0.28200  0.52300  1.0000
  H   H8        1.0  0.87500  0.10400  0.53000  1.0000
  H   H9        1.0  0.94600  0.42800  0.71200  1.0000
  H   H10       1.0  0.55400  0.92800  0.78800  1.0000
  H   H11       1.0  0.62500  0.60400  0.97000  1.0000
  H   H12       1.0  0.23600  0.78200  0.97700  1.0000
  Si  Si1       1.0  0.09460  0.76800  0.20100  1.0000
  Si  Si2       1.0  0.40500  0.26800  0.29900  1.0000
  Si  Si3       1.0  0.59500  0.73200  0.70100  1.0000
  Si  Si4       1.0  0.90500  0.23200  0.79900  1.0000
