data_image0
_chemical_formula_structural       F8Li2Y2
_chemical_formula_sum              "F8 Li2 Y2"
_cell_length_a       5.07674
_cell_length_b       5.07674
_cell_length_c       6.41118
_cell_angle_alpha    113.324
_cell_angle_beta     113.324
_cell_angle_gamma    90

_space_group_name_H-M_alt    "P 1"
_space_group_IT_number       1

loop_
  _space_group_symop_operation_xyz
  'x, y, z'

loop_
  _atom_site_type_symbol
  _atom_site_label
  _atom_site_symmetry_multiplicity
  _atom_site_fract_x
  _atom_site_fract_y
  _atom_site_fract_z
  _atom_site_occupancy
  F   F1        1.0  0.80600  0.91900  0.16300  1.0000
  F   F2        1.0  0.35700  0.24400  0.16300  1.0000
  F   F3        1.0  0.89300  0.50600  0.33700  1.0000
  F   F4        1.0  0.44400  0.83100  0.33700  1.0000
  F   F5        1.0  0.49400  0.55600  0.66300  1.0000
  F   F6        1.0  0.16900  0.10700  0.66300  1.0000
  F   F7        1.0  0.75600  0.19400  0.83700  1.0000
  F   F8        1.0  0.08090  0.64300  0.83700  1.0000
  Li  Li1       1.0  0.00000  0.00000  0.00000  1.0000
  Li  Li2       1.0  0.25000  0.75000  0.50000  1.0000
  Y   Y1        1.0  0.50000  0.50000  0.00000  1.0000
  Y   Y2        1.0  0.75000  0.25000  0.50000  1.0000
