data_image0
_chemical_formula_structural       Cl4CrLi2
_chemical_formula_sum              "Cl4 Cr1 Li2"
_cell_length_a       3.74188
_cell_length_b       6.21254
_cell_length_c       6.21254
_cell_angle_alpha    107.281
_cell_angle_beta     92.623
_cell_angle_gamma    92.623

_space_group_name_H-M_alt    "P 1"
_space_group_IT_number       1

loop_
  _space_group_symop_operation_xyz
  'x, y, z'

loop_
  _atom_site_type_symbol
  _atom_site_label
  _atom_site_symmetry_multiplicity
  _atom_site_fract_x
  _atom_site_fract_y
  _atom_site_fract_z
  _atom_site_occupancy
  Cl  Cl1       1.0  0.00000  0.76100  0.23900  1.0000
  Cl  Cl2       1.0  0.45900  0.24400  0.24400  1.0000
  Cl  Cl3       1.0  0.54100  0.75600  0.75600  1.0000
  Cl  Cl4       1.0  0.00000  0.23900  0.76100  1.0000
  Cr  Cr1       1.0  0.00000  0.00000  0.00000  1.0000
  Li  Li1       1.0  0.50000  0.50000  0.00000  1.0000
  Li  Li2       1.0  0.50000  0.00000  0.50000  1.0000
