data_image0
_chemical_formula_structural       F8Li4Rb4
_chemical_formula_sum              "F8 Li4 Rb4"
_cell_length_a       5.69427
_cell_length_b       6.10046
_cell_length_c       7.65233
_cell_angle_alpha    92.7558
_cell_angle_beta     95.913
_cell_angle_gamma    62.1791

_space_group_name_H-M_alt    "P 1"
_space_group_IT_number       1

loop_
  _space_group_symop_operation_xyz
  'x, y, z'

loop_
  _atom_site_type_symbol
  _atom_site_label
  _atom_site_symmetry_multiplicity
  _atom_site_fract_x
  _atom_site_fract_y
  _atom_site_fract_z
  _atom_site_occupancy
  F   F1        1.0  0.15500  0.27300  0.08870  1.0000
  F   F2        1.0  0.68100  0.63900  0.25000  1.0000
  F   F3        1.0  0.10800  0.78400  0.25000  1.0000
  F   F4        1.0  0.57200  0.27300  0.41100  1.0000
  F   F5        1.0  0.42800  0.72700  0.58900  1.0000
  F   F6        1.0  0.31900  0.36100  0.75000  1.0000
  F   F7        1.0  0.89200  0.21600  0.75000  1.0000
  F   F8        1.0  0.84500  0.72700  0.91100  1.0000
  Li  Li1       1.0  0.95700  0.60700  0.13900  1.0000
  Li  Li2       1.0  0.43600  0.60700  0.36100  1.0000
  Li  Li3       1.0  0.56400  0.39300  0.63900  1.0000
  Li  Li4       1.0  0.04340  0.39300  0.86100  1.0000
  Rb  Rb1       1.0  0.67500  0.18400  0.06720  1.0000
  Rb  Rb2       1.0  0.14100  0.18400  0.43300  1.0000
  Rb  Rb3       1.0  0.85900  0.81600  0.56700  1.0000
  Rb  Rb4       1.0  0.32500  0.81600  0.93300  1.0000
