data_image0
_chemical_formula_structural       Cl8Cs2Li6
_chemical_formula_sum              "Cl8 Cs2 Li6"
_cell_length_a       4.74007
_cell_length_b       5.0021
_cell_length_c       15.3266
_cell_angle_alpha    90
_cell_angle_beta     81.1043
_cell_angle_gamma    90

_space_group_name_H-M_alt    "P 1"
_space_group_IT_number       1

loop_
  _space_group_symop_operation_xyz
  'x, y, z'

loop_
  _atom_site_type_symbol
  _atom_site_label
  _atom_site_symmetry_multiplicity
  _atom_site_fract_x
  _atom_site_fract_y
  _atom_site_fract_z
  _atom_site_occupancy
  Cl  Cl1       1.0  0.45300  0.25000  0.09360  1.0000
  Cl  Cl2       1.0  0.94400  0.75000  0.11200  1.0000
  Cl  Cl3       1.0  0.85100  0.25000  0.29700  1.0000
  Cl  Cl4       1.0  0.75300  0.75000  0.49500  1.0000
  Cl  Cl5       1.0  0.24700  0.25000  0.50500  1.0000
  Cl  Cl6       1.0  0.14900  0.75000  0.70300  1.0000
  Cl  Cl7       1.0  0.05610  0.25000  0.88800  1.0000
  Cl  Cl8       1.0  0.54700  0.75000  0.90600  1.0000
  Cs  Cs1       1.0  0.34900  0.75000  0.30300  1.0000
  Cs  Cs2       1.0  0.65100  0.25000  0.69700  1.0000
  Li  Li1       1.0  0.46900  0.75000  0.06280  1.0000
  Li  Li2       1.0  0.93100  0.25000  0.13800  1.0000
  Li  Li3       1.0  0.77400  0.25000  0.45200  1.0000
  Li  Li4       1.0  0.22600  0.75000  0.54800  1.0000
  Li  Li5       1.0  0.06900  0.75000  0.86200  1.0000
  Li  Li6       1.0  0.53100  0.25000  0.93700  1.0000
