data_image0
_chemical_formula_structural       Cs4F8Li4
_chemical_formula_sum              "Cs4 F8 Li4"
_cell_length_a       5.88693
_cell_length_b       6.33638
_cell_length_c       7.98801
_cell_angle_alpha    90.6089
_cell_angle_beta     91.3109
_cell_angle_gamma    62.3199

_space_group_name_H-M_alt    "P 1"
_space_group_IT_number       1

loop_
  _space_group_symop_operation_xyz
  'x, y, z'

loop_
  _atom_site_type_symbol
  _atom_site_label
  _atom_site_symmetry_multiplicity
  _atom_site_fract_x
  _atom_site_fract_y
  _atom_site_fract_z
  _atom_site_occupancy
  Cs  Cs1       1.0  0.66300  0.18200  0.07140  1.0000
  Cs  Cs2       1.0  0.15500  0.18200  0.42900  1.0000
  Cs  Cs3       1.0  0.84500  0.81800  0.57100  1.0000
  Cs  Cs4       1.0  0.33700  0.81800  0.92900  1.0000
  F   F1        1.0  0.11700  0.28300  0.08170  1.0000
  F   F2        1.0  0.13600  0.72800  0.25000  1.0000
  F   F3        1.0  0.65100  0.69900  0.25000  1.0000
  F   F4        1.0  0.59900  0.28300  0.41800  1.0000
  F   F5        1.0  0.40100  0.71700  0.58200  1.0000
  F   F6        1.0  0.34900  0.30100  0.75000  1.0000
  F   F7        1.0  0.86400  0.27200  0.75000  1.0000
  F   F8        1.0  0.88300  0.71700  0.91800  1.0000
  Li  Li1       1.0  0.94800  0.60600  0.13900  1.0000
  Li  Li2       1.0  0.44600  0.60600  0.36100  1.0000
  Li  Li3       1.0  0.55400  0.39400  0.63900  1.0000
  Li  Li4       1.0  0.05150  0.39400  0.86100  1.0000
