data_image0
_chemical_formula_structural       Dy4Li4O8
_chemical_formula_sum              "Dy4 Li4 O8"
_cell_length_a       11.1391
_cell_length_b       3.36795
_cell_length_c       5.27106
_cell_angle_alpha    90
_cell_angle_beta     90
_cell_angle_gamma    90

_space_group_name_H-M_alt    "P 1"
_space_group_IT_number       1

loop_
  _space_group_symop_operation_xyz
  'x, y, z'

loop_
  _atom_site_type_symbol
  _atom_site_label
  _atom_site_symmetry_multiplicity
  _atom_site_fract_x
  _atom_site_fract_y
  _atom_site_fract_z
  _atom_site_occupancy
  Dy  Dy1       1.0  0.36000  0.25000  0.04760  1.0000
  Dy  Dy2       1.0  0.86000  0.25000  0.45200  1.0000
  Dy  Dy3       1.0  0.14000  0.75000  0.54800  1.0000
  Dy  Dy4       1.0  0.64000  0.75000  0.95200  1.0000
  Li  Li1       1.0  0.06640  0.25000  0.09840  1.0000
  Li  Li2       1.0  0.56600  0.25000  0.40200  1.0000
  Li  Li3       1.0  0.43400  0.75000  0.59800  1.0000
  Li  Li4       1.0  0.93400  0.75000  0.90200  1.0000
  O   O1        1.0  0.70600  0.25000  0.19000  1.0000
  O   O2        1.0  0.47400  0.75000  0.24300  1.0000
  O   O3        1.0  0.97400  0.75000  0.25700  1.0000
  O   O4        1.0  0.20600  0.25000  0.31000  1.0000
  O   O5        1.0  0.79400  0.75000  0.69000  1.0000
  O   O6        1.0  0.02550  0.25000  0.74300  1.0000
  O   O7        1.0  0.52600  0.25000  0.75700  1.0000
  O   O8        1.0  0.29400  0.75000  0.81000  1.0000
