data_image0
_chemical_formula_structural       H4Mn4O12S2
_chemical_formula_sum              "H4 Mn4 O12 S2"
_cell_length_a       6.09877
_cell_length_b       6.71721
_cell_length_c       6.71721
_cell_angle_alpha    67.2395
_cell_angle_beta     110.631
_cell_angle_gamma    110.631

_space_group_name_H-M_alt    "P 1"
_space_group_IT_number       1

loop_
  _space_group_symop_operation_xyz
  'x, y, z'

loop_
  _atom_site_type_symbol
  _atom_site_label
  _atom_site_symmetry_multiplicity
  _atom_site_fract_x
  _atom_site_fract_y
  _atom_site_fract_z
  _atom_site_occupancy
  H   H1        1.0  0.80800  0.77500  0.04840  1.0000
  H   H2        1.0  0.69200  0.95200  0.22500  1.0000
  H   H3        1.0  0.30800  0.04840  0.77500  1.0000
  H   H4        1.0  0.19200  0.22500  0.95200  1.0000
  Mn  Mn1       1.0  0.68300  0.34900  0.15300  1.0000
  Mn  Mn2       1.0  0.18300  0.15300  0.34900  1.0000
  Mn  Mn3       1.0  0.81700  0.84700  0.65100  1.0000
  Mn  Mn4       1.0  0.31700  0.65100  0.84700  1.0000
  O   O1        1.0  0.29700  0.31600  0.05040  1.0000
  O   O2        1.0  0.39700  0.75300  0.15200  1.0000
  O   O3        1.0  0.10300  0.84800  0.24700  1.0000
  O   O4        1.0  0.79700  0.05040  0.31600  1.0000
  O   O5        1.0  0.08510  0.46100  0.31800  1.0000
  O   O6        1.0  0.58500  0.31800  0.46100  1.0000
  O   O7        1.0  0.41500  0.68200  0.53900  1.0000
  O   O8        1.0  0.91500  0.53900  0.68200  1.0000
  O   O9        1.0  0.20300  0.95000  0.68400  1.0000
  O   O10       1.0  0.89700  0.15200  0.75300  1.0000
  O   O11       1.0  0.60300  0.24700  0.84800  1.0000
  O   O12       1.0  0.70300  0.68400  0.95000  1.0000
  S   S1        1.0  0.25000  0.68800  0.31200  1.0000
  S   S2        1.0  0.75000  0.31200  0.68800  1.0000
