data_image0
_chemical_formula_structural       H4O12Se4Sr2
_chemical_formula_sum              "H4 O12 Se4 Sr2"
_cell_length_a       5.8376
_cell_length_b       7.20805
_cell_length_c       7.61519
_cell_angle_alpha    96.4202
_cell_angle_beta     104.425
_cell_angle_gamma    106.268

_space_group_name_H-M_alt    "P 1"
_space_group_IT_number       1

loop_
  _space_group_symop_operation_xyz
  'x, y, z'

loop_
  _atom_site_type_symbol
  _atom_site_label
  _atom_site_symmetry_multiplicity
  _atom_site_fract_x
  _atom_site_fract_y
  _atom_site_fract_z
  _atom_site_occupancy
  H   H1        1.0  0.25500  0.96700  0.05610  1.0000
  H   H2        1.0  0.06550  0.95300  0.29800  1.0000
  H   H3        1.0  0.93400  0.04690  0.70200  1.0000
  H   H4        1.0  0.74500  0.03290  0.94400  1.0000
  O   O1        1.0  0.75400  0.13500  0.05040  1.0000
  O   O2        1.0  0.21900  0.13500  0.21200  1.0000
  O   O3        1.0  0.54400  0.54700  0.29400  1.0000
  O   O4        1.0  0.03060  0.41400  0.32300  1.0000
  O   O5        1.0  0.98200  0.82600  0.33400  1.0000
  O   O6        1.0  0.56100  0.91400  0.34800  1.0000
  O   O7        1.0  0.43900  0.08580  0.65200  1.0000
  O   O8        1.0  0.01790  0.17400  0.66600  1.0000
  O   O9        1.0  0.96900  0.58600  0.67700  1.0000
  O   O10       1.0  0.45600  0.45300  0.70600  1.0000
  O   O11       1.0  0.78100  0.86500  0.78800  1.0000
  O   O12       1.0  0.24600  0.86500  0.95000  1.0000
  Se  Se1       1.0  0.07420  0.30000  0.13600  1.0000
  Se  Se2       1.0  0.64700  0.75700  0.21700  1.0000
  Se  Se3       1.0  0.35300  0.24300  0.78300  1.0000
  Se  Se4       1.0  0.92600  0.70000  0.86400  1.0000
  Sr  Sr1       1.0  0.66700  0.28000  0.44700  1.0000
  Sr  Sr2       1.0  0.33300  0.72000  0.55300  1.0000
