data_image0
_chemical_formula_structural       F10Li4Mn2
_chemical_formula_sum              "F10 Li4 Mn2"
_cell_length_a       4.87714
_cell_length_b       5.38915
_cell_length_c       7.17847
_cell_angle_alpha    109.54
_cell_angle_beta     89.999
_cell_angle_gamma    116.904

_space_group_name_H-M_alt    "P 1"
_space_group_IT_number       1

loop_
  _space_group_symop_operation_xyz
  'x, y, z'

loop_
  _atom_site_type_symbol
  _atom_site_label
  _atom_site_symmetry_multiplicity
  _atom_site_fract_x
  _atom_site_fract_y
  _atom_site_fract_z
  _atom_site_occupancy
  F   F1        1.0  0.22600  0.81700  0.04430  1.0000
  F   F2        1.0  0.34100  0.36700  0.14600  1.0000
  F   F3        1.0  0.78300  0.00000  0.25000  1.0000
  F   F4        1.0  0.97400  0.63300  0.35400  1.0000
  F   F5        1.0  0.40900  0.18300  0.45600  1.0000
  F   F6        1.0  0.59100  0.81700  0.54400  1.0000
  F   F7        1.0  0.02580  0.36700  0.64600  1.0000
  F   F8        1.0  0.21700  0.00000  0.75000  1.0000
  F   F9        1.0  0.65900  0.63300  0.85400  1.0000
  F   F10       1.0  0.77400  0.18300  0.95600  1.0000
  Li  Li1       1.0  0.62600  0.26400  0.23500  1.0000
  Li  Li2       1.0  0.36200  0.73600  0.26500  1.0000
  Li  Li3       1.0  0.63800  0.26400  0.73500  1.0000
  Li  Li4       1.0  0.37400  0.73600  0.76500  1.0000
  Mn  Mn1       1.0  0.00000  0.00000  0.00000  1.0000
  Mn  Mn2       1.0  0.00000  0.00000  0.50000  1.0000
