data_image0
_chemical_formula_structural       H12Li8Ru2
_chemical_formula_sum              "H12 Li8 Ru2"
_cell_length_a       5.57649
_cell_length_b       5.57649
_cell_length_c       5.57649
_cell_angle_alpha    90.0371
_cell_angle_beta     90.0371
_cell_angle_gamma    90.0371

_space_group_name_H-M_alt    "P 1"
_space_group_IT_number       1

loop_
  _space_group_symop_operation_xyz
  'x, y, z'

loop_
  _atom_site_type_symbol
  _atom_site_label
  _atom_site_symmetry_multiplicity
  _atom_site_fract_x
  _atom_site_fract_y
  _atom_site_fract_z
  _atom_site_occupancy
  H   H1        1.0  0.70300  0.93800  0.05060  1.0000
  H   H2        1.0  0.94900  0.29700  0.06230  1.0000
  H   H3        1.0  0.55100  0.43800  0.20300  1.0000
  H   H4        1.0  0.06230  0.94900  0.29700  1.0000
  H   H5        1.0  0.20300  0.55100  0.43800  1.0000
  H   H6        1.0  0.56200  0.79700  0.44900  1.0000
  H   H7        1.0  0.43800  0.20300  0.55100  1.0000
  H   H8        1.0  0.79700  0.44900  0.56200  1.0000
  H   H9        1.0  0.93800  0.05060  0.70300  1.0000
  H   H10       1.0  0.44900  0.56200  0.79700  1.0000
  H   H11       1.0  0.05060  0.70300  0.93800  1.0000
  H   H12       1.0  0.29700  0.06230  0.94900  1.0000
  Li  Li1       1.0  0.38200  0.75000  0.11800  1.0000
  Li  Li2       1.0  0.25000  0.25000  0.25000  1.0000
  Li  Li3       1.0  0.88200  0.61800  0.25000  1.0000
  Li  Li4       1.0  0.75000  0.11800  0.38200  1.0000
  Li  Li5       1.0  0.25000  0.88200  0.61800  1.0000
  Li  Li6       1.0  0.11800  0.38200  0.75000  1.0000
  Li  Li7       1.0  0.75000  0.75000  0.75000  1.0000
  Li  Li8       1.0  0.61800  0.25000  0.88200  1.0000
  Ru  Ru1       1.0  0.00000  0.00000  0.00000  1.0000
  Ru  Ru2       1.0  0.50000  0.50000  0.50000  1.0000
