data_image0
_chemical_formula_structural       H8O8P4Sr2
_chemical_formula_sum              "H8 O8 P4 Sr2"
_cell_length_a       5.88032
_cell_length_b       5.91087
_cell_length_c       8.12318
_cell_angle_alpha    111.335
_cell_angle_beta     93.5971
_cell_angle_gamma    90

_space_group_name_H-M_alt    "P 1"
_space_group_IT_number       1

loop_
  _space_group_symop_operation_xyz
  'x, y, z'

loop_
  _atom_site_type_symbol
  _atom_site_label
  _atom_site_symmetry_multiplicity
  _atom_site_fract_x
  _atom_site_fract_y
  _atom_site_fract_z
  _atom_site_occupancy
  H   H1        1.0  0.91900  0.31400  0.40300  1.0000
  H   H2        1.0  0.41900  0.08890  0.40300  1.0000
  H   H3        1.0  0.65400  0.57800  0.40800  1.0000
  H   H4        1.0  0.15400  0.82900  0.40800  1.0000
  H   H5        1.0  0.34600  0.42200  0.59200  1.0000
  H   H6        1.0  0.84600  0.17100  0.59200  1.0000
  H   H7        1.0  0.58100  0.91100  0.59700  1.0000
  H   H8        1.0  0.08070  0.68600  0.59700  1.0000
  O   O1        1.0  0.61200  0.18400  0.17900  1.0000
  O   O2        1.0  0.11200  0.99500  0.17900  1.0000
  O   O3        1.0  0.42400  0.68600  0.18400  1.0000
  O   O4        1.0  0.92400  0.49800  0.18400  1.0000
  O   O5        1.0  0.57600  0.31400  0.81600  1.0000
  O   O6        1.0  0.07630  0.50200  0.81600  1.0000
  O   O7        1.0  0.88800  0.00519  0.82100  1.0000
  O   O8        1.0  0.38800  0.81600  0.82100  1.0000
  P   P1        1.0  0.77700  0.39100  0.28700  1.0000
  P   P2        1.0  0.27700  0.89600  0.28800  1.0000
  P   P3        1.0  0.72300  0.10400  0.71300  1.0000
  P   P4        1.0  0.22300  0.60900  0.71300  1.0000
  Sr  Sr1       1.0  0.25000  0.25100  0.00000  1.0000
  Sr  Sr2       1.0  0.75000  0.74900  0.00000  1.0000
