data_image0
_chemical_formula_structural       Cl10Li2Yb4
_chemical_formula_sum              "Cl10 Li2 Yb4"
_cell_length_a       6.46237
_cell_length_b       7.04351
_cell_length_c       8.18792
_cell_angle_alpha    95.055
_cell_angle_beta     113.243
_cell_angle_gamma    90

_space_group_name_H-M_alt    "P 1"
_space_group_IT_number       1

loop_
  _space_group_symop_operation_xyz
  'x, y, z'

loop_
  _atom_site_type_symbol
  _atom_site_label
  _atom_site_symmetry_multiplicity
  _atom_site_fract_x
  _atom_site_fract_y
  _atom_site_fract_z
  _atom_site_occupancy
  Cl  Cl1       1.0  0.93500  0.75000  0.00000  1.0000
  Cl  Cl2       1.0  0.06490  0.25000  0.00000  1.0000
  Cl  Cl3       1.0  0.47200  0.92400  0.18100  1.0000
  Cl  Cl4       1.0  0.70900  0.42400  0.18100  1.0000
  Cl  Cl5       1.0  0.14600  0.81700  0.43800  1.0000
  Cl  Cl6       1.0  0.29200  0.31700  0.43800  1.0000
  Cl  Cl7       1.0  0.70800  0.68300  0.56200  1.0000
  Cl  Cl8       1.0  0.85400  0.18300  0.56200  1.0000
  Cl  Cl9       1.0  0.29100  0.57600  0.81900  1.0000
  Cl  Cl10      1.0  0.52800  0.07560  0.81900  1.0000
  Li  Li1       1.0  0.00000  0.50000  0.50000  1.0000
  Li  Li2       1.0  0.50000  0.00000  0.50000  1.0000
  Yb  Yb1       1.0  0.33100  0.56900  0.20600  1.0000
  Yb  Yb2       1.0  0.87500  0.06940  0.20600  1.0000
  Yb  Yb3       1.0  0.12500  0.93100  0.79400  1.0000
  Yb  Yb4       1.0  0.66900  0.43100  0.79400  1.0000
