data_image0
_chemical_formula_structural       Cu6F8H4O4
_chemical_formula_sum              "Cu6 F8 H4 O4"
_cell_length_a       5.40066
_cell_length_b       4.6788
_cell_length_c       8.38216
_cell_angle_alpha    90
_cell_angle_beta     92.4649
_cell_angle_gamma    90

_space_group_name_H-M_alt    "P 1"
_space_group_IT_number       1

loop_
  _space_group_symop_operation_xyz
  'x, y, z'

loop_
  _atom_site_type_symbol
  _atom_site_label
  _atom_site_symmetry_multiplicity
  _atom_site_fract_x
  _atom_site_fract_y
  _atom_site_fract_z
  _atom_site_occupancy
  Cu  Cu1       1.0  0.00000  0.00000  0.00000  1.0000
  Cu  Cu2       1.0  0.50900  0.96300  0.17800  1.0000
  Cu  Cu3       1.0  0.99100  0.46300  0.32200  1.0000
  Cu  Cu4       1.0  0.50000  0.50000  0.50000  1.0000
  Cu  Cu5       1.0  0.00883  0.53700  0.67800  1.0000
  Cu  Cu6       1.0  0.49100  0.03720  0.82200  1.0000
  F   F1        1.0  0.81900  0.64500  0.14600  1.0000
  F   F2        1.0  0.14100  0.21100  0.17900  1.0000
  F   F3        1.0  0.35900  0.71100  0.32100  1.0000
  F   F4        1.0  0.68100  0.14500  0.35400  1.0000
  F   F5        1.0  0.31900  0.85500  0.64600  1.0000
  F   F6        1.0  0.64100  0.28900  0.67900  1.0000
  F   F7        1.0  0.85900  0.78900  0.82100  1.0000
  F   F8        1.0  0.18100  0.35500  0.85400  1.0000
  H   H1        1.0  0.71300  0.38100  0.03930  1.0000
  H   H2        1.0  0.78700  0.88100  0.46100  1.0000
  H   H3        1.0  0.21300  0.11900  0.53900  1.0000
  H   H4        1.0  0.28700  0.61900  0.96100  1.0000
  O   O1        1.0  0.68000  0.17500  0.01220  1.0000
  O   O2        1.0  0.82000  0.67500  0.48800  1.0000
  O   O3        1.0  0.18000  0.32500  0.51200  1.0000
  O   O4        1.0  0.32000  0.82500  0.98800  1.0000
