data_image0
_chemical_formula_structural       Br2H6Li8O6
_chemical_formula_sum              "Br2 H6 Li8 O6"
_cell_length_a       5.38362
_cell_length_b       7.45041
_cell_length_c       6.42461
_cell_angle_alpha    90
_cell_angle_beta     93.0107
_cell_angle_gamma    90

_space_group_name_H-M_alt    "P 1"
_space_group_IT_number       1

loop_
  _space_group_symop_operation_xyz
  'x, y, z'

loop_
  _atom_site_type_symbol
  _atom_site_label
  _atom_site_symmetry_multiplicity
  _atom_site_fract_x
  _atom_site_fract_y
  _atom_site_fract_z
  _atom_site_occupancy
  Br  Br1       1.0  0.16400  0.25000  0.33400  1.0000
  Br  Br2       1.0  0.83600  0.75000  0.66600  1.0000
  H   H1        1.0  0.81100  0.03620  0.23200  1.0000
  H   H2        1.0  0.81100  0.46400  0.23200  1.0000
  H   H3        1.0  0.16000  0.75000  0.37100  1.0000
  H   H4        1.0  0.84000  0.25000  0.62900  1.0000
  H   H5        1.0  0.18900  0.53600  0.76800  1.0000
  H   H6        1.0  0.18900  0.96400  0.76800  1.0000
  Li  Li1       1.0  0.93000  0.75000  0.07740  1.0000
  Li  Li2       1.0  0.34900  0.51900  0.13800  1.0000
  Li  Li3       1.0  0.34900  0.98100  0.13800  1.0000
  Li  Li4       1.0  0.60200  0.75000  0.31700  1.0000
  Li  Li5       1.0  0.39800  0.25000  0.68300  1.0000
  Li  Li6       1.0  0.65100  0.01890  0.86200  1.0000
  Li  Li7       1.0  0.65100  0.48100  0.86200  1.0000
  Li  Li8       1.0  0.07050  0.25000  0.92300  1.0000
  O   O1        1.0  0.71200  0.55000  0.15000  1.0000
  O   O2        1.0  0.71200  0.95000  0.15000  1.0000
  O   O3        1.0  0.24500  0.75000  0.24000  1.0000
  O   O4        1.0  0.75500  0.25000  0.76000  1.0000
  O   O5        1.0  0.28800  0.05030  0.85000  1.0000
  O   O6        1.0  0.28800  0.45000  0.85000  1.0000
