data_image0
_chemical_formula_structural       Cl10Cr2Cs4H4O2
_chemical_formula_sum              "Cl10 Cr2 Cs4 H4 O2"
_cell_length_a       9.55264
_cell_length_b       7.44325
_cell_length_c       8.10742
_cell_angle_alpha    90
_cell_angle_beta     90
_cell_angle_gamma    112.929

_space_group_name_H-M_alt    "P 1"
_space_group_IT_number       1

loop_
  _space_group_symop_operation_xyz
  'x, y, z'

loop_
  _atom_site_type_symbol
  _atom_site_label
  _atom_site_symmetry_multiplicity
  _atom_site_fract_x
  _atom_site_fract_y
  _atom_site_fract_z
  _atom_site_occupancy
  Cl  Cl1       1.0  0.22300  0.33500  0.03890  1.0000
  Cl  Cl2       1.0  0.22300  0.88800  0.03890  1.0000
  Cl  Cl3       1.0  0.49800  0.24900  0.25000  1.0000
  Cl  Cl4       1.0  0.22300  0.33500  0.46100  1.0000
  Cl  Cl5       1.0  0.22300  0.88800  0.46100  1.0000
  Cl  Cl6       1.0  0.77700  0.11200  0.53900  1.0000
  Cl  Cl7       1.0  0.77700  0.66500  0.53900  1.0000
  Cl  Cl8       1.0  0.50200  0.75100  0.75000  1.0000
  Cl  Cl9       1.0  0.77700  0.11200  0.96100  1.0000
  Cl  Cl10      1.0  0.77700  0.66500  0.96100  1.0000
  Cr  Cr1       1.0  0.23200  0.11600  0.25000  1.0000
  Cr  Cr2       1.0  0.76800  0.88400  0.75000  1.0000
  Cs  Cs1       1.0  0.94500  0.47200  0.25000  1.0000
  Cs  Cs2       1.0  0.50400  0.75200  0.25000  1.0000
  Cs  Cs3       1.0  0.49600  0.24800  0.75000  1.0000
  Cs  Cs4       1.0  0.05540  0.52800  0.75000  1.0000
  H   H1        1.0  0.92800  0.96400  0.15100  1.0000
  H   H2        1.0  0.92800  0.96400  0.34900  1.0000
  H   H3        1.0  0.07220  0.03610  0.65100  1.0000
  H   H4        1.0  0.07220  0.03610  0.84900  1.0000
  O   O1        1.0  0.99200  0.99600  0.25000  1.0000
  O   O2        1.0  0.00790  0.00395  0.75000  1.0000
