data_image0
_chemical_formula_structural       Cl10Li2Tm4
_chemical_formula_sum              "Cl10 Li2 Tm4"
_cell_length_a       6.31967
_cell_length_b       7.1901
_cell_length_c       8.1871
_cell_angle_alpha    93.1288
_cell_angle_beta     112.703
_cell_angle_gamma    90

_space_group_name_H-M_alt    "P 1"
_space_group_IT_number       1

loop_
  _space_group_symop_operation_xyz
  'x, y, z'

loop_
  _atom_site_type_symbol
  _atom_site_label
  _atom_site_symmetry_multiplicity
  _atom_site_fract_x
  _atom_site_fract_y
  _atom_site_fract_z
  _atom_site_occupancy
  Cl  Cl1       1.0  0.88000  0.75000  0.00000  1.0000
  Cl  Cl2       1.0  0.12000  0.25000  0.00000  1.0000
  Cl  Cl3       1.0  0.49500  0.90300  0.18000  1.0000
  Cl  Cl4       1.0  0.68600  0.40300  0.18000  1.0000
  Cl  Cl5       1.0  0.26600  0.32800  0.40800  1.0000
  Cl  Cl6       1.0  0.14200  0.82800  0.40800  1.0000
  Cl  Cl7       1.0  0.73400  0.67200  0.59200  1.0000
  Cl  Cl8       1.0  0.85800  0.17200  0.59200  1.0000
  Cl  Cl9       1.0  0.50500  0.09730  0.82000  1.0000
  Cl  Cl10      1.0  0.31400  0.59700  0.82000  1.0000
  Li  Li1       1.0  0.00000  0.50000  0.50000  1.0000
  Li  Li2       1.0  0.50000  0.00000  0.50000  1.0000
  Tm  Tm1       1.0  0.88700  0.06870  0.15100  1.0000
  Tm  Tm2       1.0  0.26300  0.56900  0.15100  1.0000
  Tm  Tm3       1.0  0.73700  0.43100  0.84900  1.0000
  Tm  Tm4       1.0  0.11300  0.93100  0.84900  1.0000
