data_image0
_chemical_formula_structural       H8O8P4Pb2
_chemical_formula_sum              "H8 O8 P4 Pb2"
_cell_length_a       5.94754
_cell_length_b       6.00784
_cell_length_c       8.05976
_cell_angle_alpha    111.883
_cell_angle_beta     93.171
_cell_angle_gamma    90

_space_group_name_H-M_alt    "P 1"
_space_group_IT_number       1

loop_
  _space_group_symop_operation_xyz
  'x, y, z'

loop_
  _atom_site_type_symbol
  _atom_site_label
  _atom_site_symmetry_multiplicity
  _atom_site_fract_x
  _atom_site_fract_y
  _atom_site_fract_z
  _atom_site_occupancy
  H   H1        1.0  0.91100  0.31700  0.40800  1.0000
  H   H2        1.0  0.41100  0.09060  0.40800  1.0000
  H   H3        1.0  0.15000  0.83300  0.41400  1.0000
  H   H4        1.0  0.65000  0.58100  0.41400  1.0000
  H   H5        1.0  0.35000  0.41900  0.58600  1.0000
  H   H6        1.0  0.85000  0.16700  0.58600  1.0000
  H   H7        1.0  0.58900  0.90900  0.59200  1.0000
  H   H8        1.0  0.08920  0.68300  0.59200  1.0000
  O   O1        1.0  0.10600  0.99700  0.18500  1.0000
  O   O2        1.0  0.60600  0.18800  0.18500  1.0000
  O   O3        1.0  0.91800  0.49800  0.18900  1.0000
  O   O4        1.0  0.41800  0.69100  0.18900  1.0000
  O   O5        1.0  0.08240  0.50200  0.81100  1.0000
  O   O6        1.0  0.58200  0.30900  0.81100  1.0000
  O   O7        1.0  0.39400  0.81200  0.81500  1.0000
  O   O8        1.0  0.89400  0.00293  0.81500  1.0000
  P   P1        1.0  0.27100  0.89900  0.29300  1.0000
  P   P2        1.0  0.77100  0.39300  0.29300  1.0000
  P   P3        1.0  0.22900  0.60700  0.70700  1.0000
  P   P4        1.0  0.72900  0.10100  0.70700  1.0000
  Pb  Pb1       1.0  0.75000  0.74800  0.00000  1.0000
  Pb  Pb2       1.0  0.25000  0.25200  0.00000  1.0000
