data_image0
_chemical_formula_structural       Cs2F8Li6
_chemical_formula_sum              "Cs2 F8 Li6"
_cell_length_a       5.63153
_cell_length_b       5.63153
_cell_length_c       7.53576
_cell_angle_alpha    107.833
_cell_angle_beta     107.833
_cell_angle_gamma    58.4832

_space_group_name_H-M_alt    "P 1"
_space_group_IT_number       1

loop_
  _space_group_symop_operation_xyz
  'x, y, z'

loop_
  _atom_site_type_symbol
  _atom_site_label
  _atom_site_symmetry_multiplicity
  _atom_site_fract_x
  _atom_site_fract_y
  _atom_site_fract_z
  _atom_site_occupancy
  Cs  Cs1       1.0  0.67200  0.67200  0.27200  1.0000
  Cs  Cs2       1.0  0.32800  0.32800  0.72800  1.0000
  F   F1        1.0  0.63100  0.13600  0.12900  1.0000
  F   F2        1.0  0.13600  0.63100  0.12900  1.0000
  F   F3        1.0  0.19200  0.19200  0.28600  1.0000
  F   F4        1.0  0.75100  0.24900  0.50000  1.0000
  F   F5        1.0  0.24900  0.75100  0.50000  1.0000
  F   F6        1.0  0.80800  0.80800  0.71400  1.0000
  F   F7        1.0  0.86400  0.36900  0.87100  1.0000
  F   F8        1.0  0.36900  0.86400  0.87100  1.0000
  Li  Li1       1.0  0.20500  0.20500  0.03940  1.0000
  Li  Li2       1.0  0.00172  0.00172  0.30800  1.0000
  Li  Li3       1.0  0.39400  0.39400  0.32700  1.0000
  Li  Li4       1.0  0.60600  0.60600  0.67300  1.0000
  Li  Li5       1.0  0.99800  0.99800  0.69200  1.0000
  Li  Li6       1.0  0.79500  0.79500  0.96100  1.0000
