data_image0
_chemical_formula_structural       Cl10Dy4Li2
_chemical_formula_sum              "Cl10 Dy4 Li2"
_cell_length_a       6.38459
_cell_length_b       7.28344
_cell_length_c       8.24706
_cell_angle_alpha    93.7819
_cell_angle_beta     112.773
_cell_angle_gamma    90

_space_group_name_H-M_alt    "P 1"
_space_group_IT_number       1

loop_
  _space_group_symop_operation_xyz
  'x, y, z'

loop_
  _atom_site_type_symbol
  _atom_site_label
  _atom_site_symmetry_multiplicity
  _atom_site_fract_x
  _atom_site_fract_y
  _atom_site_fract_z
  _atom_site_occupancy
  Cl  Cl1       1.0  0.12100  0.25000  0.00000  1.0000
  Cl  Cl2       1.0  0.87900  0.75000  0.00000  1.0000
  Cl  Cl3       1.0  0.68600  0.40700  0.18000  1.0000
  Cl  Cl4       1.0  0.49400  0.90700  0.18000  1.0000
  Cl  Cl5       1.0  0.26400  0.32600  0.41200  1.0000
  Cl  Cl6       1.0  0.14800  0.82600  0.41200  1.0000
  Cl  Cl7       1.0  0.85200  0.17400  0.58800  1.0000
  Cl  Cl8       1.0  0.73600  0.67400  0.58800  1.0000
  Cl  Cl9       1.0  0.50600  0.09290  0.82000  1.0000
  Cl  Cl10      1.0  0.31400  0.59300  0.82000  1.0000
  Dy  Dy1       1.0  0.88900  0.07200  0.15400  1.0000
  Dy  Dy2       1.0  0.26600  0.57200  0.15400  1.0000
  Dy  Dy3       1.0  0.73400  0.42800  0.84600  1.0000
  Dy  Dy4       1.0  0.11100  0.92800  0.84600  1.0000
  Li  Li1       1.0  0.50000  0.00000  0.50000  1.0000
  Li  Li2       1.0  0.00000  0.50000  0.50000  1.0000
