data_image0
_chemical_formula_structural       Cs6F8Li2
_chemical_formula_sum              "Cs6 F8 Li2"
_cell_length_a       5.90693
_cell_length_b       7.39808
_cell_length_c       8.66261
_cell_angle_alpha    103.312
_cell_angle_beta     90
_cell_angle_gamma    113.529

_space_group_name_H-M_alt    "P 1"
_space_group_IT_number       1

loop_
  _space_group_symop_operation_xyz
  'x, y, z'

loop_
  _atom_site_type_symbol
  _atom_site_label
  _atom_site_symmetry_multiplicity
  _atom_site_fract_x
  _atom_site_fract_y
  _atom_site_fract_z
  _atom_site_occupancy
  Cs  Cs1       1.0  0.86700  0.73500  0.09640  1.0000
  Cs  Cs2       1.0  0.57200  0.14300  0.23300  1.0000
  Cs  Cs3       1.0  0.30800  0.61600  0.34900  1.0000
  Cs  Cs4       1.0  0.69200  0.38400  0.65100  1.0000
  Cs  Cs5       1.0  0.42800  0.85700  0.76700  1.0000
  Cs  Cs6       1.0  0.13300  0.26500  0.90400  1.0000
  F   F1        1.0  0.35500  0.71000  0.04620  1.0000
  F   F2        1.0  0.08740  0.17500  0.24000  1.0000
  F   F3        1.0  0.79300  0.58700  0.39300  1.0000
  F   F4        1.0  0.23700  0.00000  0.50000  1.0000
  F   F5        1.0  0.76300  0.00000  0.50000  1.0000
  F   F6        1.0  0.20700  0.41300  0.60700  1.0000
  F   F7        1.0  0.91300  0.82500  0.76000  1.0000
  F   F8        1.0  0.64500  0.29000  0.95400  1.0000
  Li  Li1       1.0  0.08120  0.16200  0.45600  1.0000
  Li  Li2       1.0  0.91900  0.83800  0.54400  1.0000
