data_image0
_chemical_formula_structural       Li4O8Sm4
_chemical_formula_sum              "Li4 O8 Sm4"
_cell_length_a       5.69173
_cell_length_b       6.01523
_cell_length_c       5.62332
_cell_angle_alpha    90
_cell_angle_beta     103.326
_cell_angle_gamma    90

_space_group_name_H-M_alt    "P 1"
_space_group_IT_number       1

loop_
  _space_group_symop_operation_xyz
  'x, y, z'

loop_
  _atom_site_type_symbol
  _atom_site_label
  _atom_site_symmetry_multiplicity
  _atom_site_fract_x
  _atom_site_fract_y
  _atom_site_fract_z
  _atom_site_occupancy
  Li  Li1       1.0  0.65700  0.14000  0.16000  1.0000
  Li  Li2       1.0  0.34300  0.64000  0.34000  1.0000
  Li  Li3       1.0  0.65700  0.36000  0.66000  1.0000
  Li  Li4       1.0  0.34300  0.86000  0.84000  1.0000
  O   O1        1.0  0.08410  0.76100  0.01750  1.0000
  O   O2        1.0  0.43000  0.36800  0.21300  1.0000
  O   O3        1.0  0.57000  0.86800  0.28700  1.0000
  O   O4        1.0  0.91600  0.26100  0.48300  1.0000
  O   O5        1.0  0.08410  0.73900  0.51700  1.0000
  O   O6        1.0  0.43000  0.13200  0.71300  1.0000
  O   O7        1.0  0.57000  0.63200  0.78700  1.0000
  O   O8        1.0  0.91600  0.23900  0.98300  1.0000
  Sm  Sm1       1.0  0.79900  0.56900  0.19400  1.0000
  Sm  Sm2       1.0  0.20100  0.06930  0.30600  1.0000
  Sm  Sm3       1.0  0.79900  0.93100  0.69400  1.0000
  Sm  Sm4       1.0  0.20100  0.43100  0.80600  1.0000
