data_image0
_chemical_formula_structural       F12Li4Ti2
_chemical_formula_sum              "F12 Li4 Ti2"
_cell_length_a       4.50784
_cell_length_b       4.50784
_cell_length_c       8.65447
_cell_angle_alpha    90
_cell_angle_beta     90
_cell_angle_gamma    90

_space_group_name_H-M_alt    "P 1"
_space_group_IT_number       1

loop_
  _space_group_symop_operation_xyz
  'x, y, z'

loop_
  _atom_site_type_symbol
  _atom_site_label
  _atom_site_symmetry_multiplicity
  _atom_site_fract_x
  _atom_site_fract_y
  _atom_site_fract_z
  _atom_site_occupancy
  F   F1        1.0  0.29400  0.29400  0.00000  1.0000
  F   F2        1.0  0.70600  0.70600  0.00000  1.0000
  F   F3        1.0  0.80100  0.19900  0.16000  1.0000
  F   F4        1.0  0.19900  0.80100  0.16000  1.0000
  F   F5        1.0  0.30100  0.30100  0.34000  1.0000
  F   F6        1.0  0.69900  0.69900  0.34000  1.0000
  F   F7        1.0  0.79400  0.20600  0.50000  1.0000
  F   F8        1.0  0.20600  0.79400  0.50000  1.0000
  F   F9        1.0  0.30100  0.30100  0.66000  1.0000
  F   F10       1.0  0.69900  0.69900  0.66000  1.0000
  F   F11       1.0  0.80100  0.19900  0.84000  1.0000
  F   F12       1.0  0.19900  0.80100  0.84000  1.0000
  Li  Li1       1.0  0.50000  0.50000  0.16300  1.0000
  Li  Li2       1.0  0.00000  0.00000  0.33700  1.0000
  Li  Li3       1.0  0.00000  0.00000  0.66300  1.0000
  Li  Li4       1.0  0.50000  0.50000  0.83700  1.0000
  Ti  Ti1       1.0  0.00000  0.00000  0.00000  1.0000
  Ti  Ti2       1.0  0.50000  0.50000  0.50000  1.0000
