data_image0
_chemical_formula_structural       Br10Dy4Li2
_chemical_formula_sum              "Br10 Dy4 Li2"
_cell_length_a       6.79447
_cell_length_b       7.76318
_cell_length_c       8.78944
_cell_angle_alpha    91.8994
_cell_angle_beta     112.738
_cell_angle_gamma    90

_space_group_name_H-M_alt    "P 1"
_space_group_IT_number       1

loop_
  _space_group_symop_operation_xyz
  'x, y, z'

loop_
  _atom_site_type_symbol
  _atom_site_label
  _atom_site_symmetry_multiplicity
  _atom_site_fract_x
  _atom_site_fract_y
  _atom_site_fract_z
  _atom_site_occupancy
  Br  Br1       1.0  0.87700  0.75000  0.00000  1.0000
  Br  Br2       1.0  0.12300  0.25000  0.00000  1.0000
  Br  Br3       1.0  0.49300  0.90100  0.18000  1.0000
  Br  Br4       1.0  0.68700  0.40100  0.18000  1.0000
  Br  Br5       1.0  0.14400  0.83600  0.41000  1.0000
  Br  Br6       1.0  0.26600  0.33600  0.41000  1.0000
  Br  Br7       1.0  0.73400  0.66400  0.59000  1.0000
  Br  Br8       1.0  0.85600  0.16400  0.59000  1.0000
  Br  Br9       1.0  0.31300  0.59900  0.82000  1.0000
  Br  Br10      1.0  0.50700  0.09880  0.82000  1.0000
  Dy  Dy1       1.0  0.88400  0.06940  0.14500  1.0000
  Dy  Dy2       1.0  0.26100  0.56900  0.14500  1.0000
  Dy  Dy3       1.0  0.11600  0.93100  0.85500  1.0000
  Dy  Dy4       1.0  0.73900  0.43100  0.85500  1.0000
  Li  Li1       1.0  0.00000  0.50000  0.50000  1.0000
  Li  Li2       1.0  0.50000  0.00000  0.50000  1.0000
