data_image0
_chemical_formula_structural       F12Li4Pd2
_chemical_formula_sum              "F12 Li4 Pd2"
_cell_length_a       9.89274
_cell_length_b       4.49811
_cell_length_c       4.49045
_cell_angle_alpha    90
_cell_angle_beta     116.866
_cell_angle_gamma    90

_space_group_name_H-M_alt    "P 1"
_space_group_IT_number       1

loop_
  _space_group_symop_operation_xyz
  'x, y, z'

loop_
  _atom_site_type_symbol
  _atom_site_label
  _atom_site_symmetry_multiplicity
  _atom_site_fract_x
  _atom_site_fract_y
  _atom_site_fract_z
  _atom_site_occupancy
  F   F1        1.0  0.83400  0.80200  0.03270  1.0000
  F   F2        1.0  0.33400  0.69800  0.03270  1.0000
  F   F3        1.0  0.50000  0.19700  0.30100  1.0000
  F   F4        1.0  0.00000  0.30300  0.30100  1.0000
  F   F5        1.0  0.16600  0.80200  0.36600  1.0000
  F   F6        1.0  0.66600  0.69800  0.36600  1.0000
  F   F7        1.0  0.33400  0.30200  0.63400  1.0000
  F   F8        1.0  0.83400  0.19800  0.63400  1.0000
  F   F9        1.0  0.00009  0.69700  0.69900  1.0000
  F   F10       1.0  0.50000  0.80300  0.69900  1.0000
  F   F11       1.0  0.66600  0.30200  0.96700  1.0000
  F   F12       1.0  0.16600  0.19800  0.96700  1.0000
  Li  Li1       1.0  0.33500  0.99800  0.33600  1.0000
  Li  Li2       1.0  0.83500  0.50200  0.33600  1.0000
  Li  Li3       1.0  0.16500  0.49800  0.66400  1.0000
  Li  Li4       1.0  0.66500  0.00178  0.66400  1.0000
  Pd  Pd1       1.0  0.00000  0.00000  0.00000  1.0000
  Pd  Pd2       1.0  0.50000  0.50000  0.00000  1.0000
