data_image0
_chemical_formula_structural       F12Li4Rh2
_chemical_formula_sum              "F12 Li4 Rh2"
_cell_length_a       4.49719
_cell_length_b       4.50114
_cell_length_c       9.91899
_cell_angle_alpha    90.0124
_cell_angle_beta     116.994
_cell_angle_gamma    89.9703

_space_group_name_H-M_alt    "P 1"
_space_group_IT_number       1

loop_
  _space_group_symop_operation_xyz
  'x, y, z'

loop_
  _atom_site_type_symbol
  _atom_site_label
  _atom_site_symmetry_multiplicity
  _atom_site_fract_x
  _atom_site_fract_y
  _atom_site_fract_z
  _atom_site_occupancy
  F   F1        1.0  0.70200  0.69800  0.00018  1.0000
  F   F2        1.0  0.36700  0.80100  0.16500  1.0000
  F   F3        1.0  0.96400  0.19900  0.16500  1.0000
  F   F4        1.0  0.03580  0.69900  0.33400  1.0000
  F   F5        1.0  0.63200  0.30100  0.33500  1.0000
  F   F6        1.0  0.29800  0.19800  0.50000  1.0000
  F   F7        1.0  0.70200  0.80200  0.50000  1.0000
  F   F8        1.0  0.36800  0.69900  0.66500  1.0000
  F   F9        1.0  0.96400  0.30100  0.66600  1.0000
  F   F10       1.0  0.03580  0.80100  0.83500  1.0000
  F   F11       1.0  0.63300  0.19900  0.83500  1.0000
  F   F12       1.0  0.29800  0.30200  0.00000  1.0000
  Li  Li1       1.0  0.66600  0.49900  0.16600  1.0000
  Li  Li2       1.0  0.33400  0.99900  0.33400  1.0000
  Li  Li3       1.0  0.66600  0.00139  0.66600  1.0000
  Li  Li4       1.0  0.33400  0.50100  0.83400  1.0000
  Rh  Rh1       1.0  0.00000  0.00000  0.00000  1.0000
  Rh  Rh2       1.0  0.00000  0.50000  0.50000  1.0000
