data_image0
_chemical_formula_structural       Be4H12Rb4
_chemical_formula_sum              "Be4 H12 Rb4"
_cell_length_a       7.06058
_cell_length_b       5.73714
_cell_length_c       9.07894
_cell_angle_alpha    90
_cell_angle_beta     105.264
_cell_angle_gamma    90

_space_group_name_H-M_alt    "P 1"
_space_group_IT_number       1

loop_
  _space_group_symop_operation_xyz
  'x, y, z'

loop_
  _atom_site_type_symbol
  _atom_site_label
  _atom_site_symmetry_multiplicity
  _atom_site_fract_x
  _atom_site_fract_y
  _atom_site_fract_z
  _atom_site_occupancy
  Be  Be1       1.0  0.74100  0.74700  0.00412  1.0000
  Be  Be2       1.0  0.25900  0.24700  0.49600  1.0000
  Be  Be3       1.0  0.74100  0.75300  0.50400  1.0000
  Be  Be4       1.0  0.25900  0.25300  0.99600  1.0000
  H   H1        1.0  0.75900  0.98900  0.02340  1.0000
  H   H2        1.0  0.86000  0.59900  0.11300  1.0000
  H   H3        1.0  0.38500  0.34700  0.12800  1.0000
  H   H4        1.0  0.61500  0.84700  0.37200  1.0000
  H   H5        1.0  0.14000  0.09940  0.38700  1.0000
  H   H6        1.0  0.24100  0.48900  0.47700  1.0000
  H   H7        1.0  0.75900  0.51100  0.52300  1.0000
  H   H8        1.0  0.86000  0.90100  0.61300  1.0000
  H   H9        1.0  0.38500  0.15300  0.62800  1.0000
  H   H10       1.0  0.61500  0.65300  0.87200  1.0000
  H   H11       1.0  0.14000  0.40100  0.88700  1.0000
  H   H12       1.0  0.24100  0.01120  0.97700  1.0000
  Rb  Rb1       1.0  0.24000  0.74600  0.22400  1.0000
  Rb  Rb2       1.0  0.76000  0.24600  0.27600  1.0000
  Rb  Rb3       1.0  0.24000  0.75400  0.72400  1.0000
  Rb  Rb4       1.0  0.76000  0.25400  0.77600  1.0000
