data_image0
_chemical_formula_structural       F12Li2V4
_chemical_formula_sum              "F12 Li2 V4"
_cell_length_a       4.5607
_cell_length_b       4.5607
_cell_length_c       9.12734
_cell_angle_alpha    90
_cell_angle_beta     90
_cell_angle_gamma    90.0012

_space_group_name_H-M_alt    "P 1"
_space_group_IT_number       1

loop_
  _space_group_symop_operation_xyz
  'x, y, z'

loop_
  _atom_site_type_symbol
  _atom_site_label
  _atom_site_symmetry_multiplicity
  _atom_site_fract_x
  _atom_site_fract_y
  _atom_site_fract_z
  _atom_site_occupancy
  F   F1        1.0  0.30000  0.30000  0.00000  1.0000
  F   F2        1.0  0.70000  0.70000  0.00000  1.0000
  F   F3        1.0  0.80300  0.19700  0.16500  1.0000
  F   F4        1.0  0.19700  0.80300  0.16500  1.0000
  F   F5        1.0  0.30300  0.30300  0.33500  1.0000
  F   F6        1.0  0.69700  0.69700  0.33500  1.0000
  F   F7        1.0  0.80000  0.20000  0.50000  1.0000
  F   F8        1.0  0.20000  0.80000  0.50000  1.0000
  F   F9        1.0  0.30300  0.30300  0.66500  1.0000
  F   F10       1.0  0.69700  0.69700  0.66500  1.0000
  F   F11       1.0  0.80300  0.19700  0.83500  1.0000
  F   F12       1.0  0.19700  0.80300  0.83500  1.0000
  Li  Li1       1.0  0.00000  0.00000  0.00000  1.0000
  Li  Li2       1.0  0.50000  0.50000  0.50000  1.0000
  V   V1        1.0  0.50000  0.50000  0.16800  1.0000
  V   V2        1.0  0.00000  0.00000  0.33200  1.0000
  V   V3        1.0  0.00000  0.00000  0.66800  1.0000
  V   V4        1.0  0.50000  0.50000  0.83200  1.0000
