data_image0
_chemical_formula_structural       Bi2Pb2Pd4
_chemical_formula_sum              "Bi2 Pb2 Pd4"
_cell_length_a       5.63519
_cell_length_b       5.70177
_cell_length_c       5.70177
_cell_angle_alpha    100.891
_cell_angle_beta     101.584
_cell_angle_gamma    101.584

_space_group_name_H-M_alt    "P 1"
_space_group_IT_number       1

loop_
  _space_group_symop_operation_xyz
  'x, y, z'

loop_
  _atom_site_type_symbol
  _atom_site_label
  _atom_site_symmetry_multiplicity
  _atom_site_fract_x
  _atom_site_fract_y
  _atom_site_fract_z
  _atom_site_occupancy
  Bi  Bi1       1.0  0.42600  0.94500  0.49600  1.0000
  Bi  Bi2       1.0  0.42600  0.49600  0.94500  1.0000
  Pb  Pb1       1.0  0.99200  0.35900  0.35900  1.0000
  Pb  Pb2       1.0  0.99200  0.87300  0.87300  1.0000
  Pd  Pd1       1.0  0.53600  0.03860  0.03860  1.0000
  Pd  Pd2       1.0  0.87100  0.82900  0.34200  1.0000
  Pd  Pd3       1.0  0.52300  0.44800  0.44800  1.0000
  Pd  Pd4       1.0  0.87100  0.34200  0.82900  1.0000
