data_image0
_chemical_formula_structural       Cr2F12Li4
_chemical_formula_sum              "Cr2 F12 Li4"
_cell_length_a       4.44593
_cell_length_b       4.44593
_cell_length_c       8.58375
_cell_angle_alpha    89.9999
_cell_angle_beta     89.9999
_cell_angle_gamma    90.0157

_space_group_name_H-M_alt    "P 1"
_space_group_IT_number       1

loop_
  _space_group_symop_operation_xyz
  'x, y, z'

loop_
  _atom_site_type_symbol
  _atom_site_label
  _atom_site_symmetry_multiplicity
  _atom_site_fract_x
  _atom_site_fract_y
  _atom_site_fract_z
  _atom_site_occupancy
  Cr  Cr1       1.0  0.50000  0.50000  0.00000  1.0000
  Cr  Cr2       1.0  0.00000  0.00000  0.50000  1.0000
  F   F1        1.0  0.21100  0.21100  0.00000  1.0000
  F   F2        1.0  0.78900  0.78900  0.00000  1.0000
  F   F3        1.0  0.69800  0.30200  0.15800  1.0000
  F   F4        1.0  0.30200  0.69800  0.15800  1.0000
  F   F5        1.0  0.19800  0.19800  0.34300  1.0000
  F   F6        1.0  0.80200  0.80200  0.34300  1.0000
  F   F7        1.0  0.71200  0.28800  0.50000  1.0000
  F   F8        1.0  0.28800  0.71200  0.50000  1.0000
  F   F9        1.0  0.19800  0.19800  0.65700  1.0000
  F   F10       1.0  0.80200  0.80200  0.65700  1.0000
  F   F11       1.0  0.69800  0.30200  0.84200  1.0000
  F   F12       1.0  0.30200  0.69800  0.84200  1.0000
  Li  Li1       1.0  0.00000  0.00000  0.16500  1.0000
  Li  Li2       1.0  0.50000  0.50000  0.33500  1.0000
  Li  Li3       1.0  0.50000  0.50000  0.66500  1.0000
  Li  Li4       1.0  0.00000  0.00000  0.83500  1.0000
