data_image0
_chemical_formula_structural       Li8O10Se2
_chemical_formula_sum              "Li8 O10 Se2"
_cell_length_a       5.19667
_cell_length_b       5.19667
_cell_length_c       7.79629
_cell_angle_alpha    96.7963
_cell_angle_beta     96.7963
_cell_angle_gamma    66.6633

_space_group_name_H-M_alt    "P 1"
_space_group_IT_number       1

loop_
  _space_group_symop_operation_xyz
  'x, y, z'

loop_
  _atom_site_type_symbol
  _atom_site_label
  _atom_site_symmetry_multiplicity
  _atom_site_fract_x
  _atom_site_fract_y
  _atom_site_fract_z
  _atom_site_occupancy
  Li  Li1       1.0  0.22200  0.56500  0.05840  1.0000
  Li  Li2       1.0  0.36400  0.03080  0.14500  1.0000
  Li  Li3       1.0  0.96900  0.63600  0.35500  1.0000
  Li  Li4       1.0  0.43500  0.77800  0.44200  1.0000
  Li  Li5       1.0  0.56500  0.22200  0.55800  1.0000
  Li  Li6       1.0  0.03080  0.36400  0.64500  1.0000
  Li  Li7       1.0  0.63600  0.96900  0.85500  1.0000
  Li  Li8       1.0  0.77800  0.43500  0.94200  1.0000
  O   O1        1.0  0.58700  0.23400  0.07080  1.0000
  O   O2        1.0  0.00817  0.35200  0.15900  1.0000
  O   O3        1.0  0.13300  0.86700  0.25000  1.0000
  O   O4        1.0  0.64800  0.99200  0.34100  1.0000
  O   O5        1.0  0.76600  0.41300  0.42900  1.0000
  O   O6        1.0  0.23400  0.58700  0.57100  1.0000
  O   O7        1.0  0.35200  0.00817  0.65900  1.0000
  O   O8        1.0  0.86700  0.13300  0.75000  1.0000
  O   O9        1.0  0.99200  0.64800  0.84100  1.0000
  O   O10       1.0  0.41300  0.76600  0.92900  1.0000
  Se  Se1       1.0  0.82800  0.17200  0.25000  1.0000
  Se  Se2       1.0  0.17200  0.82800  0.75000  1.0000
