data_image0
_chemical_formula_structural       F12Fe4Li2
_chemical_formula_sum              "F12 Fe4 Li2"
_cell_length_a       4.58734
_cell_length_b       4.58734
_cell_length_c       8.94419
_cell_angle_alpha    90
_cell_angle_beta     90
_cell_angle_gamma    90.0003

_space_group_name_H-M_alt    "P 1"
_space_group_IT_number       1

loop_
  _space_group_symop_operation_xyz
  'x, y, z'

loop_
  _atom_site_type_symbol
  _atom_site_label
  _atom_site_symmetry_multiplicity
  _atom_site_fract_x
  _atom_site_fract_y
  _atom_site_fract_z
  _atom_site_occupancy
  F   F1        1.0  0.30000  0.30000  0.00149  1.0000
  F   F2        1.0  0.70000  0.70000  0.00149  1.0000
  F   F3        1.0  0.78800  0.21200  0.16700  1.0000
  F   F4        1.0  0.21200  0.78800  0.16700  1.0000
  F   F5        1.0  0.30000  0.30000  0.33300  1.0000
  F   F6        1.0  0.70000  0.70000  0.33300  1.0000
  F   F7        1.0  0.80000  0.20000  0.50100  1.0000
  F   F8        1.0  0.20000  0.80000  0.50100  1.0000
  F   F9        1.0  0.28800  0.28800  0.66700  1.0000
  F   F10       1.0  0.71200  0.71200  0.66700  1.0000
  F   F11       1.0  0.80000  0.20000  0.83300  1.0000
  F   F12       1.0  0.20000  0.80000  0.83300  1.0000
  Fe  Fe1       1.0  0.00000  0.00000  0.00702  1.0000
  Fe  Fe2       1.0  0.00000  0.00000  0.32800  1.0000
  Fe  Fe3       1.0  0.50000  0.50000  0.50700  1.0000
  Fe  Fe4       1.0  0.50000  0.50000  0.82800  1.0000
  Li  Li1       1.0  0.50000  0.50000  0.16700  1.0000
  Li  Li2       1.0  0.00000  0.00000  0.66700  1.0000
