data_image0
_chemical_formula_structural       B3F12Li3
_chemical_formula_sum              "B3 F12 Li3"
_cell_length_a       4.34126
_cell_length_b       4.34126
_cell_length_c       10.2757
_cell_angle_alpha    90
_cell_angle_beta     90
_cell_angle_gamma    120

_space_group_name_H-M_alt    "P 1"
_space_group_IT_number       1

loop_
  _space_group_symop_operation_xyz
  'x, y, z'

loop_
  _atom_site_type_symbol
  _atom_site_label
  _atom_site_symmetry_multiplicity
  _atom_site_fract_x
  _atom_site_fract_y
  _atom_site_fract_z
  _atom_site_occupancy
  B   B1        1.0  0.00000  0.36800  0.16700  1.0000
  B   B2        1.0  0.63200  0.63200  0.50000  1.0000
  B   B3        1.0  0.36800  0.00018  0.83300  1.0000
  F   F1        1.0  0.95400  0.53600  0.05820  1.0000
  F   F2        1.0  0.29400  0.32200  0.14300  1.0000
  F   F3        1.0  0.70600  0.02820  0.19000  1.0000
  F   F4        1.0  0.04620  0.58200  0.27500  1.0000
  F   F5        1.0  0.46400  0.41800  0.39200  1.0000
  F   F6        1.0  0.67800  0.97200  0.47700  1.0000
  F   F7        1.0  0.97200  0.67800  0.52300  1.0000
  F   F8        1.0  0.41800  0.46400  0.60800  1.0000
  F   F9        1.0  0.58200  0.04620  0.72500  1.0000
  F   F10       1.0  0.02800  0.70600  0.81000  1.0000
  F   F11       1.0  0.32200  0.29400  0.85700  1.0000
  F   F12       1.0  0.53600  0.95400  0.94200  1.0000
  Li  Li1       1.0  0.58200  0.58200  0.00000  1.0000
  Li  Li2       1.0  0.41800  0.00001  0.33300  1.0000
  Li  Li3       1.0  0.00000  0.41800  0.66700  1.0000
