data_image0
_chemical_formula_structural       Cl16Ga4Li4
_chemical_formula_sum              "Cl16 Ga4 Li4"
_cell_length_a       12.9344
_cell_length_b       6.46441
_cell_length_c       6.99217
_cell_angle_alpha    90
_cell_angle_beta     93.2325
_cell_angle_gamma    90

_space_group_name_H-M_alt    "P 1"
_space_group_IT_number       1

loop_
  _space_group_symop_operation_xyz
  'x, y, z'

loop_
  _atom_site_type_symbol
  _atom_site_label
  _atom_site_symmetry_multiplicity
  _atom_site_fract_x
  _atom_site_fract_y
  _atom_site_fract_z
  _atom_site_occupancy
  Cl  Cl1       1.0  0.18800  0.82100  0.06650  1.0000
  Cl  Cl2       1.0  0.68800  0.67900  0.06650  1.0000
  Cl  Cl3       1.0  0.06890  0.36200  0.18600  1.0000
  Cl  Cl4       1.0  0.56900  0.13800  0.18600  1.0000
  Cl  Cl5       1.0  0.44700  0.68000  0.30900  1.0000
  Cl  Cl6       1.0  0.94700  0.82000  0.30900  1.0000
  Cl  Cl7       1.0  0.30800  0.18600  0.43000  1.0000
  Cl  Cl8       1.0  0.80800  0.31400  0.43000  1.0000
  Cl  Cl9       1.0  0.69200  0.81400  0.57000  1.0000
  Cl  Cl10      1.0  0.19200  0.68600  0.57000  1.0000
  Cl  Cl11      1.0  0.55300  0.32000  0.69100  1.0000
  Cl  Cl12      1.0  0.05250  0.18000  0.69100  1.0000
  Cl  Cl13      1.0  0.43100  0.86200  0.81400  1.0000
  Cl  Cl14      1.0  0.93100  0.63800  0.81400  1.0000
  Cl  Cl15      1.0  0.81200  0.17900  0.93300  1.0000
  Cl  Cl16      1.0  0.31200  0.32100  0.93300  1.0000
  Ga  Ga1       1.0  0.10100  0.67800  0.29800  1.0000
  Ga  Ga2       1.0  0.60100  0.82200  0.29800  1.0000
  Ga  Ga3       1.0  0.39900  0.17800  0.70200  1.0000
  Ga  Ga4       1.0  0.89900  0.32200  0.70200  1.0000
  Li  Li1       1.0  0.36600  0.98600  0.15000  1.0000
  Li  Li2       1.0  0.86600  0.51400  0.15000  1.0000
  Li  Li3       1.0  0.13400  0.48600  0.85000  1.0000
  Li  Li4       1.0  0.63400  0.01420  0.85000  1.0000
