data_image0
_chemical_formula_structural       Cl24Li4W4
_chemical_formula_sum              "Cl24 Li4 W4"
_cell_length_a       9.21261
_cell_length_b       9.21219
_cell_length_c       9.21308
_cell_angle_alpha    95.0725
_cell_angle_beta     84.9315
_cell_angle_gamma    95.0677

_space_group_name_H-M_alt    "P 1"
_space_group_IT_number       1

loop_
  _space_group_symop_operation_xyz
  'x, y, z'

loop_
  _atom_site_type_symbol
  _atom_site_label
  _atom_site_symmetry_multiplicity
  _atom_site_fract_x
  _atom_site_fract_y
  _atom_site_fract_z
  _atom_site_occupancy
  Cl  Cl1       1.0  0.92700  0.23600  0.07140  1.0000
  Cl  Cl2       1.0  0.73200  0.57500  0.07600  1.0000
  Cl  Cl3       1.0  0.23000  0.07690  0.07920  1.0000
  Cl  Cl4       1.0  0.42500  0.73300  0.08000  1.0000
  Cl  Cl5       1.0  0.92300  0.92100  0.23000  1.0000
  Cl  Cl6       1.0  0.42300  0.42100  0.23200  1.0000
  Cl  Cl7       1.0  0.57300  0.07390  0.26600  1.0000
  Cl  Cl8       1.0  0.08010  0.57500  0.26700  1.0000
  Cl  Cl9       1.0  0.76600  0.43100  0.42100  1.0000
  Cl  Cl10      1.0  0.57900  0.76800  0.42300  1.0000
  Cl  Cl11      1.0  0.26700  0.92000  0.42500  1.0000
  Cl  Cl12      1.0  0.07600  0.26800  0.42500  1.0000
  Cl  Cl13      1.0  0.42100  0.23400  0.56900  1.0000
  Cl  Cl14      1.0  0.92600  0.73400  0.57300  1.0000
  Cl  Cl15      1.0  0.73300  0.07530  0.57800  1.0000
  Cl  Cl16      1.0  0.23200  0.57700  0.57900  1.0000
  Cl  Cl17      1.0  0.42500  0.92400  0.73200  1.0000
  Cl  Cl18      1.0  0.92500  0.42200  0.73300  1.0000
  Cl  Cl19      1.0  0.07140  0.07310  0.76400  1.0000
  Cl  Cl20      1.0  0.56900  0.57900  0.76600  1.0000
  Cl  Cl21      1.0  0.07920  0.77000  0.92300  1.0000
  Cl  Cl22      1.0  0.57800  0.26700  0.92500  1.0000
  Cl  Cl23      1.0  0.26600  0.42700  0.92600  1.0000
  Cl  Cl24      1.0  0.76400  0.92900  0.92700  1.0000
  Li  Li1       1.0  0.66900  0.83200  0.16700  1.0000
  Li  Li2       1.0  0.16700  0.33100  0.16800  1.0000
  Li  Li3       1.0  0.33600  0.66400  0.33600  1.0000
  Li  Li4       1.0  0.16800  0.83300  0.66900  1.0000
  W   W1        1.0  0.99900  0.00078  0.99900  1.0000
  W   W2        1.0  0.50600  0.01190  0.50500  1.0000
  W   W3        1.0  0.98800  0.49500  0.50600  1.0000
  W   W4        1.0  0.50500  0.49400  0.98800  1.0000
