data_image0
_chemical_formula_structural       Ge18Li3Ni18
_chemical_formula_sum              "Ge18 Li3 Ni18"
_cell_length_a       8.76456
_cell_length_b       8.76456
_cell_length_c       7.83105
_cell_angle_alpha    89.9997
_cell_angle_beta     89.9997
_cell_angle_gamma    120.007

_space_group_name_H-M_alt    "P 1"
_space_group_IT_number       1

loop_
  _space_group_symop_operation_xyz
  'x, y, z'

loop_
  _atom_site_type_symbol
  _atom_site_label
  _atom_site_symmetry_multiplicity
  _atom_site_fract_x
  _atom_site_fract_y
  _atom_site_fract_z
  _atom_site_occupancy
  Ge  Ge1       1.0  0.65900  0.65900  0.00000  1.0000
  Ge  Ge2       1.0  0.34100  0.00001  0.00000  1.0000
  Ge  Ge3       1.0  0.00001  0.34100  0.00000  1.0000
  Ge  Ge4       1.0  0.34100  0.34100  0.00000  1.0000
  Ge  Ge5       1.0  0.00001  0.65900  0.00000  1.0000
  Ge  Ge6       1.0  0.65900  0.00001  0.00000  1.0000
  Ge  Ge7       1.0  0.00000  0.00000  0.16100  1.0000
  Ge  Ge8       1.0  0.66700  0.33300  0.33800  1.0000
  Ge  Ge9       1.0  0.33300  0.66700  0.33800  1.0000
  Ge  Ge10      1.0  0.67400  0.67400  0.50000  1.0000
  Ge  Ge11      1.0  0.00001  0.67400  0.50000  1.0000
  Ge  Ge12      1.0  0.67400  0.00001  0.50000  1.0000
  Ge  Ge13      1.0  0.32600  0.32600  0.50000  1.0000
  Ge  Ge14      1.0  0.32600  0.00000  0.50000  1.0000
  Ge  Ge15      1.0  0.00000  0.32600  0.50000  1.0000
  Ge  Ge16      1.0  0.33300  0.66700  0.66200  1.0000
  Ge  Ge17      1.0  0.66700  0.33300  0.66200  1.0000
  Ge  Ge18      1.0  0.00000  0.00000  0.83900  1.0000
  Li  Li1       1.0  0.66700  0.33300  0.00001  1.0000
  Li  Li2       1.0  0.33300  0.66700  0.00001  1.0000
  Li  Li3       1.0  0.00000  0.00000  0.50000  1.0000
  Ni  Ni1       1.0  0.66700  0.83300  0.24500  1.0000
  Ni  Ni2       1.0  0.83300  0.66700  0.24500  1.0000
  Ni  Ni3       1.0  0.83300  0.16700  0.24500  1.0000
  Ni  Ni4       1.0  0.16700  0.83300  0.24500  1.0000
  Ni  Ni5       1.0  0.16700  0.33300  0.24500  1.0000
  Ni  Ni6       1.0  0.33300  0.16700  0.24500  1.0000
  Ni  Ni7       1.0  0.50000  0.50000  0.25900  1.0000
  Ni  Ni8       1.0  0.50000  0.00000  0.25900  1.0000
  Ni  Ni9       1.0  0.00000  0.50000  0.25900  1.0000
  Ni  Ni10      1.0  0.00001  0.50000  0.74100  1.0000
  Ni  Ni11      1.0  0.50000  0.00001  0.74100  1.0000
  Ni  Ni12      1.0  0.50000  0.50000  0.74100  1.0000
  Ni  Ni13      1.0  0.83300  0.66700  0.75500  1.0000
  Ni  Ni14      1.0  0.66700  0.83300  0.75500  1.0000
  Ni  Ni15      1.0  0.16700  0.33300  0.75500  1.0000
  Ni  Ni16      1.0  0.33300  0.16700  0.75500  1.0000
  Ni  Ni17      1.0  0.83300  0.16700  0.75500  1.0000
  Ni  Ni18      1.0  0.16700  0.83300  0.75500  1.0000
