data_image0
_chemical_formula_structural       F16In4Li4
_chemical_formula_sum              "F16 In4 Li4"
_cell_length_a       4.70763
_cell_length_b       11.5259
_cell_length_c       4.91552
_cell_angle_alpha    90
_cell_angle_beta     90
_cell_angle_gamma    90

_space_group_name_H-M_alt    "P 1"
_space_group_IT_number       1

loop_
  _space_group_symop_operation_xyz
  'x, y, z'

loop_
  _atom_site_type_symbol
  _atom_site_label
  _atom_site_symmetry_multiplicity
  _atom_site_fract_x
  _atom_site_fract_y
  _atom_site_fract_z
  _atom_site_occupancy
  F   F1        1.0  0.73700  0.44800  0.06150  1.0000
  F   F2        1.0  0.76300  0.94800  0.06150  1.0000
  F   F3        1.0  0.77000  0.19000  0.09100  1.0000
  F   F4        1.0  0.73000  0.69000  0.09100  1.0000
  F   F5        1.0  0.23000  0.19000  0.40900  1.0000
  F   F6        1.0  0.27000  0.69000  0.40900  1.0000
  F   F7        1.0  0.26300  0.44800  0.43900  1.0000
  F   F8        1.0  0.23700  0.94800  0.43900  1.0000
  F   F9        1.0  0.76300  0.05210  0.56100  1.0000
  F   F10       1.0  0.73700  0.55200  0.56100  1.0000
  F   F11       1.0  0.73000  0.31000  0.59100  1.0000
  F   F12       1.0  0.77000  0.81000  0.59100  1.0000
  F   F13       1.0  0.27000  0.31000  0.90900  1.0000
  F   F14       1.0  0.23000  0.81000  0.90900  1.0000
  F   F15       1.0  0.23700  0.05210  0.93900  1.0000
  F   F16       1.0  0.26300  0.55200  0.93900  1.0000
  In  In1       1.0  0.00000  0.33500  0.25000  1.0000
  In  In2       1.0  0.50000  0.83500  0.25000  1.0000
  In  In3       1.0  0.50000  0.16500  0.75000  1.0000
  In  In4       1.0  0.00000  0.66500  0.75000  1.0000
  Li  Li1       1.0  0.00000  0.05820  0.25000  1.0000
  Li  Li2       1.0  0.50000  0.55800  0.25000  1.0000
  Li  Li3       1.0  0.50000  0.44200  0.75000  1.0000
  Li  Li4       1.0  0.00000  0.94200  0.75000  1.0000
