data_image0
_chemical_formula_structural       Cu8Li4O8
_chemical_formula_sum              "Cu8 Li4 O8"
_cell_length_a       5.65631
_cell_length_b       2.84487
_cell_length_c       12.4217
_cell_angle_alpha    90
_cell_angle_beta     90
_cell_angle_gamma    90

_space_group_name_H-M_alt    "P 1"
_space_group_IT_number       1

loop_
  _space_group_symop_operation_xyz
  'x, y, z'

loop_
  _atom_site_type_symbol
  _atom_site_label
  _atom_site_symmetry_multiplicity
  _atom_site_fract_x
  _atom_site_fract_y
  _atom_site_fract_z
  _atom_site_occupancy
  Cu  Cu1       1.0  0.87600  0.75000  0.09810  1.0000
  Cu  Cu2       1.0  0.62200  0.25000  0.24300  1.0000
  Cu  Cu3       1.0  0.12200  0.25000  0.25700  1.0000
  Cu  Cu4       1.0  0.37600  0.75000  0.40200  1.0000
  Cu  Cu5       1.0  0.62400  0.25000  0.59800  1.0000
  Cu  Cu6       1.0  0.87800  0.75000  0.74300  1.0000
  Cu  Cu7       1.0  0.37800  0.75000  0.75700  1.0000
  Cu  Cu8       1.0  0.12400  0.25000  0.90200  1.0000
  Li  Li1       1.0  0.36700  0.75000  0.07080  1.0000
  Li  Li2       1.0  0.86700  0.75000  0.42900  1.0000
  Li  Li3       1.0  0.13300  0.25000  0.57100  1.0000
  Li  Li4       1.0  0.63300  0.25000  0.92900  1.0000
  O   O1        1.0  0.63200  0.25000  0.09390  1.0000
  O   O2        1.0  0.11500  0.25000  0.10800  1.0000
  O   O3        1.0  0.61500  0.25000  0.39200  1.0000
  O   O4        1.0  0.13200  0.25000  0.40600  1.0000
  O   O5        1.0  0.86800  0.75000  0.59400  1.0000
  O   O6        1.0  0.38500  0.75000  0.60800  1.0000
  O   O7        1.0  0.88500  0.75000  0.89200  1.0000
  O   O8        1.0  0.36800  0.75000  0.90600  1.0000
