data_image0
_chemical_formula_structural       Li12O14Zr4
_chemical_formula_sum              "Li12 O14 Zr4"
_cell_length_a       5.98912
_cell_length_b       6.01794
_cell_length_c       10.1876
_cell_angle_alpha    98.8005
_cell_angle_beta     90
_cell_angle_gamma    119.842

_space_group_name_H-M_alt    "P 1"
_space_group_IT_number       1

loop_
  _space_group_symop_operation_xyz
  'x, y, z'

loop_
  _atom_site_type_symbol
  _atom_site_label
  _atom_site_symmetry_multiplicity
  _atom_site_fract_x
  _atom_site_fract_y
  _atom_site_fract_z
  _atom_site_occupancy
  Li  Li1       1.0  0.20300  0.12200  0.08880  1.0000
  Li  Li2       1.0  0.66600  0.13300  0.10400  1.0000
  Li  Li3       1.0  0.66500  0.58800  0.10700  1.0000
  Li  Li4       1.0  0.07740  0.41200  0.39300  1.0000
  Li  Li5       1.0  0.53300  0.86700  0.39600  1.0000
  Li  Li6       1.0  0.08170  0.87800  0.41100  1.0000
  Li  Li7       1.0  0.91800  0.12200  0.58900  1.0000
  Li  Li8       1.0  0.46700  0.13300  0.60400  1.0000
  Li  Li9       1.0  0.92300  0.58800  0.60700  1.0000
  Li  Li10      1.0  0.33500  0.41200  0.89300  1.0000
  Li  Li11      1.0  0.33400  0.86700  0.89600  1.0000
  Li  Li12      1.0  0.79700  0.87800  0.91100  1.0000
  O   O1        1.0  0.00016  0.26100  0.00245  1.0000
  O   O2        1.0  0.50500  0.75800  0.02040  1.0000
  O   O3        1.0  0.86100  0.49700  0.24300  1.0000
  O   O4        1.0  0.34700  0.00000  0.25000  1.0000
  O   O5        1.0  0.36400  0.50300  0.25700  1.0000
  O   O6        1.0  0.74700  0.24200  0.48000  1.0000
  O   O7        1.0  0.73900  0.73900  0.49800  1.0000
  O   O8        1.0  0.26100  0.26100  0.50200  1.0000
  O   O9        1.0  0.25300  0.75800  0.52000  1.0000
  O   O10       1.0  0.63600  0.49700  0.74300  1.0000
  O   O11       1.0  0.65300  0.00000  0.75000  1.0000
  O   O12       1.0  0.13900  0.50300  0.75700  1.0000
  O   O13       1.0  0.49500  0.24200  0.98000  1.0000
  O   O14       1.0  0.00000  0.73900  0.99800  1.0000
  Zr  Zr1       1.0  0.19700  0.63300  0.13400  1.0000
  Zr  Zr2       1.0  0.56400  0.36700  0.36600  1.0000
  Zr  Zr3       1.0  0.43600  0.63300  0.63400  1.0000
  Zr  Zr4       1.0  0.80300  0.36700  0.86600  1.0000
