data_image0
_chemical_formula_structural       Ge6Li16Zn4
_chemical_formula_sum              "Ge6 Li16 Zn4"
_cell_length_a       7.49855
_cell_length_b       7.4984
_cell_length_c       9.12257
_cell_angle_alpha    65.7335
_cell_angle_beta     114.274
_cell_angle_gamma    119.999

_space_group_name_H-M_alt    "P 1"
_space_group_IT_number       1

loop_
  _space_group_symop_operation_xyz
  'x, y, z'

loop_
  _atom_site_type_symbol
  _atom_site_label
  _atom_site_symmetry_multiplicity
  _atom_site_fract_x
  _atom_site_fract_y
  _atom_site_fract_z
  _atom_site_occupancy
  Ge  Ge1       1.0  0.49800  0.18200  0.48900  1.0000
  Ge  Ge2       1.0  0.17300  0.50200  0.48900  1.0000
  Ge  Ge3       1.0  0.81800  0.82700  0.48900  1.0000
  Ge  Ge4       1.0  0.99800  0.32700  0.98900  1.0000
  Ge  Ge5       1.0  0.67300  0.68200  0.98900  1.0000
  Ge  Ge6       1.0  0.31800  0.00239  0.98900  1.0000
  Li  Li1       1.0  0.04400  0.95600  0.13200  1.0000
  Li  Li2       1.0  0.04430  0.59200  0.15400  1.0000
  Li  Li3       1.0  0.40800  0.29900  0.15400  1.0000
  Li  Li4       1.0  0.70100  0.95600  0.15400  1.0000
  Li  Li5       1.0  0.44000  0.56000  0.32000  1.0000
  Li  Li6       1.0  0.79500  0.56000  0.32600  1.0000
  Li  Li7       1.0  0.44000  0.90900  0.32600  1.0000
  Li  Li8       1.0  0.09150  0.20500  0.32600  1.0000
  Li  Li9       1.0  0.54400  0.45600  0.63200  1.0000
  Li  Li10      1.0  0.54400  0.79900  0.65400  1.0000
  Li  Li11      1.0  0.90800  0.45600  0.65400  1.0000
  Li  Li12      1.0  0.20100  0.09220  0.65400  1.0000
  Li  Li13      1.0  0.94000  0.06000  0.82000  1.0000
  Li  Li14      1.0  0.29500  0.40900  0.82600  1.0000
  Li  Li15      1.0  0.94000  0.70500  0.82600  1.0000
  Li  Li16      1.0  0.59100  0.05980  0.82600  1.0000
  Zn  Zn1       1.0  0.82400  0.17600  0.47300  1.0000
  Zn  Zn2       1.0  0.16400  0.83600  0.49200  1.0000
  Zn  Zn3       1.0  0.32400  0.67600  0.97300  1.0000
  Zn  Zn4       1.0  0.66400  0.33600  0.99200  1.0000
