data_image0
_chemical_formula_structural       Li4N10Ta6
_chemical_formula_sum              "Li4 N10 Ta6"
_cell_length_a       4.20927
_cell_length_b       5.33316
_cell_length_c       9.62256
_cell_angle_alpha    90.7513
_cell_angle_beta     90
_cell_angle_gamma    113.243

_space_group_name_H-M_alt    "P 1"
_space_group_IT_number       1

loop_
  _space_group_symop_operation_xyz
  'x, y, z'

loop_
  _atom_site_type_symbol
  _atom_site_label
  _atom_site_symmetry_multiplicity
  _atom_site_fract_x
  _atom_site_fract_y
  _atom_site_fract_z
  _atom_site_occupancy
  Li  Li1       1.0  0.45600  0.91100  0.15200  1.0000
  Li  Li2       1.0  0.35300  0.70600  0.45100  1.0000
  Li  Li3       1.0  0.64700  0.29400  0.54900  1.0000
  Li  Li4       1.0  0.54400  0.08850  0.84800  1.0000
  N   N1        1.0  0.65300  0.30600  0.04900  1.0000
  N   N2        1.0  0.95400  0.90700  0.15300  1.0000
  N   N3        1.0  0.25100  0.50200  0.25100  1.0000
  N   N4        1.0  0.56600  0.13300  0.34400  1.0000
  N   N5        1.0  0.86000  0.72000  0.44700  1.0000
  N   N6        1.0  0.14000  0.28000  0.55300  1.0000
  N   N7        1.0  0.43400  0.86700  0.65600  1.0000
  N   N8        1.0  0.74900  0.49800  0.74900  1.0000
  N   N9        1.0  0.04640  0.09270  0.84700  1.0000
  N   N10       1.0  0.34700  0.69400  0.95100  1.0000
  Ta  Ta1       1.0  0.14400  0.28700  0.04740  1.0000
  Ta  Ta2       1.0  0.76200  0.52400  0.25600  1.0000
  Ta  Ta3       1.0  0.05410  0.10800  0.35600  1.0000
  Ta  Ta4       1.0  0.94600  0.89200  0.64400  1.0000
  Ta  Ta5       1.0  0.23800  0.47600  0.74400  1.0000
  Ta  Ta6       1.0  0.85600  0.71300  0.95300  1.0000
