data_image0
_chemical_formula_structural       Li14N8V2
_chemical_formula_sum              "Li14 N8 V2"
_cell_length_a       6.71541
_cell_length_b       6.71541
_cell_length_c       4.84591
_cell_angle_alpha    90
_cell_angle_beta     90
_cell_angle_gamma    90

_space_group_name_H-M_alt    "P 1"
_space_group_IT_number       1

loop_
  _space_group_symop_operation_xyz
  'x, y, z'

loop_
  _atom_site_type_symbol
  _atom_site_label
  _atom_site_symmetry_multiplicity
  _atom_site_fract_x
  _atom_site_fract_y
  _atom_site_fract_z
  _atom_site_occupancy
  Li  Li1       1.0  0.25000  0.25000  0.17100  1.0000
  Li  Li2       1.0  0.51400  0.01390  0.25000  1.0000
  Li  Li3       1.0  0.98600  0.01390  0.25000  1.0000
  Li  Li4       1.0  0.75000  0.25000  0.25000  1.0000
  Li  Li5       1.0  0.51400  0.48600  0.25000  1.0000
  Li  Li6       1.0  0.98600  0.48600  0.25000  1.0000
  Li  Li7       1.0  0.75000  0.75000  0.32900  1.0000
  Li  Li8       1.0  0.25000  0.25000  0.67100  1.0000
  Li  Li9       1.0  0.01390  0.51400  0.75000  1.0000
  Li  Li10      1.0  0.48600  0.51400  0.75000  1.0000
  Li  Li11      1.0  0.25000  0.75000  0.75000  1.0000
  Li  Li12      1.0  0.01390  0.98600  0.75000  1.0000
  Li  Li13      1.0  0.48600  0.98600  0.75000  1.0000
  Li  Li14      1.0  0.75000  0.75000  0.82900  1.0000
  N   N1        1.0  0.02350  0.75000  0.03680  1.0000
  N   N2        1.0  0.47700  0.75000  0.03680  1.0000
  N   N3        1.0  0.25000  0.52300  0.46300  1.0000
  N   N4        1.0  0.25000  0.97700  0.46300  1.0000
  N   N5        1.0  0.75000  0.02350  0.53700  1.0000
  N   N6        1.0  0.75000  0.47700  0.53700  1.0000
  N   N7        1.0  0.52300  0.25000  0.96300  1.0000
  N   N8        1.0  0.97700  0.25000  0.96300  1.0000
  V   V1        1.0  0.25000  0.75000  0.25000  1.0000
  V   V2        1.0  0.75000  0.25000  0.75000  1.0000
