data_image0
_chemical_formula_structural       Br16Ga4Li4
_chemical_formula_sum              "Br16 Ga4 Li4"
_cell_length_a       13.8402
_cell_length_b       6.99015
_cell_length_c       7.48803
_cell_angle_alpha    90
_cell_angle_beta     92.9667
_cell_angle_gamma    90

_space_group_name_H-M_alt    "P 1"
_space_group_IT_number       1

loop_
  _space_group_symop_operation_xyz
  'x, y, z'

loop_
  _atom_site_type_symbol
  _atom_site_label
  _atom_site_symmetry_multiplicity
  _atom_site_fract_x
  _atom_site_fract_y
  _atom_site_fract_z
  _atom_site_occupancy
  Br  Br1       1.0  0.68700  0.67800  0.06340  1.0000
  Br  Br2       1.0  0.18700  0.82200  0.06340  1.0000
  Br  Br3       1.0  0.56800  0.13800  0.18700  1.0000
  Br  Br4       1.0  0.06780  0.36200  0.18700  1.0000
  Br  Br5       1.0  0.94700  0.82100  0.30900  1.0000
  Br  Br6       1.0  0.44700  0.67900  0.30900  1.0000
  Br  Br7       1.0  0.80700  0.31300  0.43300  1.0000
  Br  Br8       1.0  0.30700  0.18700  0.43300  1.0000
  Br  Br9       1.0  0.69300  0.81300  0.56700  1.0000
  Br  Br10      1.0  0.19300  0.68700  0.56700  1.0000
  Br  Br11      1.0  0.55300  0.32100  0.69100  1.0000
  Br  Br12      1.0  0.05260  0.17900  0.69100  1.0000
  Br  Br13      1.0  0.93200  0.63800  0.81300  1.0000
  Br  Br14      1.0  0.43200  0.86200  0.81300  1.0000
  Br  Br15      1.0  0.81300  0.17800  0.93700  1.0000
  Br  Br16      1.0  0.31300  0.32200  0.93700  1.0000
  Ga  Ga1       1.0  0.60000  0.82300  0.29500  1.0000
  Ga  Ga2       1.0  0.10000  0.67700  0.29500  1.0000
  Ga  Ga3       1.0  0.90000  0.32300  0.70500  1.0000
  Ga  Ga4       1.0  0.40000  0.17700  0.70500  1.0000
  Li  Li1       1.0  0.87400  0.51100  0.15500  1.0000
  Li  Li2       1.0  0.37400  0.98900  0.15500  1.0000
  Li  Li3       1.0  0.62600  0.01070  0.84500  1.0000
  Li  Li4       1.0  0.12600  0.48900  0.84500  1.0000
