data_image0
_chemical_formula_structural       Cl24Ga8Li8
_chemical_formula_sum              "Cl24 Ga8 Li8"
_cell_length_a       15.1042
_cell_length_b       9.71772
_cell_length_c       6.1451
_cell_angle_alpha    90
_cell_angle_beta     90
_cell_angle_gamma    90

_space_group_name_H-M_alt    "P 1"
_space_group_IT_number       1

loop_
  _space_group_symop_operation_xyz
  'x, y, z'

loop_
  _atom_site_type_symbol
  _atom_site_label
  _atom_site_symmetry_multiplicity
  _atom_site_fract_x
  _atom_site_fract_y
  _atom_site_fract_z
  _atom_site_occupancy
  Cl  Cl1       1.0  0.84300  0.75000  0.04950  1.0000
  Cl  Cl2       1.0  0.72100  0.07090  0.04970  1.0000
  Cl  Cl3       1.0  0.72100  0.42900  0.04970  1.0000
  Cl  Cl4       1.0  0.61300  0.75000  0.20900  1.0000
  Cl  Cl5       1.0  0.96700  0.06530  0.23200  1.0000
  Cl  Cl6       1.0  0.96700  0.43500  0.23200  1.0000
  Cl  Cl7       1.0  0.46700  0.06530  0.26800  1.0000
  Cl  Cl8       1.0  0.46700  0.43500  0.26800  1.0000
  Cl  Cl9       1.0  0.11300  0.75000  0.29100  1.0000
  Cl  Cl10      1.0  0.22100  0.07090  0.45000  1.0000
  Cl  Cl11      1.0  0.22100  0.42900  0.45000  1.0000
  Cl  Cl12      1.0  0.34300  0.75000  0.45000  1.0000
  Cl  Cl13      1.0  0.65700  0.25000  0.55000  1.0000
  Cl  Cl14      1.0  0.77900  0.57100  0.55000  1.0000
  Cl  Cl15      1.0  0.77900  0.92900  0.55000  1.0000
  Cl  Cl16      1.0  0.88700  0.25000  0.70900  1.0000
  Cl  Cl17      1.0  0.53300  0.56500  0.73200  1.0000
  Cl  Cl18      1.0  0.53300  0.93500  0.73200  1.0000
  Cl  Cl19      1.0  0.03280  0.56500  0.76800  1.0000
  Cl  Cl20      1.0  0.03280  0.93500  0.76800  1.0000
  Cl  Cl21      1.0  0.38700  0.25000  0.79100  1.0000
  Cl  Cl22      1.0  0.27900  0.57100  0.95000  1.0000
  Cl  Cl23      1.0  0.27900  0.92900  0.95000  1.0000
  Cl  Cl24      1.0  0.15700  0.25000  0.95000  1.0000
  Ga  Ga1       1.0  0.49300  0.25000  0.05080  1.0000
  Ga  Ga2       1.0  0.35800  0.75000  0.08540  1.0000
  Ga  Ga3       1.0  0.85800  0.75000  0.41500  1.0000
  Ga  Ga4       1.0  0.99300  0.25000  0.44900  1.0000
  Ga  Ga5       1.0  0.00679  0.75000  0.55100  1.0000
  Ga  Ga6       1.0  0.14200  0.25000  0.58500  1.0000
  Ga  Ga7       1.0  0.64200  0.25000  0.91500  1.0000
  Ga  Ga8       1.0  0.50700  0.75000  0.94900  1.0000
  Li  Li1       1.0  0.13200  0.51200  0.11700  1.0000
  Li  Li2       1.0  0.13200  0.98800  0.11700  1.0000
  Li  Li3       1.0  0.63200  0.51200  0.38300  1.0000
  Li  Li4       1.0  0.63200  0.98800  0.38300  1.0000
  Li  Li5       1.0  0.36800  0.01190  0.61700  1.0000
  Li  Li6       1.0  0.36800  0.48800  0.61700  1.0000
  Li  Li7       1.0  0.86800  0.01190  0.88300  1.0000
  Li  Li8       1.0  0.86800  0.48800  0.88300  1.0000
