data_image0
_chemical_formula_structural       Li8O10W2
_chemical_formula_sum              "Li8 O10 W2"
_cell_length_a       5.07363
_cell_length_b       7.70055
_cell_length_c       5.05466
_cell_angle_alpha    101.832
_cell_angle_beta     101.168
_cell_angle_gamma    108.724

_space_group_name_H-M_alt    "P 1"
_space_group_IT_number       1

loop_
  _space_group_symop_operation_xyz
  'x, y, z'

loop_
  _atom_site_type_symbol
  _atom_site_label
  _atom_site_symmetry_multiplicity
  _atom_site_fract_x
  _atom_site_fract_y
  _atom_site_fract_z
  _atom_site_occupancy
  Li  Li1       1.0  0.00000  0.50000  0.00000  1.0000
  Li  Li2       1.0  0.40900  0.90300  0.22000  1.0000
  Li  Li3       1.0  0.61100  0.60900  0.30300  1.0000
  Li  Li4       1.0  0.80700  0.30300  0.42900  1.0000
  Li  Li5       1.0  0.00000  0.00000  0.50000  1.0000
  Li  Li6       1.0  0.19300  0.69700  0.57100  1.0000
  Li  Li7       1.0  0.38900  0.39100  0.69700  1.0000
  Li  Li8       1.0  0.59100  0.09700  0.78000  1.0000
  O   O1        1.0  0.57600  0.33800  0.05310  1.0000
  O   O2        1.0  0.82100  0.04280  0.13300  1.0000
  O   O3        1.0  0.99000  0.75100  0.22400  1.0000
  O   O4        1.0  0.19200  0.43300  0.33700  1.0000
  O   O5        1.0  0.39000  0.15400  0.43000  1.0000
  O   O6        1.0  0.61000  0.84600  0.57000  1.0000
  O   O7        1.0  0.80800  0.56700  0.66300  1.0000
  O   O8        1.0  0.00955  0.24900  0.77600  1.0000
  O   O9        1.0  0.17900  0.95700  0.86700  1.0000
  O   O10       1.0  0.42400  0.66200  0.94700  1.0000
  W   W1        1.0  0.22000  0.21900  0.11000  1.0000
  W   W2        1.0  0.78000  0.78100  0.89000  1.0000
