data_image0
_chemical_formula_structural       Li4Rh12Sn20
_chemical_formula_sum              "Li4 Rh12 Sn20"
_cell_length_a       5.45661
_cell_length_b       9.9072
_cell_length_c       12.9573
_cell_angle_alpha    90
_cell_angle_beta     90
_cell_angle_gamma    90

_space_group_name_H-M_alt    "P 1"
_space_group_IT_number       1

loop_
  _space_group_symop_operation_xyz
  'x, y, z'

loop_
  _atom_site_type_symbol
  _atom_site_label
  _atom_site_symmetry_multiplicity
  _atom_site_fract_x
  _atom_site_fract_y
  _atom_site_fract_z
  _atom_site_occupancy
  Li  Li1       1.0  0.59800  0.10900  0.25000  1.0000
  Li  Li2       1.0  0.40200  0.60900  0.25000  1.0000
  Li  Li3       1.0  0.59800  0.39100  0.75000  1.0000
  Li  Li4       1.0  0.40200  0.89100  0.75000  1.0000
  Rh  Rh1       1.0  0.35300  0.05230  0.07830  1.0000
  Rh  Rh2       1.0  0.64700  0.55200  0.07830  1.0000
  Rh  Rh3       1.0  0.09500  0.19500  0.25000  1.0000
  Rh  Rh4       1.0  0.90500  0.69500  0.25000  1.0000
  Rh  Rh5       1.0  0.35300  0.05230  0.42200  1.0000
  Rh  Rh6       1.0  0.64700  0.55200  0.42200  1.0000
  Rh  Rh7       1.0  0.35300  0.44800  0.57800  1.0000
  Rh  Rh8       1.0  0.64700  0.94800  0.57800  1.0000
  Rh  Rh9       1.0  0.09500  0.30500  0.75000  1.0000
  Rh  Rh10      1.0  0.90500  0.80500  0.75000  1.0000
  Rh  Rh11      1.0  0.35300  0.44800  0.92200  1.0000
  Rh  Rh12      1.0  0.64700  0.94800  0.92200  1.0000
  Sn  Sn1       1.0  0.86600  0.12700  0.06290  1.0000
  Sn  Sn2       1.0  0.13400  0.62700  0.06290  1.0000
  Sn  Sn3       1.0  0.37400  0.32600  0.11300  1.0000
  Sn  Sn4       1.0  0.62600  0.82600  0.11300  1.0000
  Sn  Sn5       1.0  0.84300  0.42400  0.25000  1.0000
  Sn  Sn6       1.0  0.15700  0.92400  0.25000  1.0000
  Sn  Sn7       1.0  0.37400  0.32600  0.38700  1.0000
  Sn  Sn8       1.0  0.62600  0.82600  0.38700  1.0000
  Sn  Sn9       1.0  0.86600  0.12700  0.43700  1.0000
  Sn  Sn10      1.0  0.13400  0.62700  0.43700  1.0000
  Sn  Sn11      1.0  0.86600  0.37300  0.56300  1.0000
  Sn  Sn12      1.0  0.13400  0.87300  0.56300  1.0000
  Sn  Sn13      1.0  0.37400  0.17400  0.61300  1.0000
  Sn  Sn14      1.0  0.62600  0.67400  0.61300  1.0000
  Sn  Sn15      1.0  0.84300  0.07570  0.75000  1.0000
  Sn  Sn16      1.0  0.15700  0.57600  0.75000  1.0000
  Sn  Sn17      1.0  0.37400  0.17400  0.88700  1.0000
  Sn  Sn18      1.0  0.62600  0.67400  0.88700  1.0000
  Sn  Sn19      1.0  0.86600  0.37300  0.93700  1.0000
  Sn  Sn20      1.0  0.13400  0.87300  0.93700  1.0000
