data_image0
_chemical_formula_structural       Cl8Li4Zn2
_chemical_formula_sum              "Cl8 Li4 Zn2"
_cell_length_a       7.28133
_cell_length_b       7.28133
_cell_length_c       7.28133
_cell_angle_alpha    120
_cell_angle_beta     90
_cell_angle_gamma    120

_space_group_name_H-M_alt    "P 1"
_space_group_IT_number       1

loop_
  _space_group_symop_operation_xyz
  'x, y, z'

loop_
  _atom_site_type_symbol
  _atom_site_label
  _atom_site_symmetry_multiplicity
  _atom_site_fract_x
  _atom_site_fract_y
  _atom_site_fract_z
  _atom_site_occupancy
  Cl  Cl1       1.0  0.26200  0.00786  0.25400  1.0000
  Cl  Cl2       1.0  0.74600  0.00786  0.25400  1.0000
  Cl  Cl3       1.0  0.74600  0.49200  0.25400  1.0000
  Cl  Cl4       1.0  0.25400  0.50800  0.26200  1.0000
  Cl  Cl5       1.0  0.74600  0.49200  0.73800  1.0000
  Cl  Cl6       1.0  0.25400  0.50800  0.74600  1.0000
  Cl  Cl7       1.0  0.25400  0.99200  0.74600  1.0000
  Cl  Cl8       1.0  0.73800  0.99200  0.74600  1.0000
  Li  Li1       1.0  0.50000  0.00000  0.00000  1.0000
  Li  Li2       1.0  0.50000  0.00000  0.50000  1.0000
  Li  Li3       1.0  0.00000  0.50000  0.50000  1.0000
  Li  Li4       1.0  0.50000  0.50000  0.50000  1.0000
  Zn  Zn1       1.0  0.87500  0.75000  0.12500  1.0000
  Zn  Zn2       1.0  0.12500  0.25000  0.87500  1.0000
