data_image0
_chemical_formula_structural       H8N2O8Tc2
_chemical_formula_sum              "H8 N2 O8 Tc2"
_cell_length_a       7.5363
_cell_length_b       5.63866
_cell_length_c       5.63866
_cell_angle_alpha    90
_cell_angle_beta     111.969
_cell_angle_gamma    111.969

_space_group_name_H-M_alt    "P 1"
_space_group_IT_number       1

loop_
  _space_group_symop_operation_xyz
  'x, y, z'

loop_
  _atom_site_type_symbol
  _atom_site_label
  _atom_site_symmetry_multiplicity
  _atom_site_fract_x
  _atom_site_fract_y
  _atom_site_fract_z
  _atom_site_occupancy
  H   H1        1.0  0.34600  0.64200  0.27900  1.0000
  H   H2        1.0  0.15400  0.72100  0.29600  1.0000
  H   H3        1.0  0.15400  0.43300  0.35800  1.0000
  H   H4        1.0  0.65400  0.29600  0.43300  1.0000
  H   H5        1.0  0.34600  0.70400  0.56700  1.0000
  H   H6        1.0  0.84600  0.56700  0.64200  1.0000
  H   H7        1.0  0.84600  0.27900  0.70400  1.0000
  H   H8        1.0  0.65400  0.35800  0.72100  1.0000
  N   N1        1.0  0.25000  0.62500  0.37500  1.0000
  N   N2        1.0  0.75000  0.37500  0.62500  1.0000
  O   O1        1.0  0.90600  0.18000  0.09300  1.0000
  O   O2        1.0  0.40600  0.31300  0.18000  1.0000
  O   O3        1.0  0.59400  0.90700  0.27300  1.0000
  O   O4        1.0  0.90600  0.72700  0.31300  1.0000
  O   O5        1.0  0.09360  0.27300  0.68700  1.0000
  O   O6        1.0  0.40600  0.09300  0.72700  1.0000
  O   O7        1.0  0.59400  0.68700  0.82000  1.0000
  O   O8        1.0  0.09360  0.82000  0.90700  1.0000
  Tc  Tc1       1.0  0.75000  0.87500  0.12500  1.0000
  Tc  Tc2       1.0  0.25000  0.12500  0.87500  1.0000
