data_image0
_chemical_formula_structural       Ge10Li8O24
_chemical_formula_sum              "Ge10 Li8 O24"
_cell_length_a       5.09144
_cell_length_b       9.11102
_cell_length_c       9.56548
_cell_angle_alpha    73.1
_cell_angle_beta     78.4917
_cell_angle_gamma    79.051

_space_group_name_H-M_alt    "P 1"
_space_group_IT_number       1

loop_
  _space_group_symop_operation_xyz
  'x, y, z'

loop_
  _atom_site_type_symbol
  _atom_site_label
  _atom_site_symmetry_multiplicity
  _atom_site_fract_x
  _atom_site_fract_y
  _atom_site_fract_z
  _atom_site_occupancy
  Ge  Ge1       1.0  0.81000  0.74800  0.06420  1.0000
  Ge  Ge2       1.0  0.88000  0.40400  0.15000  1.0000
  Ge  Ge3       1.0  0.27200  0.09720  0.27200  1.0000
  Ge  Ge4       1.0  0.82000  0.90000  0.32100  1.0000
  Ge  Ge5       1.0  0.58800  0.58100  0.35500  1.0000
  Ge  Ge6       1.0  0.41200  0.41900  0.64500  1.0000
  Ge  Ge7       1.0  0.18000  0.09950  0.67900  1.0000
  Ge  Ge8       1.0  0.72800  0.90300  0.72800  1.0000
  Ge  Ge9       1.0  0.12000  0.59600  0.85000  1.0000
  Ge  Ge10      1.0  0.19000  0.25200  0.93600  1.0000
  Li  Li1       1.0  0.27300  0.90600  0.02380  1.0000
  Li  Li2       1.0  0.34600  0.57700  0.11200  1.0000
  Li  Li3       1.0  0.13600  0.41000  0.40400  1.0000
  Li  Li4       1.0  0.69000  0.22800  0.44600  1.0000
  Li  Li5       1.0  0.31000  0.77200  0.55400  1.0000
  Li  Li6       1.0  0.86400  0.59000  0.59600  1.0000
  Li  Li7       1.0  0.65400  0.42300  0.88800  1.0000
  Li  Li8       1.0  0.72700  0.09430  0.97600  1.0000
  O   O1        1.0  0.23700  0.42100  0.01580  1.0000
  O   O2        1.0  0.84800  0.26500  0.04980  1.0000
  O   O3        1.0  0.35000  0.09560  0.08540  1.0000
  O   O4        1.0  0.89900  0.90300  0.13400  1.0000
  O   O5        1.0  0.48100  0.73300  0.18700  1.0000
  O   O6        1.0  0.94900  0.57000  0.22600  1.0000
  O   O7        1.0  0.54900  0.42000  0.26900  1.0000
  O   O8        1.0  0.04930  0.25900  0.30600  1.0000
  O   O9        1.0  0.57900  0.06800  0.34400  1.0000
  O   O10       1.0  0.11200  0.93100  0.37800  1.0000
  O   O11       1.0  0.68200  0.73800  0.43400  1.0000
  O   O12       1.0  0.26200  0.57000  0.48400  1.0000
  O   O13       1.0  0.73800  0.43000  0.51600  1.0000
  O   O14       1.0  0.31800  0.26200  0.56600  1.0000
  O   O15       1.0  0.88800  0.06930  0.62200  1.0000
  O   O16       1.0  0.42100  0.93200  0.65600  1.0000
  O   O17       1.0  0.95100  0.74100  0.69400  1.0000
  O   O18       1.0  0.45100  0.58000  0.73100  1.0000
  O   O19       1.0  0.05050  0.43000  0.77400  1.0000
  O   O20       1.0  0.51900  0.26700  0.81300  1.0000
  O   O21       1.0  0.10100  0.09670  0.86600  1.0000
  O   O22       1.0  0.65000  0.90400  0.91500  1.0000
  O   O23       1.0  0.15200  0.73500  0.95000  1.0000
  O   O24       1.0  0.76300  0.57900  0.98400  1.0000
