data_image0
_chemical_formula_structural       F32Li16Zr4
_chemical_formula_sum              "F32 Li16 Zr4"
_cell_length_a       9.36617
_cell_length_b       9.42257
_cell_length_c       5.48441
_cell_angle_alpha    90
_cell_angle_beta     90
_cell_angle_gamma    90

_space_group_name_H-M_alt    "P 1"
_space_group_IT_number       1

loop_
  _space_group_symop_operation_xyz
  'x, y, z'

loop_
  _atom_site_type_symbol
  _atom_site_label
  _atom_site_symmetry_multiplicity
  _atom_site_fract_x
  _atom_site_fract_y
  _atom_site_fract_z
  _atom_site_occupancy
  F   F1        1.0  0.47800  0.62000  0.11200  1.0000
  F   F2        1.0  0.47800  0.88000  0.11200  1.0000
  F   F3        1.0  0.29500  0.25000  0.11300  1.0000
  F   F4        1.0  0.73800  0.03170  0.12700  1.0000
  F   F5        1.0  0.73800  0.46800  0.12700  1.0000
  F   F6        1.0  0.21000  0.75000  0.13300  1.0000
  F   F7        1.0  0.02050  0.11500  0.13700  1.0000
  F   F8        1.0  0.02050  0.38500  0.13700  1.0000
  F   F9        1.0  0.52000  0.11500  0.36300  1.0000
  F   F10       1.0  0.52000  0.38500  0.36300  1.0000
  F   F11       1.0  0.71000  0.75000  0.36700  1.0000
  F   F12       1.0  0.23800  0.03170  0.37300  1.0000
  F   F13       1.0  0.23800  0.46800  0.37300  1.0000
  F   F14       1.0  0.79500  0.25000  0.38700  1.0000
  F   F15       1.0  0.97800  0.62000  0.38800  1.0000
  F   F16       1.0  0.97800  0.88000  0.38800  1.0000
  F   F17       1.0  0.02200  0.12000  0.61200  1.0000
  F   F18       1.0  0.02200  0.38000  0.61200  1.0000
  F   F19       1.0  0.20500  0.75000  0.61300  1.0000
  F   F20       1.0  0.76200  0.53200  0.62700  1.0000
  F   F21       1.0  0.76200  0.96800  0.62700  1.0000
  F   F22       1.0  0.29000  0.25000  0.63300  1.0000
  F   F23       1.0  0.48000  0.61500  0.63700  1.0000
  F   F24       1.0  0.48000  0.88500  0.63700  1.0000
  F   F25       1.0  0.98000  0.61500  0.86300  1.0000
  F   F26       1.0  0.98000  0.88500  0.86300  1.0000
  F   F27       1.0  0.79000  0.25000  0.86700  1.0000
  F   F28       1.0  0.26200  0.53200  0.87300  1.0000
  F   F29       1.0  0.26200  0.96800  0.87300  1.0000
  F   F30       1.0  0.70500  0.75000  0.88700  1.0000
  F   F31       1.0  0.52200  0.12000  0.88800  1.0000
  F   F32       1.0  0.52200  0.38000  0.88800  1.0000
  Li  Li1       1.0  0.37200  0.05920  0.12000  1.0000
  Li  Li2       1.0  0.37200  0.44100  0.12000  1.0000
  Li  Li3       1.0  0.10800  0.57700  0.12900  1.0000
  Li  Li4       1.0  0.10800  0.92300  0.12900  1.0000
  Li  Li5       1.0  0.60800  0.57700  0.37100  1.0000
  Li  Li6       1.0  0.60800  0.92300  0.37100  1.0000
  Li  Li7       1.0  0.87200  0.05920  0.38000  1.0000
  Li  Li8       1.0  0.87200  0.44100  0.38000  1.0000
  Li  Li9       1.0  0.12800  0.55900  0.62000  1.0000
  Li  Li10      1.0  0.12800  0.94100  0.62000  1.0000
  Li  Li11      1.0  0.39200  0.07700  0.62900  1.0000
  Li  Li12      1.0  0.39200  0.42300  0.62900  1.0000
  Li  Li13      1.0  0.89200  0.07700  0.87100  1.0000
  Li  Li14      1.0  0.89200  0.42300  0.87100  1.0000
  Li  Li15      1.0  0.62800  0.55900  0.88000  1.0000
  Li  Li16      1.0  0.62800  0.94100  0.88000  1.0000
  Zr  Zr1       1.0  0.63700  0.25000  0.13100  1.0000
  Zr  Zr2       1.0  0.13700  0.25000  0.36900  1.0000
  Zr  Zr3       1.0  0.86300  0.75000  0.63100  1.0000
  Zr  Zr4       1.0  0.36300  0.75000  0.86900  1.0000
