data_image0
_chemical_formula_structural       Li16N12Ta4
_chemical_formula_sum              "Li16 N12 Ta4"
_cell_length_a       4.88791
_cell_length_b       8.89198
_cell_length_c       8.89198
_cell_angle_alpha    104.762
_cell_angle_beta     105.953
_cell_angle_gamma    105.953

_space_group_name_H-M_alt    "P 1"
_space_group_IT_number       1

loop_
  _space_group_symop_operation_xyz
  'x, y, z'

loop_
  _atom_site_type_symbol
  _atom_site_label
  _atom_site_symmetry_multiplicity
  _atom_site_fract_x
  _atom_site_fract_y
  _atom_site_fract_z
  _atom_site_occupancy
  Li  Li1       1.0  0.75000  0.47500  0.02540  1.0000
  Li  Li2       1.0  0.44000  0.88100  0.05060  1.0000
  Li  Li3       1.0  0.00857  0.94900  0.11900  1.0000
  Li  Li4       1.0  0.41000  0.75000  0.25000  1.0000
  Li  Li5       1.0  0.91000  0.75000  0.25000  1.0000
  Li  Li6       1.0  0.94000  0.55100  0.38100  1.0000
  Li  Li7       1.0  0.50900  0.61900  0.44900  1.0000
  Li  Li8       1.0  0.25000  0.02540  0.47500  1.0000
  Li  Li9       1.0  0.75000  0.97500  0.52500  1.0000
  Li  Li10      1.0  0.49100  0.38100  0.55100  1.0000
  Li  Li11      1.0  0.05990  0.44900  0.61900  1.0000
  Li  Li12      1.0  0.08960  0.25000  0.75000  1.0000
  Li  Li13      1.0  0.59000  0.25000  0.75000  1.0000
  Li  Li14      1.0  0.99100  0.05060  0.88100  1.0000
  Li  Li15      1.0  0.56000  0.11900  0.94900  1.0000
  Li  Li16      1.0  0.25000  0.52500  0.97500  1.0000
  N   N1        1.0  0.05870  0.71200  0.03990  1.0000
  N   N2        1.0  0.38200  0.13200  0.13200  1.0000
  N   N3        1.0  0.55900  0.54000  0.21200  1.0000
  N   N4        1.0  0.80700  0.96000  0.28800  1.0000
  N   N5        1.0  0.11800  0.36800  0.36800  1.0000
  N   N6        1.0  0.30700  0.78800  0.46000  1.0000
  N   N7        1.0  0.69300  0.21200  0.54000  1.0000
  N   N8        1.0  0.88200  0.63200  0.63200  1.0000
  N   N9        1.0  0.19300  0.03990  0.71200  1.0000
  N   N10       1.0  0.44100  0.46000  0.78800  1.0000
  N   N11       1.0  0.61800  0.86800  0.86800  1.0000
  N   N12       1.0  0.94100  0.28800  0.96000  1.0000
  Ta  Ta1       1.0  0.25000  0.33100  0.16900  1.0000
  Ta  Ta2       1.0  0.75000  0.16900  0.33100  1.0000
  Ta  Ta3       1.0  0.25000  0.83100  0.66900  1.0000
  Ta  Ta4       1.0  0.75000  0.66900  0.83100  1.0000
