data_image0
_chemical_formula_structural       F32Li16Tb4
_chemical_formula_sum              "F32 Li16 Tb4"
_cell_length_a       9.59147
_cell_length_b       9.63016
_cell_length_c       5.56002
_cell_angle_alpha    90
_cell_angle_beta     90
_cell_angle_gamma    90

_space_group_name_H-M_alt    "P 1"
_space_group_IT_number       1

loop_
  _space_group_symop_operation_xyz
  'x, y, z'

loop_
  _atom_site_type_symbol
  _atom_site_label
  _atom_site_symmetry_multiplicity
  _atom_site_fract_x
  _atom_site_fract_y
  _atom_site_fract_z
  _atom_site_occupancy
  F   F1        1.0  0.30900  0.25000  0.10400  1.0000
  F   F2        1.0  0.48200  0.61200  0.12200  1.0000
  F   F3        1.0  0.48200  0.88800  0.12200  1.0000
  F   F4        1.0  0.73900  0.02920  0.12700  1.0000
  F   F5        1.0  0.73900  0.47100  0.12700  1.0000
  F   F6        1.0  0.01250  0.11300  0.12800  1.0000
  F   F7        1.0  0.01250  0.38700  0.12800  1.0000
  F   F8        1.0  0.20100  0.75000  0.15400  1.0000
  F   F9        1.0  0.70100  0.75000  0.34600  1.0000
  F   F10       1.0  0.51300  0.11300  0.37200  1.0000
  F   F11       1.0  0.51300  0.38700  0.37200  1.0000
  F   F12       1.0  0.23900  0.02920  0.37300  1.0000
  F   F13       1.0  0.23900  0.47100  0.37300  1.0000
  F   F14       1.0  0.98200  0.61200  0.37800  1.0000
  F   F15       1.0  0.98200  0.88800  0.37800  1.0000
  F   F16       1.0  0.80900  0.25000  0.39600  1.0000
  F   F17       1.0  0.19100  0.75000  0.60400  1.0000
  F   F18       1.0  0.01800  0.11200  0.62200  1.0000
  F   F19       1.0  0.01800  0.38800  0.62200  1.0000
  F   F20       1.0  0.76100  0.52900  0.62700  1.0000
  F   F21       1.0  0.76100  0.97100  0.62700  1.0000
  F   F22       1.0  0.48700  0.61300  0.62800  1.0000
  F   F23       1.0  0.48700  0.88700  0.62800  1.0000
  F   F24       1.0  0.29900  0.25000  0.65400  1.0000
  F   F25       1.0  0.79900  0.25000  0.84600  1.0000
  F   F26       1.0  0.98700  0.61300  0.87200  1.0000
  F   F27       1.0  0.98700  0.88700  0.87200  1.0000
  F   F28       1.0  0.26100  0.52900  0.87300  1.0000
  F   F29       1.0  0.26100  0.97100  0.87300  1.0000
  F   F30       1.0  0.51800  0.11200  0.87800  1.0000
  F   F31       1.0  0.51800  0.38800  0.87800  1.0000
  F   F32       1.0  0.69100  0.75000  0.89600  1.0000
  Li  Li1       1.0  0.37200  0.05890  0.12000  1.0000
  Li  Li2       1.0  0.37200  0.44100  0.12000  1.0000
  Li  Li3       1.0  0.11200  0.57200  0.12800  1.0000
  Li  Li4       1.0  0.11200  0.92800  0.12800  1.0000
  Li  Li5       1.0  0.61200  0.57200  0.37200  1.0000
  Li  Li6       1.0  0.61200  0.92800  0.37200  1.0000
  Li  Li7       1.0  0.87200  0.05890  0.38000  1.0000
  Li  Li8       1.0  0.87200  0.44100  0.38000  1.0000
  Li  Li9       1.0  0.12800  0.55900  0.62000  1.0000
  Li  Li10      1.0  0.12800  0.94100  0.62000  1.0000
  Li  Li11      1.0  0.38800  0.07170  0.62800  1.0000
  Li  Li12      1.0  0.38800  0.42800  0.62800  1.0000
  Li  Li13      1.0  0.88800  0.07170  0.87200  1.0000
  Li  Li14      1.0  0.88800  0.42800  0.87200  1.0000
  Li  Li15      1.0  0.62800  0.55900  0.88000  1.0000
  Li  Li16      1.0  0.62800  0.94100  0.88000  1.0000
  Tb  Tb1       1.0  0.63500  0.25000  0.12900  1.0000
  Tb  Tb2       1.0  0.13500  0.25000  0.37100  1.0000
  Tb  Tb3       1.0  0.86500  0.75000  0.62900  1.0000
  Tb  Tb4       1.0  0.36500  0.75000  0.87100  1.0000
