data_image0
_chemical_formula_structural       Al4Cl16Li4
_chemical_formula_sum              "Al4 Cl16 Li4"
_cell_length_a       6.97964
_cell_length_b       6.48609
_cell_length_c       12.8781
_cell_angle_alpha    90
_cell_angle_beta     93.0762
_cell_angle_gamma    90

_space_group_name_H-M_alt    "P 1"
_space_group_IT_number       1

loop_
  _space_group_symop_operation_xyz
  'x, y, z'

loop_
  _atom_site_type_symbol
  _atom_site_label
  _atom_site_symmetry_multiplicity
  _atom_site_fract_x
  _atom_site_fract_y
  _atom_site_fract_z
  _atom_site_occupancy
  Al  Al1       1.0  0.29500  0.67800  0.10100  1.0000
  Al  Al2       1.0  0.70500  0.17800  0.39900  1.0000
  Al  Al3       1.0  0.29500  0.82200  0.60100  1.0000
  Al  Al4       1.0  0.70500  0.32200  0.89900  1.0000
  Cl  Cl1       1.0  0.69200  0.18100  0.04920  1.0000
  Cl  Cl2       1.0  0.18800  0.36900  0.06990  1.0000
  Cl  Cl3       1.0  0.06980  0.81900  0.18800  1.0000
  Cl  Cl4       1.0  0.56400  0.68500  0.18800  1.0000
  Cl  Cl5       1.0  0.43600  0.18500  0.31200  1.0000
  Cl  Cl6       1.0  0.93000  0.31900  0.31200  1.0000
  Cl  Cl7       1.0  0.81200  0.86900  0.43000  1.0000
  Cl  Cl8       1.0  0.30800  0.68100  0.45100  1.0000
  Cl  Cl9       1.0  0.69200  0.31900  0.54900  1.0000
  Cl  Cl10      1.0  0.18800  0.13100  0.57000  1.0000
  Cl  Cl11      1.0  0.06980  0.68100  0.68800  1.0000
  Cl  Cl12      1.0  0.56400  0.81500  0.68800  1.0000
  Cl  Cl13      1.0  0.43600  0.31500  0.81200  1.0000
  Cl  Cl14      1.0  0.93000  0.18100  0.81200  1.0000
  Cl  Cl15      1.0  0.81200  0.63100  0.93000  1.0000
  Cl  Cl16      1.0  0.30800  0.81900  0.95100  1.0000
  Li  Li1       1.0  0.84900  0.48500  0.13300  1.0000
  Li  Li2       1.0  0.15100  0.98500  0.36700  1.0000
  Li  Li3       1.0  0.84900  0.01510  0.63300  1.0000
  Li  Li4       1.0  0.15100  0.51500  0.86700  1.0000
