data_image0
_chemical_formula_structural       B24Li4Si4
_chemical_formula_sum              "B24 Li4 Si4"
_cell_length_a       6.096
_cell_length_b       6.27682
_cell_length_c       8.41188
_cell_angle_alpha    90
_cell_angle_beta     90
_cell_angle_gamma    60.9485

_space_group_name_H-M_alt    "P 1"
_space_group_IT_number       1

loop_
  _space_group_symop_operation_xyz
  'x, y, z'

loop_
  _atom_site_type_symbol
  _atom_site_label
  _atom_site_symmetry_multiplicity
  _atom_site_fract_x
  _atom_site_fract_y
  _atom_site_fract_z
  _atom_site_occupancy
  B   B1        1.0  0.31400  0.84200  0.03140  1.0000
  B   B2        1.0  0.84500  0.84200  0.03140  1.0000
  B   B3        1.0  0.84800  0.30400  0.05610  1.0000
  B   B4        1.0  0.10100  0.79900  0.15000  1.0000
  B   B5        1.0  0.12000  0.07900  0.16600  1.0000
  B   B6        1.0  0.80100  0.07900  0.16600  1.0000
  B   B7        1.0  0.30100  0.07900  0.33400  1.0000
  B   B8        1.0  0.62000  0.07900  0.33400  1.0000
  B   B9        1.0  0.60100  0.79900  0.35000  1.0000
  B   B10       1.0  0.34800  0.30400  0.44400  1.0000
  B   B11       1.0  0.34500  0.84200  0.46900  1.0000
  B   B12       1.0  0.81400  0.84200  0.46900  1.0000
  B   B13       1.0  0.18600  0.15800  0.53100  1.0000
  B   B14       1.0  0.65500  0.15800  0.53100  1.0000
  B   B15       1.0  0.65200  0.69600  0.55600  1.0000
  B   B16       1.0  0.39900  0.20100  0.65000  1.0000
  B   B17       1.0  0.38000  0.92100  0.66600  1.0000
  B   B18       1.0  0.69900  0.92100  0.66600  1.0000
  B   B19       1.0  0.19900  0.92100  0.83400  1.0000
  B   B20       1.0  0.88000  0.92100  0.83400  1.0000
  B   B21       1.0  0.89900  0.20100  0.85000  1.0000
  B   B22       1.0  0.15200  0.69600  0.94400  1.0000
  B   B23       1.0  0.15500  0.15800  0.96900  1.0000
  B   B24       1.0  0.68600  0.15800  0.96900  1.0000
  Li  Li1       1.0  0.32400  0.35200  0.16000  1.0000
  Li  Li2       1.0  0.82400  0.35200  0.34000  1.0000
  Li  Li3       1.0  0.17600  0.64800  0.66000  1.0000
  Li  Li4       1.0  0.67600  0.64800  0.84000  1.0000
  Si  Si1       1.0  0.66600  0.66900  0.12000  1.0000
  Si  Si2       1.0  0.16600  0.66900  0.38000  1.0000
  Si  Si3       1.0  0.83400  0.33100  0.62000  1.0000
  Si  Si4       1.0  0.33400  0.33100  0.88000  1.0000
