data_image0
_chemical_formula_structural       F8H4P4S4
_chemical_formula_sum              "F8 H4 P4 S4"
_cell_length_a       8.80795
_cell_length_b       4.06341
_cell_length_c       7.90387
_cell_angle_alpha    90
_cell_angle_beta     98.9406
_cell_angle_gamma    90

_space_group_name_H-M_alt    "P 1"
_space_group_IT_number       1

loop_
  _space_group_symop_operation_xyz
  'x, y, z'

loop_
  _atom_site_type_symbol
  _atom_site_label
  _atom_site_symmetry_multiplicity
  _atom_site_fract_x
  _atom_site_fract_y
  _atom_site_fract_z
  _atom_site_occupancy
  F   F1        1.0  0.39000  0.24800  0.00367  1.0000
  F   F2        1.0  0.38400  0.66100  0.21600  1.0000
  F   F3        1.0  0.61600  0.16100  0.28400  1.0000
  F   F4        1.0  0.61000  0.74800  0.49600  1.0000
  F   F5        1.0  0.39000  0.25200  0.50400  1.0000
  F   F6        1.0  0.38400  0.83900  0.71600  1.0000
  F   F7        1.0  0.61600  0.33900  0.78400  1.0000
  F   F8        1.0  0.61000  0.75200  0.99600  1.0000
  H   H1        1.0  0.77000  0.29800  0.04950  1.0000
  H   H2        1.0  0.23000  0.79800  0.45100  1.0000
  H   H3        1.0  0.77000  0.20200  0.54900  1.0000
  H   H4        1.0  0.23000  0.70200  0.95100  1.0000
  P   P1        1.0  0.26800  0.46700  0.07930  1.0000
  P   P2        1.0  0.73200  0.96700  0.42100  1.0000
  P   P3        1.0  0.26800  0.03350  0.57900  1.0000
  P   P4        1.0  0.73200  0.53300  0.92100  1.0000
  S   S1        1.0  0.11300  0.22700  0.16700  1.0000
  S   S2        1.0  0.88700  0.72700  0.33300  1.0000
  S   S3        1.0  0.11300  0.27300  0.66700  1.0000
  S   S4        1.0  0.88700  0.77300  0.83300  1.0000
