data_image0
_chemical_formula_structural       F18Li6Mn3
_chemical_formula_sum              "F18 Li6 Mn3"
_cell_length_a       8.24416
_cell_length_b       8.24417
_cell_length_c       4.27116
_cell_angle_alpha    90
_cell_angle_beta     89.9999
_cell_angle_gamma    120

_space_group_name_H-M_alt    "P 1"
_space_group_IT_number       1

loop_
  _space_group_symop_operation_xyz
  'x, y, z'

loop_
  _atom_site_type_symbol
  _atom_site_label
  _atom_site_symmetry_multiplicity
  _atom_site_fract_x
  _atom_site_fract_y
  _atom_site_fract_z
  _atom_site_occupancy
  F   F1        1.0  0.10700  0.21400  0.23200  1.0000
  F   F2        1.0  0.10700  0.89300  0.23200  1.0000
  F   F3        1.0  0.78600  0.89300  0.23200  1.0000
  F   F4        1.0  0.43900  0.87700  0.25700  1.0000
  F   F5        1.0  0.43900  0.56100  0.25700  1.0000
  F   F6        1.0  0.12300  0.56100  0.25700  1.0000
  F   F7        1.0  0.45700  0.22800  0.26200  1.0000
  F   F8        1.0  0.77200  0.54300  0.26200  1.0000
  F   F9        1.0  0.77200  0.22800  0.26200  1.0000
  F   F10       1.0  0.22800  0.45700  0.73800  1.0000
  F   F11       1.0  0.22800  0.77200  0.73800  1.0000
  F   F12       1.0  0.54300  0.77200  0.73800  1.0000
  F   F13       1.0  0.87700  0.43900  0.74300  1.0000
  F   F14       1.0  0.56100  0.12300  0.74300  1.0000
  F   F15       1.0  0.56100  0.43900  0.74300  1.0000
  F   F16       1.0  0.21400  0.10700  0.76800  1.0000
  F   F17       1.0  0.89300  0.10700  0.76800  1.0000
  F   F18       1.0  0.89300  0.78600  0.76800  1.0000
  Li  Li1       1.0  0.34200  0.00000  0.00000  1.0000
  Li  Li2       1.0  0.34200  0.34200  0.00000  1.0000
  Li  Li3       1.0  0.00000  0.34200  1.00000  1.0000
  Li  Li4       1.0  0.00000  0.65800  0.00000  1.0000
  Li  Li5       1.0  0.65800  0.65800  0.00000  1.0000
  Li  Li6       1.0  0.65800  0.00000  0.00000  1.0000
  Mn  Mn1       1.0  0.00000  0.00000  0.00000  1.0000
  Mn  Mn2       1.0  0.33300  0.66700  0.49800  1.0000
  Mn  Mn3       1.0  0.66700  0.33300  0.50200  1.0000
