data_image0
_chemical_formula_structural       Li24N16Sc8
_chemical_formula_sum              "Li24 N16 Sc8"
_cell_length_a       8.65155
_cell_length_b       8.65155
_cell_length_c       8.65155
_cell_angle_alpha    109.471
_cell_angle_beta     109.471
_cell_angle_gamma    109.471

_space_group_name_H-M_alt    "P 1"
_space_group_IT_number       1

loop_
  _space_group_symop_operation_xyz
  'x, y, z'

loop_
  _atom_site_type_symbol
  _atom_site_label
  _atom_site_symmetry_multiplicity
  _atom_site_fract_x
  _atom_site_fract_y
  _atom_site_fract_z
  _atom_site_occupancy
  Li  Li1       1.0  0.95800  0.73300  0.99700  1.0000
  Li  Li2       1.0  0.04170  0.26700  0.00291  1.0000
  Li  Li3       1.0  0.49700  0.76500  0.03880  1.0000
  Li  Li4       1.0  0.76700  0.50300  0.04170  1.0000
  Li  Li5       1.0  0.76500  0.76700  0.22600  1.0000
  Li  Li6       1.0  0.99700  0.45800  0.23300  1.0000
  Li  Li7       1.0  0.73300  0.27400  0.23500  1.0000
  Li  Li8       1.0  0.03880  0.99700  0.26500  1.0000
  Li  Li9       1.0  0.22600  0.26500  0.26700  1.0000
  Li  Li10      1.0  0.54200  0.03880  0.27400  1.0000
  Li  Li11      1.0  0.46100  0.22600  0.45800  1.0000
  Li  Li12      1.0  0.72600  0.95800  0.46100  1.0000
  Li  Li13      1.0  0.26500  0.53900  0.49700  1.0000
  Li  Li14      1.0  0.73500  0.46100  0.50300  1.0000
  Li  Li15      1.0  0.27400  0.04170  0.53900  1.0000
  Li  Li16      1.0  0.53900  0.77400  0.54200  1.0000
  Li  Li17      1.0  0.45800  0.96100  0.72600  1.0000
  Li  Li18      1.0  0.77400  0.73500  0.73300  1.0000
  Li  Li19      1.0  0.96100  0.00291  0.73500  1.0000
  Li  Li20      1.0  0.26700  0.72600  0.76500  1.0000
  Li  Li21      1.0  0.00291  0.54200  0.76700  1.0000
  Li  Li22      1.0  0.23500  0.23300  0.77400  1.0000
  Li  Li23      1.0  0.23300  0.49700  0.95800  1.0000
  Li  Li24      1.0  0.50300  0.23500  0.96100  1.0000
  N   N1        1.0  0.00000  0.00000  0.00000  1.0000
  N   N2        1.0  0.50000  0.50000  0.00000  1.0000
  N   N3        1.0  0.25000  0.76300  0.01270  1.0000
  N   N4        1.0  0.48700  0.25000  0.23700  1.0000
  N   N5        1.0  0.76300  0.01270  0.25000  1.0000
  N   N6        1.0  0.26300  0.51300  0.25000  1.0000
  N   N7        1.0  0.01270  0.75000  0.26300  1.0000
  N   N8        1.0  0.75000  0.73700  0.48700  1.0000
  N   N9        1.0  0.50000  0.00000  0.50000  1.0000
  N   N10       1.0  0.00000  0.50000  0.50000  1.0000
  N   N11       1.0  0.25000  0.26300  0.51300  1.0000
  N   N12       1.0  0.98700  0.25000  0.73700  1.0000
  N   N13       1.0  0.73700  0.48700  0.75000  1.0000
  N   N14       1.0  0.23700  0.98700  0.75000  1.0000
  N   N15       1.0  0.51300  0.75000  0.76300  1.0000
  N   N16       1.0  0.75000  0.23700  0.98700  1.0000
  Sc  Sc1       1.0  0.24300  0.00000  0.00000  1.0000
  Sc  Sc2       1.0  0.75700  0.00000  0.00000  1.0000
  Sc  Sc3       1.0  0.50000  0.50000  0.24300  1.0000
  Sc  Sc4       1.0  0.25700  0.75700  0.25700  1.0000
  Sc  Sc5       1.0  0.00000  0.25700  0.50000  1.0000
  Sc  Sc6       1.0  0.00000  0.74300  0.50000  1.0000
  Sc  Sc7       1.0  0.74300  0.24300  0.74300  1.0000
  Sc  Sc8       1.0  0.50000  0.50000  0.75700  1.0000
