data_image0
_chemical_formula_structural       Eu12Li4O16
_chemical_formula_sum              "Eu12 Li4 O16"
_cell_length_a       11.4233
_cell_length_b       11.158
_cell_length_c       3.38953
_cell_angle_alpha    90
_cell_angle_beta     90
_cell_angle_gamma    90.0009

_space_group_name_H-M_alt    "P 1"
_space_group_IT_number       1

loop_
  _space_group_symop_operation_xyz
  'x, y, z'

loop_
  _atom_site_type_symbol
  _atom_site_label
  _atom_site_symmetry_multiplicity
  _atom_site_fract_x
  _atom_site_fract_y
  _atom_site_fract_z
  _atom_site_occupancy
  Eu  Eu1       1.0  0.42900  0.13600  0.25000  1.0000
  Eu  Eu2       1.0  0.20500  0.36200  0.25000  1.0000
  Eu  Eu3       1.0  0.61300  0.39800  0.25000  1.0000
  Eu  Eu4       1.0  0.07070  0.63600  0.25000  1.0000
  Eu  Eu5       1.0  0.29500  0.86200  0.25000  1.0000
  Eu  Eu6       1.0  0.88700  0.89800  0.25000  1.0000
  Eu  Eu7       1.0  0.11300  0.10200  0.75000  1.0000
  Eu  Eu8       1.0  0.70500  0.13800  0.75000  1.0000
  Eu  Eu9       1.0  0.92900  0.36400  0.75000  1.0000
  Eu  Eu10      1.0  0.38700  0.60200  0.75000  1.0000
  Eu  Eu11      1.0  0.79500  0.63800  0.75000  1.0000
  Eu  Eu12      1.0  0.57100  0.86400  0.75000  1.0000
  Li  Li1       1.0  0.90700  0.15000  0.25000  1.0000
  Li  Li2       1.0  0.59300  0.65000  0.25000  1.0000
  Li  Li3       1.0  0.40700  0.35000  0.75000  1.0000
  Li  Li4       1.0  0.09270  0.85000  0.75000  1.0000
  O   O1        1.0  0.61800  0.01620  0.25000  1.0000
  O   O2        1.0  0.04310  0.24100  0.25000  1.0000
  O   O3        1.0  0.78600  0.27200  0.25000  1.0000
  O   O4        1.0  0.39800  0.44200  0.25000  1.0000
  O   O5        1.0  0.88200  0.51600  0.25000  1.0000
  O   O6        1.0  0.45700  0.74100  0.25000  1.0000
  O   O7        1.0  0.71400  0.77200  0.25000  1.0000
  O   O8        1.0  0.10200  0.94200  0.25000  1.0000
  O   O9        1.0  0.89800  0.05780  0.75000  1.0000
  O   O10       1.0  0.28600  0.22800  0.75000  1.0000
  O   O11       1.0  0.54300  0.25900  0.75000  1.0000
  O   O12       1.0  0.11800  0.48400  0.75000  1.0000
  O   O13       1.0  0.60200  0.55800  0.75000  1.0000
  O   O14       1.0  0.21400  0.72800  0.75000  1.0000
  O   O15       1.0  0.95700  0.75900  0.75000  1.0000
  O   O16       1.0  0.38200  0.98400  0.75000  1.0000
