data_image0
_chemical_formula_structural       Br12Ga4Li4
_chemical_formula_sum              "Br12 Ga4 Li4"
_cell_length_a       8.03621
_cell_length_b       10.5477
_cell_length_c       6.59491
_cell_angle_alpha    90
_cell_angle_beta     93.1886
_cell_angle_gamma    90

_space_group_name_H-M_alt    "P 1"
_space_group_IT_number       1

loop_
  _space_group_symop_operation_xyz
  'x, y, z'

loop_
  _atom_site_type_symbol
  _atom_site_label
  _atom_site_symmetry_multiplicity
  _atom_site_fract_x
  _atom_site_fract_y
  _atom_site_fract_z
  _atom_site_occupancy
  Br  Br1       1.0  0.45800  0.25000  0.13700  1.0000
  Br  Br2       1.0  0.18900  0.56900  0.17500  1.0000
  Br  Br3       1.0  0.18900  0.93100  0.17500  1.0000
  Br  Br4       1.0  0.93000  0.25000  0.33300  1.0000
  Br  Br5       1.0  0.68000  0.57000  0.33900  1.0000
  Br  Br6       1.0  0.68000  0.93000  0.33900  1.0000
  Br  Br7       1.0  0.32000  0.06970  0.66100  1.0000
  Br  Br8       1.0  0.32000  0.43000  0.66100  1.0000
  Br  Br9       1.0  0.06990  0.75000  0.66700  1.0000
  Br  Br10      1.0  0.81100  0.06890  0.82500  1.0000
  Br  Br11      1.0  0.81100  0.43100  0.82500  1.0000
  Br  Br12      1.0  0.54200  0.75000  0.86300  1.0000
  Ga  Ga1       1.0  0.03670  0.75000  0.03010  1.0000
  Ga  Ga2       1.0  0.75400  0.75000  0.13600  1.0000
  Ga  Ga3       1.0  0.24600  0.25000  0.86400  1.0000
  Ga  Ga4       1.0  0.96300  0.25000  0.97000  1.0000
  Li  Li1       1.0  0.50000  0.00000  0.00000  1.0000
  Li  Li2       1.0  0.50000  0.50000  0.00000  1.0000
  Li  Li3       1.0  0.00000  0.00000  0.50000  1.0000
  Li  Li4       1.0  0.00000  0.50000  0.50000  1.0000
