data_image0
_chemical_formula_structural       F24Li8Tb4
_chemical_formula_sum              "F24 Li8 Tb4"
_cell_length_a       7.56385
_cell_length_b       4.61187
_cell_length_c       11.097
_cell_angle_alpha    89.9992
_cell_angle_beta     106.307
_cell_angle_gamma    90

_space_group_name_H-M_alt    "P 1"
_space_group_IT_number       1

loop_
  _space_group_symop_operation_xyz
  'x, y, z'

loop_
  _atom_site_type_symbol
  _atom_site_label
  _atom_site_symmetry_multiplicity
  _atom_site_fract_x
  _atom_site_fract_y
  _atom_site_fract_z
  _atom_site_occupancy
  F   F1        1.0  0.03220  0.25200  0.04000  1.0000
  F   F2        1.0  0.73500  0.04190  0.07920  1.0000
  F   F3        1.0  0.54200  0.62300  0.10600  1.0000
  F   F4        1.0  0.39500  0.20800  0.15400  1.0000
  F   F5        1.0  0.25200  0.75500  0.17500  1.0000
  F   F6        1.0  0.92400  0.61400  0.19500  1.0000
  F   F7        1.0  0.07560  0.11400  0.30500  1.0000
  F   F8        1.0  0.74800  0.25500  0.32500  1.0000
  F   F9        1.0  0.60500  0.70800  0.34600  1.0000
  F   F10       1.0  0.45800  0.12300  0.39400  1.0000
  F   F11       1.0  0.26500  0.54200  0.42100  1.0000
  F   F12       1.0  0.96800  0.75200  0.46000  1.0000
  F   F13       1.0  0.03220  0.24800  0.54000  1.0000
  F   F14       1.0  0.73500  0.45800  0.57900  1.0000
  F   F15       1.0  0.54200  0.87700  0.60600  1.0000
  F   F16       1.0  0.39500  0.29200  0.65400  1.0000
  F   F17       1.0  0.25200  0.74500  0.67500  1.0000
  F   F18       1.0  0.92400  0.88600  0.69500  1.0000
  F   F19       1.0  0.07560  0.38600  0.80500  1.0000
  F   F20       1.0  0.74800  0.24500  0.82500  1.0000
  F   F21       1.0  0.60500  0.79200  0.84600  1.0000
  F   F22       1.0  0.45800  0.37700  0.89400  1.0000
  F   F23       1.0  0.26500  0.95800  0.92100  1.0000
  F   F24       1.0  0.96800  0.74800  0.96000  1.0000
  Li  Li1       1.0  0.02370  0.95400  0.14900  1.0000
  Li  Li2       1.0  0.60900  0.97100  0.20300  1.0000
  Li  Li3       1.0  0.39100  0.47100  0.29700  1.0000
  Li  Li4       1.0  0.97600  0.45400  0.35100  1.0000
  Li  Li5       1.0  0.02360  0.54600  0.64900  1.0000
  Li  Li6       1.0  0.60900  0.52900  0.70300  1.0000
  Li  Li7       1.0  0.39100  0.02870  0.79700  1.0000
  Li  Li8       1.0  0.97600  0.04620  0.85100  1.0000
  Tb  Tb1       1.0  0.75200  0.48800  0.00778  1.0000
  Tb  Tb2       1.0  0.24800  0.98800  0.49200  1.0000
  Tb  Tb3       1.0  0.75200  0.01250  0.50800  1.0000
  Tb  Tb4       1.0  0.24800  0.51200  0.99200  1.0000
