data_image0
_chemical_formula_structural       Al2H12K2Na4
_chemical_formula_sum              "Al2 H12 K2 Na4"
_cell_length_a       5.88599
_cell_length_b       5.19191
_cell_length_c       8.12155
_cell_angle_alpha    90
_cell_angle_beta     83.3416
_cell_angle_gamma    90

_space_group_name_H-M_alt    "P 1"
_space_group_IT_number       1

loop_
  _space_group_symop_operation_xyz
  'x, y, z'

loop_
  _atom_site_type_symbol
  _atom_site_label
  _atom_site_symmetry_multiplicity
  _atom_site_fract_x
  _atom_site_fract_y
  _atom_site_fract_z
  _atom_site_occupancy
  Al  Al1       1.0  0.10900  0.03440  0.01230  1.0000
  Al  Al2       1.0  0.89100  0.53400  0.98800  1.0000
  H   H1        1.0  0.38700  0.12100  0.03580  1.0000
  H   H2        1.0  0.75500  0.49500  0.20700  1.0000
  H   H3        1.0  0.07130  0.06980  0.24200  1.0000
  H   H4        1.0  0.25300  0.59700  0.42300  1.0000
  H   H5        1.0  0.32600  0.20500  0.46300  1.0000
  H   H6        1.0  0.60700  0.62200  0.48100  1.0000
  H   H7        1.0  0.39300  0.12200  0.51900  1.0000
  H   H8        1.0  0.67400  0.70500  0.53700  1.0000
  H   H9        1.0  0.74700  0.09720  0.57700  1.0000
  H   H10       1.0  0.92900  0.57000  0.75800  1.0000
  H   H11       1.0  0.24500  0.99500  0.79300  1.0000
  H   H12       1.0  0.61300  0.62100  0.96400  1.0000
  K   K1        1.0  0.63500  0.97400  0.25900  1.0000
  K   K2        1.0  0.36500  0.47400  0.74100  1.0000
  Na  Na1       1.0  0.34200  0.50400  0.16200  1.0000
  Na  Na2       1.0  0.93200  0.38800  0.41900  1.0000
  Na  Na3       1.0  0.06820  0.88800  0.58100  1.0000
  Na  Na4       1.0  0.65800  0.00439  0.83800  1.0000
