data_image0
_chemical_formula_structural       BBe2F2KO3
_chemical_formula_sum              "B1 Be2 F2 K1 O3"
_cell_length_a       4.4118
_cell_length_b       4.4124
_cell_length_c       6.35117
_cell_angle_alpha    110.102
_cell_angle_beta     110.324
_cell_angle_gamma    60.0045

_space_group_name_H-M_alt    "P 1"
_space_group_IT_number       1

loop_
  _space_group_symop_operation_xyz
  'x, y, z'

loop_
  _atom_site_type_symbol
  _atom_site_label
  _atom_site_symmetry_multiplicity
  _atom_site_fract_x
  _atom_site_fract_y
  _atom_site_fract_z
  _atom_site_occupancy
  B   B1        1.0  0.50900  0.50000  0.50000  1.0000
  Be  Be1       1.0  0.80800  0.80000  0.40000  1.0000
  Be  Be2       1.0  0.20800  0.20000  0.60000  1.0000
  F   F1        1.0  0.71800  0.71200  0.13900  1.0000
  F   F2        1.0  0.29100  0.28800  0.86100  1.0000
  K   K1        1.0  0.00453  0.00000  0.00000  1.0000
  O   O1        1.0  0.81900  0.18800  0.49800  1.0000
  O   O2        1.0  0.19800  0.50000  0.50000  1.0000
  O   O3        1.0  0.51000  0.81200  0.50200  1.0000
