data_image0
_chemical_formula_structural       C2Dy2Fe4Si2
_chemical_formula_sum              "C2 Dy2 Fe4 Si2"
_cell_length_a       3.74442
_cell_length_b       5.53064
_cell_length_c       6.73838
_cell_angle_alpha    90
_cell_angle_beta     90
_cell_angle_gamma    70.2136

_space_group_name_H-M_alt    "P 1"
_space_group_IT_number       1

loop_
  _space_group_symop_operation_xyz
  'x, y, z'

loop_
  _atom_site_type_symbol
  _atom_site_label
  _atom_site_symmetry_multiplicity
  _atom_site_fract_x
  _atom_site_fract_y
  _atom_site_fract_z
  _atom_site_occupancy
  C   C1        1.0  0.50000  0.00000  0.00000  1.0000
  C   C2        1.0  0.50000  0.00000  0.50000  1.0000
  Dy  Dy1       1.0  0.94900  0.10100  0.25000  1.0000
  Dy  Dy2       1.0  0.05070  0.89900  0.75000  1.0000
  Fe  Fe1       1.0  0.66600  0.66800  0.06240  1.0000
  Fe  Fe2       1.0  0.66600  0.66800  0.43800  1.0000
  Fe  Fe3       1.0  0.33400  0.33200  0.56200  1.0000
  Fe  Fe4       1.0  0.33400  0.33200  0.93800  1.0000
  Si  Si1       1.0  0.23000  0.54100  0.25000  1.0000
  Si  Si2       1.0  0.77000  0.45900  0.75000  1.0000
