data_image0
_chemical_formula_structural       Cs2F6TlV
_chemical_formula_sum              "Cs2 F6 Tl1 V1"
_cell_length_a       6.42137
_cell_length_b       6.42137
_cell_length_c       6.42137
_cell_angle_alpha    120
_cell_angle_beta     90
_cell_angle_gamma    120

_space_group_name_H-M_alt    "P 1"
_space_group_IT_number       1

loop_
  _space_group_symop_operation_xyz
  'x, y, z'

loop_
  _atom_site_type_symbol
  _atom_site_label
  _atom_site_symmetry_multiplicity
  _atom_site_fract_x
  _atom_site_fract_y
  _atom_site_fract_z
  _atom_site_occupancy
  Cs  Cs1       1.0  0.75000  0.50000  0.25000  1.0000
  Cs  Cs2       1.0  0.25000  0.50000  0.75000  1.0000
  F   F1        1.0  0.21400  0.00000  0.21400  1.0000
  F   F2        1.0  0.21400  0.42800  0.21400  1.0000
  F   F3        1.0  0.78600  0.00000  0.21400  1.0000
  F   F4        1.0  0.21400  0.00000  0.78600  1.0000
  F   F5        1.0  0.78600  0.00000  0.78600  1.0000
  F   F6        1.0  0.78600  0.57200  0.78600  1.0000
  Tl  Tl1       1.0  0.50000  0.00000  0.50000  1.0000
  V   V1        1.0  0.00000  0.00000  0.00000  1.0000
