data_image0
_chemical_formula_structural       C4O4Rb2
_chemical_formula_sum              "C4 O4 Rb2"
_cell_length_a       4.38823
_cell_length_b       6.33873
_cell_length_c       6.33873
_cell_angle_alpha    65.3135
_cell_angle_beta     92.6983
_cell_angle_gamma    92.6983

_space_group_name_H-M_alt    "P 1"
_space_group_IT_number       1

loop_
  _space_group_symop_operation_xyz
  'x, y, z'

loop_
  _atom_site_type_symbol
  _atom_site_label
  _atom_site_symmetry_multiplicity
  _atom_site_fract_x
  _atom_site_fract_y
  _atom_site_fract_z
  _atom_site_occupancy
  C   C1        1.0  0.10500  0.84000  0.05600  1.0000
  C   C2        1.0  0.89500  0.94400  0.16000  1.0000
  C   C3        1.0  0.10500  0.05600  0.84000  1.0000
  C   C4        1.0  0.89500  0.16000  0.94400  1.0000
  O   O1        1.0  0.22700  0.64500  0.12500  1.0000
  O   O2        1.0  0.77300  0.87500  0.35500  1.0000
  O   O3        1.0  0.22700  0.12500  0.64500  1.0000
  O   O4        1.0  0.77300  0.35500  0.87500  1.0000
  Rb  Rb1       1.0  0.70200  0.34300  0.34300  1.0000
  Rb  Rb2       1.0  0.29800  0.65700  0.65700  1.0000
