data_image0
_chemical_formula_structural       Ba2Bi2Cl2O4
_chemical_formula_sum              "Ba2 Bi2 Cl2 O4"
_cell_length_a       5.72485
_cell_length_b       5.9188
_cell_length_c       7.119
_cell_angle_alpha    65.4363
_cell_angle_beta     90
_cell_angle_gamma    90

_space_group_name_H-M_alt    "P 1"
_space_group_IT_number       1

loop_
  _space_group_symop_operation_xyz
  'x, y, z'

loop_
  _atom_site_type_symbol
  _atom_site_label
  _atom_site_symmetry_multiplicity
  _atom_site_fract_x
  _atom_site_fract_y
  _atom_site_fract_z
  _atom_site_occupancy
  Ba  Ba1       1.0  0.75000  0.37900  0.24100  1.0000
  Ba  Ba2       1.0  0.25000  0.62100  0.75900  1.0000
  Bi  Bi1       1.0  0.25000  0.92300  0.15500  1.0000
  Bi  Bi2       1.0  0.75000  0.07730  0.84500  1.0000
  Cl  Cl1       1.0  0.25000  0.25400  0.49300  1.0000
  Cl  Cl2       1.0  0.75000  0.74600  0.50700  1.0000
  O   O1        1.0  0.00000  0.22800  0.00000  1.0000
  O   O2        1.0  0.50000  0.22800  0.00000  1.0000
  O   O3        1.0  0.00000  0.77200  0.00000  1.0000
  O   O4        1.0  0.50000  0.77200  0.00000  1.0000
