data_image0
_chemical_formula_structural       P2S6Tl2
_chemical_formula_sum              "P2 S6 Tl2"
_cell_length_a       6.98638
_cell_length_b       7.01782
_cell_length_c       7.01782
_cell_angle_alpha    109.793
_cell_angle_beta     60.1481
_cell_angle_gamma    119.852

_space_group_name_H-M_alt    "P 1"
_space_group_IT_number       1

loop_
  _space_group_symop_operation_xyz
  'x, y, z'

loop_
  _atom_site_type_symbol
  _atom_site_label
  _atom_site_symmetry_multiplicity
  _atom_site_fract_x
  _atom_site_fract_y
  _atom_site_fract_z
  _atom_site_occupancy
  P   P1        1.0  0.66300  0.66300  0.33700  1.0000
  P   P2        1.0  0.33700  0.33700  0.66300  1.0000
  S   S1        1.0  0.01940  0.77800  0.22200  1.0000
  S   S2        1.0  0.53600  0.77800  0.22200  1.0000
  S   S3        1.0  0.50000  0.30600  0.30600  1.0000
  S   S4        1.0  0.50000  0.69400  0.69400  1.0000
  S   S5        1.0  0.46400  0.22200  0.77800  1.0000
  S   S6        1.0  0.98100  0.22200  0.77800  1.0000
  Tl  Tl1       1.0  0.00000  0.26300  0.26300  1.0000
  Tl  Tl2       1.0  0.00000  0.73700  0.73700  1.0000
