data_image0
_chemical_formula_structural       F36Ga6Li18
_chemical_formula_sum              "F36 Ga6 Li18"
_cell_length_a       8.10489
_cell_length_b       8.10489
_cell_length_c       9.6536
_cell_angle_alpha    95.1241
_cell_angle_beta     95.1241
_cell_angle_gamma    62.6298

_space_group_name_H-M_alt    "P 1"
_space_group_IT_number       1

loop_
  _space_group_symop_operation_xyz
  'x, y, z'

loop_
  _atom_site_type_symbol
  _atom_site_label
  _atom_site_symmetry_multiplicity
  _atom_site_fract_x
  _atom_site_fract_y
  _atom_site_fract_z
  _atom_site_occupancy
  F   F1        1.0  0.42200  0.40900  0.06110  1.0000
  F   F2        1.0  0.75800  0.08400  0.06550  1.0000
  F   F3        1.0  0.09400  0.75700  0.06710  1.0000
  F   F4        1.0  0.09530  0.41400  0.11900  1.0000
  F   F5        1.0  0.42500  0.10200  0.12200  1.0000
  F   F6        1.0  0.72300  0.77100  0.14500  1.0000
  F   F7        1.0  0.08470  0.06910  0.17300  1.0000
  F   F8        1.0  0.42400  0.74700  0.18600  1.0000
  F   F9        1.0  0.75200  0.43000  0.18900  1.0000
  F   F10       1.0  0.57000  0.24800  0.31100  1.0000
  F   F11       1.0  0.25300  0.57600  0.31400  1.0000
  F   F12       1.0  0.93100  0.91500  0.32700  1.0000
  F   F13       1.0  0.22900  0.27700  0.35500  1.0000
  F   F14       1.0  0.89800  0.57500  0.37800  1.0000
  F   F15       1.0  0.58600  0.90500  0.38100  1.0000
  F   F16       1.0  0.24300  0.90600  0.43300  1.0000
  F   F17       1.0  0.91600  0.24200  0.43500  1.0000
  F   F18       1.0  0.59100  0.57800  0.43900  1.0000
  F   F19       1.0  0.40900  0.42200  0.56100  1.0000
  F   F20       1.0  0.08400  0.75800  0.56500  1.0000
  F   F21       1.0  0.75700  0.09400  0.56700  1.0000
  F   F22       1.0  0.41400  0.09530  0.61900  1.0000
  F   F23       1.0  0.10200  0.42500  0.62200  1.0000
  F   F24       1.0  0.77100  0.72300  0.64500  1.0000
  F   F25       1.0  0.06910  0.08470  0.67300  1.0000
  F   F26       1.0  0.74700  0.42400  0.68600  1.0000
  F   F27       1.0  0.43000  0.75200  0.68900  1.0000
  F   F28       1.0  0.24800  0.57000  0.81100  1.0000
  F   F29       1.0  0.57600  0.25300  0.81400  1.0000
  F   F30       1.0  0.91500  0.93100  0.82700  1.0000
  F   F31       1.0  0.27700  0.22900  0.85500  1.0000
  F   F32       1.0  0.57500  0.89800  0.87800  1.0000
  F   F33       1.0  0.90500  0.58600  0.88100  1.0000
  F   F34       1.0  0.90600  0.24300  0.93300  1.0000
  F   F35       1.0  0.24200  0.91600  0.93500  1.0000
  F   F36       1.0  0.57800  0.59100  0.93900  1.0000
  Ga  Ga1       1.0  0.00000  0.00000  0.00000  1.0000
  Ga  Ga2       1.0  0.33700  0.34400  0.21300  1.0000
  Ga  Ga3       1.0  0.65600  0.66300  0.28700  1.0000
  Ga  Ga4       1.0  0.00000  0.00000  0.50000  1.0000
  Ga  Ga5       1.0  0.34400  0.33700  0.71300  1.0000
  Ga  Ga6       1.0  0.66300  0.65600  0.78700  1.0000
  Li  Li1       1.0  0.66900  0.35900  0.02280  1.0000
  Li  Li2       1.0  0.47300  0.86600  0.04360  1.0000
  Li  Li3       1.0  0.94000  0.65300  0.06690  1.0000
  Li  Li4       1.0  0.69500  0.00609  0.23300  1.0000
  Li  Li5       1.0  0.18300  0.81700  0.25000  1.0000
  Li  Li6       1.0  0.99400  0.30500  0.26700  1.0000
  Li  Li7       1.0  0.34700  0.06020  0.43300  1.0000
  Li  Li8       1.0  0.13400  0.52700  0.45600  1.0000
  Li  Li9       1.0  0.64100  0.33100  0.47700  1.0000
  Li  Li10      1.0  0.35900  0.66900  0.52300  1.0000
  Li  Li11      1.0  0.86600  0.47300  0.54400  1.0000
  Li  Li12      1.0  0.65300  0.94000  0.56700  1.0000
  Li  Li13      1.0  0.00609  0.69500  0.73300  1.0000
  Li  Li14      1.0  0.81700  0.18300  0.75000  1.0000
  Li  Li15      1.0  0.30500  0.99400  0.76700  1.0000
  Li  Li16      1.0  0.06020  0.34700  0.93300  1.0000
  Li  Li17      1.0  0.52700  0.13400  0.95600  1.0000
  Li  Li18      1.0  0.33100  0.64100  0.97700  1.0000
