data_image0
_chemical_formula_structural       Li8Mo10O34
_chemical_formula_sum              "Li8 Mo10 O34"
_cell_length_a       6.71184
_cell_length_b       9.43237
_cell_length_c       10.727
_cell_angle_alpha    73.1078
_cell_angle_beta     88.8852
_cell_angle_gamma    69.7801

_space_group_name_H-M_alt    "P 1"
_space_group_IT_number       1

loop_
  _space_group_symop_operation_xyz
  'x, y, z'

loop_
  _atom_site_type_symbol
  _atom_site_label
  _atom_site_symmetry_multiplicity
  _atom_site_fract_x
  _atom_site_fract_y
  _atom_site_fract_z
  _atom_site_occupancy
  Li  Li1       1.0  0.03710  0.21000  0.07480  1.0000
  Li  Li2       1.0  0.18800  0.60200  0.30300  1.0000
  Li  Li3       1.0  0.25800  0.05220  0.36300  1.0000
  Li  Li4       1.0  0.80000  0.28600  0.43300  1.0000
  Li  Li5       1.0  0.20000  0.71400  0.56700  1.0000
  Li  Li6       1.0  0.74200  0.94800  0.63700  1.0000
  Li  Li7       1.0  0.81200  0.39800  0.69700  1.0000
  Li  Li8       1.0  0.96300  0.79000  0.92500  1.0000
  Mo  Mo1       1.0  0.35900  0.87900  0.02670  1.0000
  Mo  Mo2       1.0  0.75000  0.54100  0.14900  1.0000
  Mo  Mo3       1.0  0.47300  0.29300  0.20500  1.0000
  Mo  Mo4       1.0  0.85300  0.94300  0.33500  1.0000
  Mo  Mo5       1.0  0.61700  0.69100  0.39600  1.0000
  Mo  Mo6       1.0  0.38300  0.30900  0.60400  1.0000
  Mo  Mo7       1.0  0.14700  0.05720  0.66500  1.0000
  Mo  Mo8       1.0  0.52700  0.70700  0.79500  1.0000
  Mo  Mo9       1.0  0.25000  0.45900  0.85100  1.0000
  Mo  Mo10      1.0  0.64100  0.12100  0.97300  1.0000
  O   O1        1.0  0.44700  0.33800  0.01110  1.0000
  O   O2        1.0  0.30900  0.07250  0.03630  1.0000
  O   O3        1.0  0.12900  0.83900  0.06230  1.0000
  O   O4        1.0  0.96900  0.58800  0.09450  1.0000
  O   O5        1.0  0.79200  0.34700  0.14000  1.0000
  O   O6        1.0  0.65600  0.08270  0.15900  1.0000
  O   O7        1.0  0.54500  0.75200  0.18000  1.0000
  O   O8        1.0  0.41600  0.49000  0.20900  1.0000
  O   O9        1.0  0.23900  0.25300  0.23500  1.0000
  O   O10       1.0  0.05910  0.00493  0.26500  1.0000
  O   O11       1.0  0.90300  0.75400  0.30600  1.0000
  O   O12       1.0  0.77900  0.50000  0.33200  1.0000
  O   O13       1.0  0.65500  0.17100  0.35500  1.0000
  O   O14       1.0  0.54700  0.90300  0.37800  1.0000
  O   O15       1.0  0.36500  0.67100  0.41700  1.0000
  O   O16       1.0  0.24200  0.40200  0.45100  1.0000
  O   O17       1.0  0.07880  0.11800  0.49400  1.0000
  O   O18       1.0  0.92100  0.88200  0.50600  1.0000
  O   O19       1.0  0.75800  0.59800  0.54900  1.0000
  O   O20       1.0  0.63500  0.32900  0.58300  1.0000
  O   O21       1.0  0.45300  0.09680  0.62200  1.0000
  O   O22       1.0  0.34500  0.82900  0.64500  1.0000
  O   O23       1.0  0.22100  0.50000  0.66800  1.0000
  O   O24       1.0  0.09730  0.24600  0.69400  1.0000
  O   O25       1.0  0.94100  0.99500  0.73500  1.0000
  O   O26       1.0  0.76100  0.74700  0.76500  1.0000
  O   O27       1.0  0.58400  0.51000  0.79100  1.0000
  O   O28       1.0  0.45500  0.24800  0.82000  1.0000
  O   O29       1.0  0.34400  0.91700  0.84100  1.0000
  O   O30       1.0  0.20800  0.65300  0.86000  1.0000
  O   O31       1.0  0.03070  0.41200  0.90600  1.0000
  O   O32       1.0  0.87100  0.16100  0.93800  1.0000
  O   O33       1.0  0.69100  0.92800  0.96400  1.0000
  O   O34       1.0  0.55300  0.66200  0.98900  1.0000
