data_image0
_chemical_formula_structural       Ga2Mg4
_chemical_formula_sum              "Ga2 Mg4"
_cell_length_a       3.16275
_cell_length_b       3.16275
_cell_length_c       14.6579
_cell_angle_alpha    90
_cell_angle_beta     90
_cell_angle_gamma    120

_space_group_name_H-M_alt    "P 1"
_space_group_IT_number       1

loop_
  _space_group_symop_operation_xyz
  'x, y, z'

loop_
  _atom_site_type_symbol
  _atom_site_label
  _atom_site_symmetry_multiplicity
  _atom_site_fract_x
  _atom_site_fract_y
  _atom_site_fract_z
  _atom_site_occupancy
  Ga  Ga1       1.0  0.00000  0.00000  0.67500  1.0000
  Ga  Ga2       1.0  0.66700  0.33300  0.82500  1.0000
  Mg  Mg1       1.0  0.00000  0.00000  0.98500  1.0000
  Mg  Mg2       1.0  0.66700  0.33300  0.16200  1.0000
  Mg  Mg3       1.0  0.00000  0.00000  0.33800  1.0000
  Mg  Mg4       1.0  0.66700  0.33300  0.51500  1.0000
