data_image0
_chemical_formula_structural       O6Pb2Se2
_chemical_formula_sum              "O6 Pb2 Se2"
_cell_length_a       4.5228
_cell_length_b       5.51514
_cell_length_c       6.55206
_cell_angle_alpha    90
_cell_angle_beta     106.333
_cell_angle_gamma    90

_space_group_name_H-M_alt    "P 1"
_space_group_IT_number       1

loop_
  _space_group_symop_operation_xyz
  'x, y, z'

loop_
  _atom_site_type_symbol
  _atom_site_label
  _atom_site_symmetry_multiplicity
  _atom_site_fract_x
  _atom_site_fract_y
  _atom_site_fract_z
  _atom_site_occupancy
  O   O1        1.0  0.69400  0.75000  0.11900  1.0000
  O   O2        1.0  0.20100  0.51000  0.33500  1.0000
  O   O3        1.0  0.20100  0.99000  0.33500  1.0000
  O   O4        1.0  0.79900  0.01040  0.66500  1.0000
  O   O5        1.0  0.79900  0.49000  0.66500  1.0000
  O   O6        1.0  0.30600  0.25000  0.88100  1.0000
  Pb  Pb1       1.0  0.64300  0.25000  0.30000  1.0000
  Pb  Pb2       1.0  0.35700  0.75000  0.70000  1.0000
  Se  Se1       1.0  0.08640  0.75000  0.15800  1.0000
  Se  Se2       1.0  0.91400  0.25000  0.84200  1.0000
