data_image0
_chemical_formula_structural       As6Mo4
_chemical_formula_sum              "As6 Mo4"
_cell_length_a       3.25627
_cell_length_b       6.93089
_cell_length_c       8.25262
_cell_angle_alpha    95.6542
_cell_angle_beta     101.378
_cell_angle_gamma    103.586

_space_group_name_H-M_alt    "P 1"
_space_group_IT_number       1

loop_
  _space_group_symop_operation_xyz
  'x, y, z'

loop_
  _atom_site_type_symbol
  _atom_site_label
  _atom_site_symmetry_multiplicity
  _atom_site_fract_x
  _atom_site_fract_y
  _atom_site_fract_z
  _atom_site_occupancy
  As  As1       1.0  0.92000  0.79300  0.04710  1.0000
  As  As2       1.0  0.72900  0.14500  0.31400  1.0000
  As  As3       1.0  0.47600  0.58100  0.37100  1.0000
  As  As4       1.0  0.52400  0.41900  0.62900  1.0000
  As  As5       1.0  0.27100  0.85500  0.68600  1.0000
  As  As6       1.0  0.07980  0.20700  0.95300  1.0000
  Mo  Mo1       1.0  0.78400  0.43400  0.13500  1.0000
  Mo  Mo2       1.0  0.12400  0.87600  0.37200  1.0000
  Mo  Mo3       1.0  0.87600  0.12400  0.62800  1.0000
  Mo  Mo4       1.0  0.21600  0.56600  0.86500  1.0000
