data_image0
_chemical_formula_structural       As4Rb4Si2
_chemical_formula_sum              "As4 Rb4 Si2"
_cell_length_a       6.46922
_cell_length_b       7.36028
_cell_length_c       8.53797
_cell_angle_alpha    115.533
_cell_angle_beta     112.262
_cell_angle_gamma    90

_space_group_name_H-M_alt    "P 1"
_space_group_IT_number       1

loop_
  _space_group_symop_operation_xyz
  'x, y, z'

loop_
  _atom_site_type_symbol
  _atom_site_label
  _atom_site_symmetry_multiplicity
  _atom_site_fract_x
  _atom_site_fract_y
  _atom_site_fract_z
  _atom_site_occupancy
  As  As1       1.0  0.59700  0.43700  0.19300  1.0000
  As  As2       1.0  0.09660  0.75600  0.19300  1.0000
  As  As3       1.0  0.90300  0.24400  0.80700  1.0000
  As  As4       1.0  0.40300  0.56300  0.80700  1.0000
  Rb  Rb1       1.0  0.14400  0.30900  0.28800  1.0000
  Rb  Rb2       1.0  0.64400  0.97900  0.28800  1.0000
  Rb  Rb3       1.0  0.35600  0.02120  0.71200  1.0000
  Rb  Rb4       1.0  0.85600  0.69100  0.71200  1.0000
  Si  Si1       1.0  0.25000  0.50000  0.00000  1.0000
  Si  Si2       1.0  0.75000  0.50000  0.00000  1.0000
