data_image0
_chemical_formula_structural       Li2NiO8W2
_chemical_formula_sum              "Li2 Ni1 O8 W2"
_cell_length_a       4.89309
_cell_length_b       5.57177
_cell_length_c       5.83394
_cell_angle_alpha    70.8663
_cell_angle_beta     88.627
_cell_angle_gamma    115.33

_space_group_name_H-M_alt    "P 1"
_space_group_IT_number       1

loop_
  _space_group_symop_operation_xyz
  'x, y, z'

loop_
  _atom_site_type_symbol
  _atom_site_label
  _atom_site_symmetry_multiplicity
  _atom_site_fract_x
  _atom_site_fract_y
  _atom_site_fract_z
  _atom_site_occupancy
  Li  Li1       1.0  0.02700  0.06590  0.25700  1.0000
  Li  Li2       1.0  0.97300  0.93400  0.74300  1.0000
  Ni  Ni1       1.0  0.50000  1.00000  0.00000  1.0000
  O   O1        1.0  0.03920  0.76000  0.07380  1.0000
  O   O2        1.0  0.48600  0.24600  0.18600  1.0000
  O   O3        1.0  0.54800  0.72400  0.33000  1.0000
  O   O4        1.0  0.95700  0.27100  0.45900  1.0000
  O   O5        1.0  0.04280  0.72900  0.54100  1.0000
  O   O6        1.0  0.45200  0.27600  0.67000  1.0000
  O   O7        1.0  0.51400  0.75400  0.81400  1.0000
  O   O8        1.0  0.96100  0.24000  0.92600  1.0000
  W   W1        1.0  0.73700  0.46600  0.33100  1.0000
  W   W2        1.0  0.26300  0.53400  0.66900  1.0000
