data_image0
_chemical_formula_structural       As4K4Pd2
_chemical_formula_sum              "As4 K4 Pd2"
_cell_length_a       6.0971
_cell_length_b       6.5751
_cell_length_c       7.87822
_cell_angle_alpha    65.336
_cell_angle_beta     90
_cell_angle_gamma    90

_space_group_name_H-M_alt    "P 1"
_space_group_IT_number       1

loop_
  _space_group_symop_operation_xyz
  'x, y, z'

loop_
  _atom_site_type_symbol
  _atom_site_label
  _atom_site_symmetry_multiplicity
  _atom_site_fract_x
  _atom_site_fract_y
  _atom_site_fract_z
  _atom_site_occupancy
  As  As1       1.0  0.25000  0.07260  0.22600  1.0000
  As  As2       1.0  0.25000  0.70100  0.22600  1.0000
  As  As3       1.0  0.75000  0.29900  0.77400  1.0000
  As  As4       1.0  0.75000  0.92700  0.77400  1.0000
  K   K1        1.0  0.75000  0.41600  0.16800  1.0000
  K   K2        1.0  0.75000  0.79500  0.41000  1.0000
  K   K3        1.0  0.25000  0.20500  0.59000  1.0000
  K   K4        1.0  0.25000  0.58400  0.83200  1.0000
  Pd  Pd1       1.0  0.00000  0.00000  0.00000  1.0000
  Pd  Pd2       1.0  0.50000  0.00000  0.00000  1.0000
