data_image0
_chemical_formula_structural       NiO6Sr2W
_chemical_formula_sum              "Ni1 O6 Sr2 W1"
_cell_length_a       5.56367
_cell_length_b       5.56367
_cell_length_c       5.57556
_cell_angle_alpha    119.929
_cell_angle_beta     119.929
_cell_angle_gamma    90

_space_group_name_H-M_alt    "P 1"
_space_group_IT_number       1

loop_
  _space_group_symop_operation_xyz
  'x, y, z'

loop_
  _atom_site_type_symbol
  _atom_site_label
  _atom_site_symmetry_multiplicity
  _atom_site_fract_x
  _atom_site_fract_y
  _atom_site_fract_z
  _atom_site_occupancy
  Ni  Ni1       1.0  0.50000  0.50000  0.00000  1.0000
  O   O1        1.0  0.25100  0.23800  0.00000  1.0000
  O   O2        1.0  0.76200  0.25100  0.00000  1.0000
  O   O3        1.0  0.23800  0.74900  0.00000  1.0000
  O   O4        1.0  0.74900  0.76200  0.00000  1.0000
  O   O5        1.0  0.24400  0.24400  0.48700  1.0000
  O   O6        1.0  0.75600  0.75600  0.51300  1.0000
  Sr  Sr1       1.0  0.75000  0.25000  0.50000  1.0000
  Sr  Sr2       1.0  0.25000  0.75000  0.50000  1.0000
  W   W1        1.0  0.00000  0.00000  0.00000  1.0000
