data_image0
_chemical_formula_structural       P2S6Zn2
_chemical_formula_sum              "P2 S6 Zn2"
_cell_length_a       5.98064
_cell_length_b       5.98064
_cell_length_c       6.85153
_cell_angle_alpha    98.3541
_cell_angle_beta     98.3541
_cell_angle_gamma    119.955

_space_group_name_H-M_alt    "P 1"
_space_group_IT_number       1

loop_
  _space_group_symop_operation_xyz
  'x, y, z'

loop_
  _atom_site_type_symbol
  _atom_site_label
  _atom_site_symmetry_multiplicity
  _atom_site_fract_x
  _atom_site_fract_y
  _atom_site_fract_z
  _atom_site_occupancy
  P   P1        1.0  0.05600  0.05600  0.16900  1.0000
  P   P2        1.0  0.94400  0.94400  0.83100  1.0000
  S   S1        1.0  0.75100  0.75100  0.24500  1.0000
  S   S2        1.0  0.41200  0.08150  0.24700  1.0000
  S   S3        1.0  0.08150  0.41200  0.24700  1.0000
  S   S4        1.0  0.91800  0.58800  0.75300  1.0000
  S   S5        1.0  0.58800  0.91800  0.75300  1.0000
  S   S6        1.0  0.24900  0.24900  0.75500  1.0000
  Zn  Zn1       1.0  0.66800  0.33200  0.00000  1.0000
  Zn  Zn2       1.0  0.33200  0.66800  0.00000  1.0000
