data_image0
_chemical_formula_structural       As4Ge2K4
_chemical_formula_sum              "As4 Ge2 K4"
_cell_length_a       6.62656
_cell_length_b       7.05877
_cell_length_c       8.26732
_cell_angle_alpha    115.272
_cell_angle_beta     113.626
_cell_angle_gamma    90

_space_group_name_H-M_alt    "P 1"
_space_group_IT_number       1

loop_
  _space_group_symop_operation_xyz
  'x, y, z'

loop_
  _atom_site_type_symbol
  _atom_site_label
  _atom_site_symmetry_multiplicity
  _atom_site_fract_x
  _atom_site_fract_y
  _atom_site_fract_z
  _atom_site_occupancy
  As  As1       1.0  0.60400  0.43000  0.20700  1.0000
  As  As2       1.0  0.10400  0.77700  0.20700  1.0000
  As  As3       1.0  0.89600  0.22300  0.79300  1.0000
  As  As4       1.0  0.39600  0.57000  0.79300  1.0000
  Ge  Ge1       1.0  0.25000  0.50000  0.00000  1.0000
  Ge  Ge2       1.0  0.75000  0.50000  0.00000  1.0000
  K   K1        1.0  0.14400  0.30700  0.28800  1.0000
  K   K2        1.0  0.64400  0.98100  0.28800  1.0000
  K   K3        1.0  0.35600  0.01920  0.71200  1.0000
  K   K4        1.0  0.85600  0.69300  0.71200  1.0000
