data_image0
_chemical_formula_structural       Cl2Li2N2Ti2
_chemical_formula_sum              "Cl2 Li2 N2 Ti2"
_cell_length_a       4.10485
_cell_length_b       3.35524
_cell_length_c       8.01219
_cell_angle_alpha    90
_cell_angle_beta     90
_cell_angle_gamma    90

_space_group_name_H-M_alt    "P 1"
_space_group_IT_number       1

loop_
  _space_group_symop_operation_xyz
  'x, y, z'

loop_
  _atom_site_type_symbol
  _atom_site_label
  _atom_site_symmetry_multiplicity
  _atom_site_fract_x
  _atom_site_fract_y
  _atom_site_fract_z
  _atom_site_occupancy
  Cl  Cl1       1.0  0.00000  0.00000  0.34800  1.0000
  Cl  Cl2       1.0  0.50000  0.50000  0.65200  1.0000
  Li  Li1       1.0  0.50000  0.50000  0.33800  1.0000
  Li  Li2       1.0  0.00000  0.00000  0.66200  1.0000
  N   N1        1.0  0.50000  0.50000  0.08460  1.0000
  N   N2        1.0  0.00000  0.00000  0.91500  1.0000
  Ti  Ti1       1.0  0.00000  0.50000  0.05470  1.0000
  Ti  Ti2       1.0  0.50000  0.00000  0.94500  1.0000
