data_image0
_chemical_formula_structural       Br8Th2
_chemical_formula_sum              "Br8 Th2"
_cell_length_a       7.57382
_cell_length_b       7.57382
_cell_length_c       7.57382
_cell_angle_alpha    114.805
_cell_angle_beta     106.872
_cell_angle_gamma    106.872

_space_group_name_H-M_alt    "P 1"
_space_group_IT_number       1

loop_
  _space_group_symop_operation_xyz
  'x, y, z'

loop_
  _atom_site_type_symbol
  _atom_site_label
  _atom_site_symmetry_multiplicity
  _atom_site_fract_x
  _atom_site_fract_y
  _atom_site_fract_z
  _atom_site_occupancy
  Br  Br1       1.0  0.56400  0.26100  0.19700  1.0000
  Br  Br2       1.0  0.93600  0.63300  0.19700  1.0000
  Br  Br3       1.0  0.06360  0.19700  0.26100  1.0000
  Br  Br4       1.0  0.56400  0.80300  0.36700  1.0000
  Br  Br5       1.0  0.43600  0.19700  0.63300  1.0000
  Br  Br6       1.0  0.93600  0.80300  0.73900  1.0000
  Br  Br7       1.0  0.06360  0.36700  0.80300  1.0000
  Br  Br8       1.0  0.43600  0.73900  0.80300  1.0000
  Th  Th1       1.0  0.25000  0.87500  0.12500  1.0000
  Th  Th2       1.0  0.75000  0.12500  0.87500  1.0000
