data_image0
_chemical_formula_structural       Cu4Sb4Sr2
_chemical_formula_sum              "Cu4 Sb4 Sr2"
_cell_length_a       4.56326
_cell_length_b       4.56326
_cell_length_c       10.89
_cell_angle_alpha    90
_cell_angle_beta     90
_cell_angle_gamma    90

_space_group_name_H-M_alt    "P 1"
_space_group_IT_number       1

loop_
  _space_group_symop_operation_xyz
  'x, y, z'

loop_
  _atom_site_type_symbol
  _atom_site_label
  _atom_site_symmetry_multiplicity
  _atom_site_fract_x
  _atom_site_fract_y
  _atom_site_fract_z
  _atom_site_occupancy
  Cu  Cu1       1.0  0.00000  0.00000  0.00000  1.0000
  Cu  Cu2       1.0  0.50000  0.50000  0.00000  1.0000
  Cu  Cu3       1.0  0.50000  0.00000  0.36500  1.0000
  Cu  Cu4       1.0  0.00000  0.50000  0.63500  1.0000
  Sb  Sb1       1.0  0.50000  0.00000  0.12900  1.0000
  Sb  Sb2       1.0  0.00000  0.00000  0.50000  1.0000
  Sb  Sb3       1.0  0.50000  0.50000  0.50000  1.0000
  Sb  Sb4       1.0  0.00000  0.50000  0.87100  1.0000
  Sr  Sr1       1.0  0.00000  0.50000  0.23700  1.0000
  Sr  Sr2       1.0  0.50000  0.00000  0.76300  1.0000
