data_image0
_chemical_formula_structural       Be8H32Li16
_chemical_formula_sum              "Be8 H32 Li16"
_cell_length_a       6.69683
_cell_length_b       8.06573
_cell_length_c       7.91266
_cell_angle_alpha    90
_cell_angle_beta     92.3774
_cell_angle_gamma    90

_space_group_name_H-M_alt    "P 1"
_space_group_IT_number       1

loop_
  _space_group_symop_operation_xyz
  'x, y, z'

loop_
  _atom_site_type_symbol
  _atom_site_label
  _atom_site_symmetry_multiplicity
  _atom_site_fract_x
  _atom_site_fract_y
  _atom_site_fract_z
  _atom_site_occupancy
  Be  Be1       1.0  0.48100  0.20500  0.06640  1.0000
  Be  Be2       1.0  0.96700  0.42800  0.19900  1.0000
  Be  Be3       1.0  0.03320  0.92800  0.30100  1.0000
  Be  Be4       1.0  0.51900  0.70500  0.43400  1.0000
  Be  Be5       1.0  0.48100  0.29500  0.56600  1.0000
  Be  Be6       1.0  0.96700  0.07210  0.69900  1.0000
  Be  Be7       1.0  0.03320  0.57200  0.80100  1.0000
  Be  Be8       1.0  0.51900  0.79500  0.93400  1.0000
  H   H1        1.0  0.34400  0.79600  0.02790  1.0000
  H   H2        1.0  0.66800  0.88100  0.03290  1.0000
  H   H3        1.0  0.43700  0.37500  0.08790  1.0000
  H   H4        1.0  0.02840  0.90700  0.12200  1.0000
  H   H5        1.0  0.02640  0.27700  0.12400  1.0000
  H   H6        1.0  0.77600  0.49200  0.15000  1.0000
  H   H7        1.0  0.09700  0.56400  0.17400  1.0000
  H   H8        1.0  0.53300  0.13300  0.22600  1.0000
  H   H9        1.0  0.46700  0.63300  0.27400  1.0000
  H   H10       1.0  0.90300  0.06360  0.32600  1.0000
  H   H11       1.0  0.22400  0.99200  0.35000  1.0000
  H   H12       1.0  0.97400  0.77700  0.37600  1.0000
  H   H13       1.0  0.97200  0.40700  0.37800  1.0000
  H   H14       1.0  0.56300  0.87500  0.41200  1.0000
  H   H15       1.0  0.33200  0.38100  0.46700  1.0000
  H   H16       1.0  0.65600  0.29600  0.47200  1.0000
  H   H17       1.0  0.34400  0.70400  0.52800  1.0000
  H   H18       1.0  0.66800  0.61900  0.53300  1.0000
  H   H19       1.0  0.43700  0.12500  0.58800  1.0000
  H   H20       1.0  0.02840  0.59300  0.62200  1.0000
  H   H21       1.0  0.02650  0.22300  0.62400  1.0000
  H   H22       1.0  0.77600  0.00844  0.65000  1.0000
  H   H23       1.0  0.09700  0.93600  0.67400  1.0000
  H   H24       1.0  0.53300  0.36700  0.72600  1.0000
  H   H25       1.0  0.46700  0.86700  0.77400  1.0000
  H   H26       1.0  0.90300  0.43600  0.82600  1.0000
  H   H27       1.0  0.22400  0.50800  0.85000  1.0000
  H   H28       1.0  0.97400  0.72300  0.87600  1.0000
  H   H29       1.0  0.97200  0.09350  0.87800  1.0000
  H   H30       1.0  0.56300  0.62500  0.91200  1.0000
  H   H31       1.0  0.33200  0.11900  0.96700  1.0000
  H   H32       1.0  0.65600  0.20400  0.97200  1.0000
  Li  Li1       1.0  0.31900  0.57600  0.05970  1.0000
  Li  Li2       1.0  0.84600  0.09080  0.09030  1.0000
  Li  Li3       1.0  0.87000  0.71400  0.09520  1.0000
  Li  Li4       1.0  0.42300  0.92200  0.20500  1.0000
  Li  Li5       1.0  0.57700  0.42200  0.29500  1.0000
  Li  Li6       1.0  0.13000  0.21400  0.40500  1.0000
  Li  Li7       1.0  0.15400  0.59100  0.41000  1.0000
  Li  Li8       1.0  0.68100  0.07620  0.44000  1.0000
  Li  Li9       1.0  0.31900  0.92400  0.56000  1.0000
  Li  Li10      1.0  0.84600  0.40900  0.59000  1.0000
  Li  Li11      1.0  0.87000  0.78600  0.59500  1.0000
  Li  Li12      1.0  0.42300  0.57800  0.70500  1.0000
  Li  Li13      1.0  0.57700  0.07790  0.79500  1.0000
  Li  Li14      1.0  0.13000  0.28600  0.90500  1.0000
  Li  Li15      1.0  0.15400  0.90900  0.91000  1.0000
  Li  Li16      1.0  0.68100  0.42400  0.94000  1.0000
