data_image0
_chemical_formula_structural       Cl4O2Pd4
_chemical_formula_sum              "Cl4 O2 Pd4"
_cell_length_a       6.42349
_cell_length_b       6.42349
_cell_length_c       6.73624
_cell_angle_alpha    118.476
_cell_angle_beta     118.476
_cell_angle_gamma    90

_space_group_name_H-M_alt    "P 1"
_space_group_IT_number       1

loop_
  _space_group_symop_operation_xyz
  'x, y, z'

loop_
  _atom_site_type_symbol
  _atom_site_label
  _atom_site_symmetry_multiplicity
  _atom_site_fract_x
  _atom_site_fract_y
  _atom_site_fract_z
  _atom_site_occupancy
  Cl  Cl1       1.0  0.57800  0.82800  0.15500  1.0000
  Cl  Cl2       1.0  0.17200  0.42200  0.34500  1.0000
  Cl  Cl3       1.0  0.82800  0.57800  0.65500  1.0000
  Cl  Cl4       1.0  0.42200  0.17200  0.84500  1.0000
  O   O1        1.0  0.12500  0.87500  0.25000  1.0000
  O   O2        1.0  0.87500  0.12500  0.75000  1.0000
  Pd  Pd1       1.0  0.00000  0.00000  0.00000  1.0000
  Pd  Pd2       1.0  0.00000  0.50000  0.00000  1.0000
  Pd  Pd3       1.0  0.00000  0.00000  0.50000  1.0000
  Pd  Pd4       1.0  0.50000  0.00000  0.50000  1.0000
