data_image0
_chemical_formula_structural       CaO6Sb2
_chemical_formula_sum              "Ca1 O6 Sb2"
_cell_length_a       5.26684
_cell_length_b       5.26572
_cell_length_c       4.95501
_cell_angle_alpha    89.9877
_cell_angle_beta     90.0062
_cell_angle_gamma    119.993

_space_group_name_H-M_alt    "P 1"
_space_group_IT_number       1

loop_
  _space_group_symop_operation_xyz
  'x, y, z'

loop_
  _atom_site_type_symbol
  _atom_site_label
  _atom_site_symmetry_multiplicity
  _atom_site_fract_x
  _atom_site_fract_y
  _atom_site_fract_z
  _atom_site_occupancy
  Ca  Ca1       1.0  0.00000  0.00000  0.00000  1.0000
  O   O1        1.0  0.00000  0.36700  0.27700  1.0000
  O   O2        1.0  0.63300  0.63300  0.27800  1.0000
  O   O3        1.0  0.36700  0.00000  0.27800  1.0000
  O   O4        1.0  0.36700  0.36700  0.72200  1.0000
  O   O5        1.0  0.63300  0.00002  0.72200  1.0000
  O   O6        1.0  0.00000  0.63300  0.72300  1.0000
  Sb  Sb1       1.0  0.33400  0.66700  0.50000  1.0000
  Sb  Sb2       1.0  0.66600  0.33300  0.50000  1.0000
