data_image0
_chemical_formula_structural       B4C4Ca2
_chemical_formula_sum              "B4 C4 Ca2"
_cell_length_a       5.29402
_cell_length_b       5.29402
_cell_length_c       5.29402
_cell_angle_alpha    91.4124
_cell_angle_beta     119.188
_cell_angle_gamma    119.188

_space_group_name_H-M_alt    "P 1"
_space_group_IT_number       1

loop_
  _space_group_symop_operation_xyz
  'x, y, z'

loop_
  _atom_site_type_symbol
  _atom_site_label
  _atom_site_symmetry_multiplicity
  _atom_site_fract_x
  _atom_site_fract_y
  _atom_site_fract_z
  _atom_site_occupancy
  B   B1        1.0  0.50000  0.36100  0.13900  1.0000
  B   B2        1.0  0.22200  0.86100  0.36100  1.0000
  B   B3        1.0  0.77800  0.13900  0.63900  1.0000
  B   B4        1.0  0.50000  0.63900  0.86100  1.0000
  C   C1        1.0  0.81900  0.65900  0.15900  1.0000
  C   C2        1.0  0.50000  0.15900  0.34100  1.0000
  C   C3        1.0  0.50000  0.84100  0.65900  1.0000
  C   C4        1.0  0.18100  0.34100  0.84100  1.0000
  Ca  Ca1       1.0  0.00000  0.25000  0.25000  1.0000
  Ca  Ca2       1.0  0.00000  0.75000  0.75000  1.0000
