data_image0
_chemical_formula_structural       N9O27Rb9
_chemical_formula_sum              "N9 O27 Rb9"
_cell_length_a       9.86833
_cell_length_b       9.86833
_cell_length_c       6.98774
_cell_angle_alpha    90
_cell_angle_beta     90
_cell_angle_gamma    120

_space_group_name_H-M_alt    "P 1"
_space_group_IT_number       1

loop_
  _space_group_symop_operation_xyz
  'x, y, z'

loop_
  _atom_site_type_symbol
  _atom_site_label
  _atom_site_symmetry_multiplicity
  _atom_site_fract_x
  _atom_site_fract_y
  _atom_site_fract_z
  _atom_site_occupancy
  N   N1        1.0  0.44400  0.87100  0.43700  1.0000
  N   N2        1.0  0.42700  0.55600  0.10400  1.0000
  N   N3        1.0  0.12900  0.57300  0.77000  1.0000
  N   N4        1.0  0.08900  0.20400  0.53200  1.0000
  N   N5        1.0  0.79600  0.88500  0.86500  1.0000
  N   N6        1.0  0.11500  0.91100  0.19900  1.0000
  N   N7        1.0  0.73900  0.20300  0.11000  1.0000
  N   N8        1.0  0.79700  0.53500  0.44300  1.0000
  N   N9        1.0  0.46500  0.26100  0.77600  1.0000
  O   O1        1.0  0.23100  0.25800  0.57100  1.0000
  O   O2        1.0  0.74200  0.97300  0.90400  1.0000
  O   O3        1.0  0.02720  0.76900  0.23800  1.0000
  O   O4        1.0  0.98500  0.10200  0.64200  1.0000
  O   O5        1.0  0.89800  0.88300  0.97500  1.0000
  O   O6        1.0  0.11700  0.01480  0.30800  1.0000
  O   O7        1.0  0.88100  0.28400  0.06840  1.0000
  O   O8        1.0  0.71600  0.59600  0.40200  1.0000
  O   O9        1.0  0.40400  0.11900  0.73500  1.0000
  O   O10       1.0  0.63700  0.20900  0.00242  1.0000
  O   O11       1.0  0.79100  0.42800  0.33600  1.0000
  O   O12       1.0  0.57200  0.36300  0.66900  1.0000
  O   O13       1.0  0.04450  0.24700  0.38600  1.0000
  O   O14       1.0  0.75300  0.79800  0.72000  1.0000
  O   O15       1.0  0.20200  0.95500  0.05310  1.0000
  O   O16       1.0  0.69100  0.11600  0.25600  1.0000
  O   O17       1.0  0.88400  0.57500  0.58900  1.0000
  O   O18       1.0  0.42500  0.30900  0.92200  1.0000
  O   O19       1.0  0.56600  0.65300  0.06070  1.0000
  O   O20       1.0  0.34700  0.91300  0.39400  1.0000
  O   O21       1.0  0.08720  0.43400  0.72700  1.0000
  O   O22       1.0  0.39200  0.46700  0.24700  1.0000
  O   O23       1.0  0.53300  0.92500  0.58000  1.0000
  O   O24       1.0  0.07460  0.60800  0.91300  1.0000
  O   O25       1.0  0.31600  0.54700  0.00008  1.0000
  O   O26       1.0  0.45300  0.77000  0.33300  1.0000
  O   O27       1.0  0.23100  0.68400  0.66700  1.0000
  Rb  Rb1       1.0  0.77700  0.22600  0.64100  1.0000
  Rb  Rb2       1.0  0.77400  0.55100  0.97500  1.0000
  Rb  Rb3       1.0  0.44900  0.22300  0.30800  1.0000
  Rb  Rb4       1.0  0.11600  0.21500  0.00416  1.0000
  Rb  Rb5       1.0  0.78500  0.90100  0.33700  1.0000
  Rb  Rb6       1.0  0.09890  0.88400  0.67100  1.0000
  Rb  Rb7       1.0  0.45400  0.57200  0.63300  1.0000
  Rb  Rb8       1.0  0.42800  0.88100  0.96600  1.0000
  Rb  Rb9       1.0  0.11900  0.54600  0.29900  1.0000
