data_image0
_chemical_formula_structural       Li2O39V18
_chemical_formula_sum              "Li2 O39 V18"
_cell_length_a       3.72015
_cell_length_b       11.0109
_cell_length_c       17.1929
_cell_angle_alpha    104.038
_cell_angle_beta     90
_cell_angle_gamma    99.7256

_space_group_name_H-M_alt    "P 1"
_space_group_IT_number       1

loop_
  _space_group_symop_operation_xyz
  'x, y, z'

loop_
  _atom_site_type_symbol
  _atom_site_label
  _atom_site_symmetry_multiplicity
  _atom_site_fract_x
  _atom_site_fract_y
  _atom_site_fract_z
  _atom_site_occupancy
  Li  Li1       1.0  0.73800  0.47500  0.33500  1.0000
  Li  Li2       1.0  0.26200  0.52500  0.66500  1.0000
  O   O1        1.0  0.50000  0.00000  0.00000  1.0000
  O   O2        1.0  0.22100  0.44200  0.03110  1.0000
  O   O3        1.0  0.62600  0.25200  0.05270  1.0000
  O   O4        1.0  0.34400  0.68900  0.09410  1.0000
  O   O5        1.0  0.06410  0.12800  0.12400  1.0000
  O   O6        1.0  0.75800  0.51500  0.12600  1.0000
  O   O7        1.0  0.47400  0.94700  0.14100  1.0000
  O   O8        1.0  0.20000  0.39900  0.19400  1.0000
  O   O9        1.0  0.91400  0.82700  0.20500  1.0000
  O   O10       1.0  0.61000  0.21900  0.21400  1.0000
  O   O11       1.0  0.32700  0.65400  0.23300  1.0000
  O   O12       1.0  0.04570  0.09150  0.28300  1.0000
  O   O13       1.0  0.44800  0.89700  0.30000  1.0000
  O   O14       1.0  0.17000  0.34000  0.33100  1.0000
  O   O15       1.0  0.88500  0.77000  0.35700  1.0000
  O   O16       1.0  0.28900  0.57800  0.37200  1.0000
  O   O17       1.0  0.00567  0.01130  0.42800  1.0000
  O   O18       1.0  0.73100  0.46300  0.44900  1.0000
  O   O19       1.0  0.42000  0.84100  0.45700  1.0000
  O   O20       1.0  0.13700  0.27300  0.47400  1.0000
  O   O21       1.0  0.86300  0.72700  0.52600  1.0000
  O   O22       1.0  0.58000  0.15900  0.54300  1.0000
  O   O23       1.0  0.26900  0.53700  0.55100  1.0000
  O   O24       1.0  0.99400  0.98900  0.57200  1.0000
  O   O25       1.0  0.71100  0.42200  0.62800  1.0000
  O   O26       1.0  0.11500  0.23000  0.64300  1.0000
  O   O27       1.0  0.83000  0.66000  0.66900  1.0000
  O   O28       1.0  0.55200  0.10300  0.70000  1.0000
  O   O29       1.0  0.95400  0.90900  0.71700  1.0000
  O   O30       1.0  0.67300  0.34600  0.76700  1.0000
  O   O31       1.0  0.39000  0.78100  0.78600  1.0000
  O   O32       1.0  0.08650  0.17300  0.79500  1.0000
  O   O33       1.0  0.80000  0.60100  0.80600  1.0000
  O   O34       1.0  0.52600  0.05260  0.85900  1.0000
  O   O35       1.0  0.24200  0.48500  0.87400  1.0000
  O   O36       1.0  0.93600  0.87200  0.87600  1.0000
  O   O37       1.0  0.65600  0.31100  0.90600  1.0000
  O   O38       1.0  0.37400  0.74800  0.94700  1.0000
  O   O39       1.0  0.77900  0.55800  0.96900  1.0000
  V   V1        1.0  0.69300  0.38600  0.02050  1.0000
  V   V2        1.0  0.55100  0.10300  0.09860  1.0000
  V   V3        1.0  0.26100  0.52100  0.15000  1.0000
  V   V4        1.0  0.41000  0.82000  0.17800  1.0000
  V   V5        1.0  0.11800  0.23600  0.23500  1.0000
  V   V6        1.0  0.97600  0.95200  0.31100  1.0000
  V   V7        1.0  0.36000  0.72000  0.34800  1.0000
  V   V8        1.0  0.20500  0.41000  0.44500  1.0000
  V   V9        1.0  0.93300  0.86600  0.47500  1.0000
  V   V10       1.0  0.06710  0.13400  0.52500  1.0000
  V   V11       1.0  0.79500  0.59000  0.55500  1.0000
  V   V12       1.0  0.64000  0.28000  0.65200  1.0000
  V   V13       1.0  0.02390  0.04780  0.68900  1.0000
  V   V14       1.0  0.88200  0.76400  0.76500  1.0000
  V   V15       1.0  0.59000  0.18000  0.82200  1.0000
  V   V16       1.0  0.73900  0.47900  0.85000  1.0000
  V   V17       1.0  0.44900  0.89700  0.90100  1.0000
  V   V18       1.0  0.30700  0.61400  0.98000  1.0000
