data_image0
_chemical_formula_structural       MnO6Pt3
_chemical_formula_sum              "Mn1 O6 Pt3"
_cell_length_a       3.19595
_cell_length_b       6.18037
_cell_length_c       6.18037
_cell_angle_alpha    71.0296
_cell_angle_beta     90
_cell_angle_gamma    90

_space_group_name_H-M_alt    "P 1"
_space_group_IT_number       1

loop_
  _space_group_symop_operation_xyz
  'x, y, z'

loop_
  _atom_site_type_symbol
  _atom_site_label
  _atom_site_symmetry_multiplicity
  _atom_site_fract_x
  _atom_site_fract_y
  _atom_site_fract_z
  _atom_site_occupancy
  Mn  Mn1       1.0  0.00000  0.50000  0.50000  1.0000
  O   O1        1.0  0.00000  0.66200  0.08550  1.0000
  O   O2        1.0  0.00000  0.91500  0.33800  1.0000
  O   O3        1.0  0.50000  0.34800  0.34800  1.0000
  O   O4        1.0  0.50000  0.65200  0.65200  1.0000
  O   O5        1.0  0.00000  0.08550  0.66200  1.0000
  O   O6        1.0  0.00000  0.33800  0.91500  1.0000
  Pt  Pt1       1.0  0.50000  0.50000  0.00000  1.0000
  Pt  Pt2       1.0  0.00000  0.00000  0.00000  1.0000
  Pt  Pt3       1.0  0.50000  0.00000  0.50000  1.0000
