data_image0
_chemical_formula_structural       Br6Ni2Rb2
_chemical_formula_sum              "Br6 Ni2 Rb2"
_cell_length_a       7.36633
_cell_length_b       7.36632
_cell_length_c       6.2825
_cell_angle_alpha    90
_cell_angle_beta     90
_cell_angle_gamma    120

_space_group_name_H-M_alt    "P 1"
_space_group_IT_number       1

loop_
  _space_group_symop_operation_xyz
  'x, y, z'

loop_
  _atom_site_type_symbol
  _atom_site_label
  _atom_site_symmetry_multiplicity
  _atom_site_fract_x
  _atom_site_fract_y
  _atom_site_fract_z
  _atom_site_occupancy
  Br  Br1       1.0  0.15800  0.31600  0.25000  1.0000
  Br  Br2       1.0  0.15800  0.84200  0.25000  1.0000
  Br  Br3       1.0  0.68400  0.84200  0.25000  1.0000
  Br  Br4       1.0  0.31600  0.15800  0.75000  1.0000
  Br  Br5       1.0  0.84200  0.15800  0.75000  1.0000
  Br  Br6       1.0  0.84200  0.68400  0.75000  1.0000
  Ni  Ni1       1.0  0.00000  0.00000  0.00000  1.0000
  Ni  Ni2       1.0  0.00000  0.00000  0.50000  1.0000
  Rb  Rb1       1.0  0.66700  0.33300  0.25000  1.0000
  Rb  Rb2       1.0  0.33300  0.66700  0.75000  1.0000
