data_image0
_chemical_formula_structural       B4Gd2Ir4
_chemical_formula_sum              "B4 Gd2 Ir4"
_cell_length_a       5.51495
_cell_length_b       5.51495
_cell_length_c       6.16411
_cell_angle_alpha    104.683
_cell_angle_beta     104.683
_cell_angle_gamma    115.683

_space_group_name_H-M_alt    "P 1"
_space_group_IT_number       1

loop_
  _space_group_symop_operation_xyz
  'x, y, z'

loop_
  _atom_site_type_symbol
  _atom_site_label
  _atom_site_symmetry_multiplicity
  _atom_site_fract_x
  _atom_site_fract_y
  _atom_site_fract_z
  _atom_site_occupancy
  B   B1        1.0  0.55600  0.44400  0.25000  1.0000
  B   B2        1.0  0.19400  0.80600  0.25000  1.0000
  B   B3        1.0  0.80600  0.19400  0.75000  1.0000
  B   B4        1.0  0.44400  0.55600  0.75000  1.0000
  Gd  Gd1       1.0  0.87500  0.12500  0.25000  1.0000
  Gd  Gd2       1.0  0.12500  0.87500  0.75000  1.0000
  Ir  Ir1       1.0  0.75300  0.50300  0.00555  1.0000
  Ir  Ir2       1.0  0.49700  0.24700  0.49400  1.0000
  Ir  Ir3       1.0  0.50300  0.75300  0.50600  1.0000
  Ir  Ir4       1.0  0.24700  0.49700  0.99400  1.0000
