data_image0
_chemical_formula_structural       Cl4Cs2O2Pu
_chemical_formula_sum              "Cl4 Cs2 O2 Pu1"
_cell_length_a       5.81744
_cell_length_b       7.13629
_cell_length_c       7.13629
_cell_angle_alpha    66.159
_cell_angle_beta     95.759
_cell_angle_gamma    95.759

_space_group_name_H-M_alt    "P 1"
_space_group_IT_number       1

loop_
  _space_group_symop_operation_xyz
  'x, y, z'

loop_
  _atom_site_type_symbol
  _atom_site_label
  _atom_site_symmetry_multiplicity
  _atom_site_fract_x
  _atom_site_fract_y
  _atom_site_fract_z
  _atom_site_occupancy
  Cl  Cl1       1.0  0.21500  0.64600  0.14600  1.0000
  Cl  Cl2       1.0  0.78500  0.85400  0.35400  1.0000
  Cl  Cl3       1.0  0.21500  0.14600  0.64600  1.0000
  Cl  Cl4       1.0  0.78500  0.35400  0.85400  1.0000
  Cs  Cs1       1.0  0.69600  0.34100  0.34100  1.0000
  Cs  Cs2       1.0  0.30400  0.65900  0.65900  1.0000
  O   O1        1.0  0.22100  0.11100  0.11100  1.0000
  O   O2        1.0  0.77900  0.88900  0.88900  1.0000
  Pu  Pu1       1.0  0.00000  0.00000  0.00000  1.0000
