data_image0
_chemical_formula_structural       Li2O6TeZr
_chemical_formula_sum              "Li2 O6 Te1 Zr1"
_cell_length_a       5.16573
_cell_length_b       5.16573
_cell_length_c       5.51143
_cell_angle_alpha    117.946
_cell_angle_beta     62.0541
_cell_angle_gamma    120

_space_group_name_H-M_alt    "P 1"
_space_group_IT_number       1

loop_
  _space_group_symop_operation_xyz
  'x, y, z'

loop_
  _atom_site_type_symbol
  _atom_site_label
  _atom_site_symmetry_multiplicity
  _atom_site_fract_x
  _atom_site_fract_y
  _atom_site_fract_z
  _atom_site_occupancy
  Li  Li1       1.0  0.27800  0.72200  0.16600  1.0000
  Li  Li2       1.0  0.79100  0.20900  0.62700  1.0000
  O   O1        1.0  0.86700  0.39800  0.29200  1.0000
  O   O2        1.0  0.60200  0.76100  0.29200  1.0000
  O   O3        1.0  0.23900  0.13300  0.29200  1.0000
  O   O4        1.0  0.71200  0.88100  0.77200  1.0000
  O   O5        1.0  0.39700  0.28800  0.77200  1.0000
  O   O6        1.0  0.11900  0.60300  0.77200  1.0000
  Te  Te1       1.0  0.49600  0.50400  0.51200  1.0000
  Zr  Zr1       1.0  0.00124  0.99900  0.99600  1.0000
