data_image0
_chemical_formula_structural       Li32Nb8O36
_chemical_formula_sum              "Li32 Nb8 O36"
_cell_length_a       15.178
_cell_length_b       8.79315
_cell_length_c       5.84716
_cell_angle_alpha    109.393
_cell_angle_beta     101.324
_cell_angle_gamma    85.897

_space_group_name_H-M_alt    "P 1"
_space_group_IT_number       1

loop_
  _space_group_symop_operation_xyz
  'x, y, z'

loop_
  _atom_site_type_symbol
  _atom_site_label
  _atom_site_symmetry_multiplicity
  _atom_site_fract_x
  _atom_site_fract_y
  _atom_site_fract_z
  _atom_site_occupancy
  Li  Li1       1.0  0.26100  0.12400  0.05440  1.0000
  Li  Li2       1.0  0.97400  0.87800  0.05940  1.0000
  Li  Li3       1.0  0.54300  0.37500  0.06610  1.0000
  Li  Li4       1.0  0.14900  0.84300  0.12500  1.0000
  Li  Li5       1.0  0.46000  0.12700  0.16700  1.0000
  Li  Li6       1.0  0.76200  0.37700  0.17100  1.0000
  Li  Li7       1.0  0.05330  0.62700  0.22400  1.0000
  Li  Li8       1.0  0.64400  0.09330  0.24000  1.0000
  Li  Li9       1.0  0.96100  0.37100  0.28800  1.0000
  Li  Li10      1.0  0.24000  0.62400  0.29200  1.0000
  Li  Li11      1.0  0.55000  0.87200  0.33600  1.0000
  Li  Li12      1.0  0.15400  0.40600  0.40800  1.0000
  Li  Li13      1.0  0.73900  0.87600  0.41000  1.0000
  Li  Li14      1.0  0.47500  0.62400  0.41500  1.0000
  Li  Li15      1.0  0.03930  0.12200  0.47100  1.0000
  Li  Li16      1.0  0.34200  0.34300  0.47400  1.0000
  Li  Li17      1.0  0.65800  0.65700  0.52600  1.0000
  Li  Li18      1.0  0.96100  0.87800  0.52900  1.0000
  Li  Li19      1.0  0.52500  0.37600  0.58500  1.0000
  Li  Li20      1.0  0.26100  0.12400  0.59000  1.0000
  Li  Li21      1.0  0.84600  0.59400  0.59200  1.0000
  Li  Li22      1.0  0.45000  0.12800  0.66400  1.0000
  Li  Li23      1.0  0.76000  0.37600  0.70800  1.0000
  Li  Li24      1.0  0.03890  0.62900  0.71200  1.0000
  Li  Li25      1.0  0.35600  0.90700  0.76000  1.0000
  Li  Li26      1.0  0.94700  0.37300  0.77600  1.0000
  Li  Li27      1.0  0.23800  0.62300  0.82900  1.0000
  Li  Li28      1.0  0.54000  0.87300  0.83300  1.0000
  Li  Li29      1.0  0.85100  0.15700  0.87500  1.0000
  Li  Li30      1.0  0.45700  0.62500  0.93400  1.0000
  Li  Li31      1.0  0.02560  0.12200  0.94100  1.0000
  Li  Li32      1.0  0.73900  0.87600  0.94600  1.0000
  Nb  Nb1       1.0  0.64300  0.62600  0.00153  1.0000
  Nb  Nb2       1.0  0.86200  0.62600  0.11800  1.0000
  Nb  Nb3       1.0  0.35600  0.87700  0.24800  1.0000
  Nb  Nb4       1.0  0.85100  0.12800  0.35700  1.0000
  Nb  Nb5       1.0  0.14900  0.87200  0.64300  1.0000
  Nb  Nb6       1.0  0.64400  0.12300  0.75200  1.0000
  Nb  Nb7       1.0  0.13800  0.37400  0.88200  1.0000
  Nb  Nb8       1.0  0.35700  0.37400  0.99800  1.0000
  O   O1        1.0  0.85700  0.39300  0.99600  1.0000
  O   O2        1.0  0.14300  0.60700  0.00379  1.0000
  O   O3        1.0  0.44200  0.86600  0.03780  1.0000
  O   O4        1.0  0.75000  0.12400  0.05620  1.0000
  O   O5        1.0  0.05740  0.35900  0.08650  1.0000
  O   O6        1.0  0.34400  0.62700  0.11000  1.0000
  O   O7        1.0  0.64400  0.85800  0.12100  1.0000
  O   O8        1.0  0.94200  0.11400  0.16000  1.0000
  O   O9        1.0  0.25000  0.37500  0.18000  1.0000
  O   O10       1.0  0.56200  0.61300  0.21100  1.0000
  O   O11       1.0  0.84400  0.87600  0.23700  1.0000
  O   O12       1.0  0.44500  0.38600  0.28700  1.0000
  O   O13       1.0  0.75200  0.62700  0.29800  1.0000
  O   O14       1.0  0.06240  0.88400  0.35500  1.0000
  O   O15       1.0  0.34500  0.10900  0.35700  1.0000
  O   O16       1.0  0.94600  0.63700  0.41200  1.0000
  O   O17       1.0  0.25300  0.87300  0.44500  1.0000
  O   O18       1.0  0.84400  0.36000  0.47400  1.0000
  O   O19       1.0  0.55500  0.13500  0.47400  1.0000
  O   O20       1.0  0.44500  0.86500  0.52600  1.0000
  O   O21       1.0  0.15600  0.64000  0.52600  1.0000
  O   O22       1.0  0.74700  0.12700  0.55500  1.0000
  O   O23       1.0  0.05370  0.36300  0.58800  1.0000
  O   O24       1.0  0.65500  0.89100  0.64300  1.0000
  O   O25       1.0  0.93800  0.11600  0.64500  1.0000
  O   O26       1.0  0.24800  0.37300  0.70200  1.0000
  O   O27       1.0  0.55500  0.61400  0.71300  1.0000
  O   O28       1.0  0.15600  0.12400  0.76300  1.0000
  O   O29       1.0  0.43800  0.38700  0.78900  1.0000
  O   O30       1.0  0.75000  0.62500  0.82000  1.0000
  O   O31       1.0  0.05790  0.88600  0.84000  1.0000
  O   O32       1.0  0.35600  0.14200  0.87900  1.0000
  O   O33       1.0  0.65600  0.37300  0.89000  1.0000
  O   O34       1.0  0.94300  0.64100  0.91300  1.0000
  O   O35       1.0  0.25000  0.87600  0.94400  1.0000
  O   O36       1.0  0.55800  0.13400  0.96200  1.0000
