data_image0
_chemical_formula_structural       C2Cl2La2N4
_chemical_formula_sum              "C2 Cl2 La2 N4"
_cell_length_a       5.33524
_cell_length_b       4.01052
_cell_length_c       7.52467
_cell_angle_alpha    90
_cell_angle_beta     100.788
_cell_angle_gamma    90

_space_group_name_H-M_alt    "P 1"
_space_group_IT_number       1

loop_
  _space_group_symop_operation_xyz
  'x, y, z'

loop_
  _atom_site_type_symbol
  _atom_site_label
  _atom_site_symmetry_multiplicity
  _atom_site_fract_x
  _atom_site_fract_y
  _atom_site_fract_z
  _atom_site_occupancy
  C   C1        1.0  0.34700  0.75000  0.35900  1.0000
  C   C2        1.0  0.65300  0.25000  0.64100  1.0000
  Cl  Cl1       1.0  0.25600  0.25000  0.04330  1.0000
  Cl  Cl2       1.0  0.74400  0.75000  0.95700  1.0000
  La  La1       1.0  0.82400  0.25000  0.26300  1.0000
  La  La2       1.0  0.17600  0.75000  0.73700  1.0000
  N   N1        1.0  0.56900  0.75000  0.34000  1.0000
  N   N2        1.0  0.12100  0.75000  0.38100  1.0000
  N   N3        1.0  0.87900  0.25000  0.61900  1.0000
  N   N4        1.0  0.43100  0.25000  0.66000  1.0000
