data_image0
_chemical_formula_structural       Cl8Ta2
_chemical_formula_sum              "Cl8 Ta2"
_cell_length_a       6.79017
_cell_length_b       6.90712
_cell_length_c       7.05878
_cell_angle_alpha    107.683
_cell_angle_beta     118.749
_cell_angle_gamma    60.5585

_space_group_name_H-M_alt    "P 1"
_space_group_IT_number       1

loop_
  _space_group_symop_operation_xyz
  'x, y, z'

loop_
  _atom_site_type_symbol
  _atom_site_label
  _atom_site_symmetry_multiplicity
  _atom_site_fract_x
  _atom_site_fract_y
  _atom_site_fract_z
  _atom_site_occupancy
  Cl  Cl1       1.0  0.18500  0.79200  0.16100  1.0000
  Cl  Cl2       1.0  0.71300  0.76000  0.18500  1.0000
  Cl  Cl3       1.0  0.27800  0.25500  0.30100  1.0000
  Cl  Cl4       1.0  0.76700  0.25500  0.30100  1.0000
  Cl  Cl5       1.0  0.23300  0.74500  0.69900  1.0000
  Cl  Cl6       1.0  0.72200  0.74500  0.69900  1.0000
  Cl  Cl7       1.0  0.28700  0.24000  0.81500  1.0000
  Cl  Cl8       1.0  0.81500  0.20800  0.83900  1.0000
  Ta  Ta1       1.0  0.28100  0.00000  0.00000  1.0000
  Ta  Ta2       1.0  0.71900  0.00000  0.00000  1.0000
