data_image0
_chemical_formula_structural       NiO6ReSr2
_chemical_formula_sum              "Ni1 O6 Re1 Sr2"
_cell_length_a       5.52332
_cell_length_b       5.52332
_cell_length_c       5.57115
_cell_angle_alpha    119.716
_cell_angle_beta     119.716
_cell_angle_gamma    90

_space_group_name_H-M_alt    "P 1"
_space_group_IT_number       1

loop_
  _space_group_symop_operation_xyz
  'x, y, z'

loop_
  _atom_site_type_symbol
  _atom_site_label
  _atom_site_symmetry_multiplicity
  _atom_site_fract_x
  _atom_site_fract_y
  _atom_site_fract_z
  _atom_site_occupancy
  Ni  Ni1       1.0  0.00000  0.00000  0.00000  1.0000
  O   O1        1.0  0.70500  0.21900  0.00000  1.0000
  O   O2        1.0  0.21900  0.29500  0.00000  1.0000
  O   O3        1.0  0.78100  0.70500  0.00000  1.0000
  O   O4        1.0  0.29500  0.78100  0.00000  1.0000
  O   O5        1.0  0.74400  0.74400  0.48800  1.0000
  O   O6        1.0  0.25600  0.25600  0.51200  1.0000
  Re  Re1       1.0  0.50000  0.50000  0.00000  1.0000
  Sr  Sr1       1.0  0.75000  0.25000  0.50000  1.0000
  Sr  Sr2       1.0  0.25000  0.75000  0.50000  1.0000
