data_image0
_chemical_formula_structural       H24Li12Rh4
_chemical_formula_sum              "H24 Li12 Rh4"
_cell_length_a       8.2126
_cell_length_b       4.60641
_cell_length_c       8.32575
_cell_angle_alpha    90
_cell_angle_beta     90
_cell_angle_gamma    90

_space_group_name_H-M_alt    "P 1"
_space_group_IT_number       1

loop_
  _space_group_symop_operation_xyz
  'x, y, z'

loop_
  _atom_site_type_symbol
  _atom_site_label
  _atom_site_symmetry_multiplicity
  _atom_site_fract_x
  _atom_site_fract_y
  _atom_site_fract_z
  _atom_site_occupancy
  H   H1        1.0  0.65100  0.00474  0.03310  1.0000
  H   H2        1.0  0.65100  0.49500  0.03310  1.0000
  H   H3        1.0  0.11000  0.25000  0.05860  1.0000
  H   H4        1.0  0.89800  0.50000  0.18000  1.0000
  H   H5        1.0  0.89800  0.00000  0.18000  1.0000
  H   H6        1.0  0.16600  0.75000  0.23100  1.0000
  H   H7        1.0  0.66600  0.75000  0.26900  1.0000
  H   H8        1.0  0.39800  0.50000  0.32000  1.0000
  H   H9        1.0  0.39800  0.00000  0.32000  1.0000
  H   H10       1.0  0.61000  0.25000  0.44100  1.0000
  H   H11       1.0  0.15100  0.00474  0.46700  1.0000
  H   H12       1.0  0.15100  0.49500  0.46700  1.0000
  H   H13       1.0  0.84900  0.50500  0.53300  1.0000
  H   H14       1.0  0.84900  0.99500  0.53300  1.0000
  H   H15       1.0  0.39000  0.75000  0.55900  1.0000
  H   H16       1.0  0.60200  0.00002  0.68000  1.0000
  H   H17       1.0  0.60200  0.50000  0.68000  1.0000
  H   H18       1.0  0.33400  0.25000  0.73100  1.0000
  H   H19       1.0  0.83400  0.25000  0.76900  1.0000
  H   H20       1.0  0.10200  0.00002  0.82000  1.0000
  H   H21       1.0  0.10200  0.50000  0.82000  1.0000
  H   H22       1.0  0.89000  0.75000  0.94100  1.0000
  H   H23       1.0  0.34900  0.50500  0.96700  1.0000
  H   H24       1.0  0.34900  0.99500  0.96700  1.0000
  Li  Li1       1.0  0.10400  0.75000  0.02150  1.0000
  Li  Li2       1.0  0.45400  0.75000  0.12700  1.0000
  Li  Li3       1.0  0.21700  0.25000  0.24600  1.0000
  Li  Li4       1.0  0.71700  0.25000  0.25400  1.0000
  Li  Li5       1.0  0.95400  0.75000  0.37300  1.0000
  Li  Li6       1.0  0.60400  0.75000  0.47800  1.0000
  Li  Li7       1.0  0.39600  0.25000  0.52200  1.0000
  Li  Li8       1.0  0.04560  0.25000  0.62700  1.0000
  Li  Li9       1.0  0.28300  0.75000  0.74600  1.0000
  Li  Li10      1.0  0.78300  0.75000  0.75400  1.0000
  Li  Li11      1.0  0.54600  0.25000  0.87300  1.0000
  Li  Li12      1.0  0.89600  0.25000  0.97800  1.0000
  Rh  Rh1       1.0  0.77400  0.75000  0.10400  1.0000
  Rh  Rh2       1.0  0.27400  0.75000  0.39600  1.0000
  Rh  Rh3       1.0  0.72600  0.25000  0.60400  1.0000
  Rh  Rh4       1.0  0.22600  0.25000  0.89600  1.0000
