data_image0
_chemical_formula_structural       C2Cr6Ge2
_chemical_formula_sum              "C2 Cr6 Ge2"
_cell_length_a       2.95122
_cell_length_b       5.43265
_cell_length_c       7.75398
_cell_angle_alpha    90
_cell_angle_beta     90
_cell_angle_gamma    74.2394

_space_group_name_H-M_alt    "P 1"
_space_group_IT_number       1

loop_
  _space_group_symop_operation_xyz
  'x, y, z'

loop_
  _atom_site_type_symbol
  _atom_site_label
  _atom_site_symmetry_multiplicity
  _atom_site_fract_x
  _atom_site_fract_y
  _atom_site_fract_z
  _atom_site_occupancy
  C   C1        1.0  0.50000  0.00000  0.00000  1.0000
  C   C2        1.0  0.50000  0.00000  0.50000  1.0000
  Cr  Cr1       1.0  0.12300  0.75300  0.04640  1.0000
  Cr  Cr2       1.0  0.47000  0.05940  0.25000  1.0000
  Cr  Cr3       1.0  0.12300  0.75300  0.45400  1.0000
  Cr  Cr4       1.0  0.87700  0.24700  0.54600  1.0000
  Cr  Cr5       1.0  0.53000  0.94100  0.75000  1.0000
  Cr  Cr6       1.0  0.87700  0.24700  0.95400  1.0000
  Ge  Ge1       1.0  0.76000  0.48000  0.25000  1.0000
  Ge  Ge2       1.0  0.24000  0.52000  0.75000  1.0000
