data_image0
_chemical_formula_structural       As4Pt2Rb4
_chemical_formula_sum              "As4 Pt2 Rb4"
_cell_length_a       6.36022
_cell_length_b       6.75308
_cell_length_c       8.03184
_cell_angle_alpha    65.1405
_cell_angle_beta     90
_cell_angle_gamma    90

_space_group_name_H-M_alt    "P 1"
_space_group_IT_number       1

loop_
  _space_group_symop_operation_xyz
  'x, y, z'

loop_
  _atom_site_type_symbol
  _atom_site_label
  _atom_site_symmetry_multiplicity
  _atom_site_fract_x
  _atom_site_fract_y
  _atom_site_fract_z
  _atom_site_occupancy
  As  As1       1.0  0.25000  0.07600  0.21100  1.0000
  As  As2       1.0  0.25000  0.71300  0.21100  1.0000
  As  As3       1.0  0.75000  0.28700  0.78900  1.0000
  As  As4       1.0  0.75000  0.92400  0.78900  1.0000
  Pt  Pt1       1.0  0.00000  0.00000  0.00000  1.0000
  Pt  Pt2       1.0  0.50000  0.00000  0.00000  1.0000
  Rb  Rb1       1.0  0.75000  0.41400  0.17200  1.0000
  Rb  Rb2       1.0  0.75000  0.79400  0.41300  1.0000
  Rb  Rb3       1.0  0.25000  0.20600  0.58700  1.0000
  Rb  Rb4       1.0  0.25000  0.58600  0.82800  1.0000
