data_image0
_chemical_formula_structural       C2Gd2Ru4Si2
_chemical_formula_sum              "C2 Gd2 Ru4 Si2"
_cell_length_a       3.84047
_cell_length_b       5.88676
_cell_length_c       7.17483
_cell_angle_alpha    90
_cell_angle_beta     90
_cell_angle_gamma    70.962

_space_group_name_H-M_alt    "P 1"
_space_group_IT_number       1

loop_
  _space_group_symop_operation_xyz
  'x, y, z'

loop_
  _atom_site_type_symbol
  _atom_site_label
  _atom_site_symmetry_multiplicity
  _atom_site_fract_x
  _atom_site_fract_y
  _atom_site_fract_z
  _atom_site_occupancy
  C   C1        1.0  0.50000  0.00000  0.00000  1.0000
  C   C2        1.0  0.50000  0.00000  0.50000  1.0000
  Gd  Gd1       1.0  0.95200  0.09630  0.25000  1.0000
  Gd  Gd2       1.0  0.04810  0.90400  0.75000  1.0000
  Ru  Ru1       1.0  0.66500  0.67000  0.05780  1.0000
  Ru  Ru2       1.0  0.66500  0.67000  0.44200  1.0000
  Ru  Ru3       1.0  0.33500  0.33000  0.55800  1.0000
  Ru  Ru4       1.0  0.33500  0.33000  0.94200  1.0000
  Si  Si1       1.0  0.23100  0.53900  0.25000  1.0000
  Si  Si2       1.0  0.76900  0.46100  0.75000  1.0000
