data_image0
_chemical_formula_structural       B4Ir4La2
_chemical_formula_sum              "B4 Ir4 La2"
_cell_length_a       5.631
_cell_length_b       5.631
_cell_length_c       6.16303
_cell_angle_alpha    105.779
_cell_angle_beta     105.779
_cell_angle_gamma    113.877

_space_group_name_H-M_alt    "P 1"
_space_group_IT_number       1

loop_
  _space_group_symop_operation_xyz
  'x, y, z'

loop_
  _atom_site_type_symbol
  _atom_site_label
  _atom_site_symmetry_multiplicity
  _atom_site_fract_x
  _atom_site_fract_y
  _atom_site_fract_z
  _atom_site_occupancy
  B   B1        1.0  0.67800  0.32200  0.00000  1.0000
  B   B2        1.0  0.32200  0.67800  0.00000  1.0000
  B   B3        1.0  0.42800  0.57200  0.50000  1.0000
  B   B4        1.0  0.07200  0.92800  0.50000  1.0000
  Ir  Ir1       1.0  0.12000  0.62000  0.23900  1.0000
  Ir  Ir2       1.0  0.63000  0.63000  0.26100  1.0000
  Ir  Ir3       1.0  0.37000  0.37000  0.73900  1.0000
  Ir  Ir4       1.0  0.38000  0.88000  0.76100  1.0000
  La  La1       1.0  0.00000  0.00000  0.00000  1.0000
  La  La2       1.0  0.75000  0.25000  0.50000  1.0000
