data_image0
_chemical_formula_structural       Bi2FeO6Ti
_chemical_formula_sum              "Bi2 Fe1 O6 Ti1"
_cell_length_a       5.57714
_cell_length_b       5.57714
_cell_length_c       5.57714
_cell_angle_alpha    60.7185
_cell_angle_beta     60.7185
_cell_angle_gamma    60.7185

_space_group_name_H-M_alt    "P 1"
_space_group_IT_number       1

loop_
  _space_group_symop_operation_xyz
  'x, y, z'

loop_
  _atom_site_type_symbol
  _atom_site_label
  _atom_site_symmetry_multiplicity
  _atom_site_fract_x
  _atom_site_fract_y
  _atom_site_fract_z
  _atom_site_occupancy
  Bi  Bi1       1.0  0.00209  0.00209  0.00209  1.0000
  Bi  Bi2       1.0  0.50200  0.50200  0.50200  1.0000
  Fe  Fe1       1.0  0.23100  0.23100  0.23100  1.0000
  O   O1        1.0  0.88500  0.46000  0.03860  1.0000
  O   O2        1.0  0.56800  0.92600  0.38800  1.0000
  O   O3        1.0  0.03860  0.88500  0.46000  1.0000
  O   O4        1.0  0.92600  0.38800  0.56800  1.0000
  O   O5        1.0  0.46000  0.03860  0.88500  1.0000
  O   O6        1.0  0.38800  0.56800  0.92600  1.0000
  Ti  Ti1       1.0  0.72800  0.72800  0.72800  1.0000
