data_image0
_chemical_formula_structural       Br4Nb2Se4
_chemical_formula_sum              "Br4 Nb2 Se4"
_cell_length_a       6.78409
_cell_length_b       6.72444
_cell_length_c       7.51667
_cell_angle_alpha    111.926
_cell_angle_beta     90.4289
_cell_angle_gamma    119.786

_space_group_name_H-M_alt    "P 1"
_space_group_IT_number       1

loop_
  _space_group_symop_operation_xyz
  'x, y, z'

loop_
  _atom_site_type_symbol
  _atom_site_label
  _atom_site_symmetry_multiplicity
  _atom_site_fract_x
  _atom_site_fract_y
  _atom_site_fract_z
  _atom_site_occupancy
  Br  Br1       1.0  0.47800  0.64600  0.22600  1.0000
  Br  Br2       1.0  0.64900  0.22900  0.22700  1.0000
  Br  Br3       1.0  0.35100  0.77100  0.77300  1.0000
  Br  Br4       1.0  0.52200  0.35400  0.77400  1.0000
  Nb  Nb1       1.0  0.25200  0.12700  0.00048  1.0000
  Nb  Nb2       1.0  0.74800  0.87300  0.00000  1.0000
  Se  Se1       1.0  0.03830  0.78100  0.13300  1.0000
  Se  Se2       1.0  0.09130  0.17100  0.32500  1.0000
  Se  Se3       1.0  0.90900  0.82900  0.67500  1.0000
  Se  Se4       1.0  0.96200  0.21900  0.86700  1.0000
