data_image0
_chemical_formula_structural       Ba2CaO6W
_chemical_formula_sum              "Ba2 Ca1 O6 W1"
_cell_length_a       5.95246
_cell_length_b       5.93747
_cell_length_c       5.93747
_cell_angle_alpha    120.107
_cell_angle_beta     59.9311
_cell_angle_gamma    120.069

_space_group_name_H-M_alt    "P 1"
_space_group_IT_number       1

loop_
  _space_group_symop_operation_xyz
  'x, y, z'

loop_
  _atom_site_type_symbol
  _atom_site_label
  _atom_site_symmetry_multiplicity
  _atom_site_fract_x
  _atom_site_fract_y
  _atom_site_fract_z
  _atom_site_occupancy
  Ba  Ba1       1.0  0.74800  0.75000  0.25000  1.0000
  Ba  Ba2       1.0  0.25200  0.25000  0.75000  1.0000
  Ca  Ca1       1.0  0.50000  0.00000  0.00000  1.0000
  O   O1        1.0  0.24700  0.28700  0.25200  1.0000
  O   O2        1.0  0.19500  0.73000  0.27000  1.0000
  O   O3        1.0  0.75300  0.25200  0.28600  1.0000
  O   O4        1.0  0.24700  0.74800  0.71300  1.0000
  O   O5        1.0  0.80500  0.27000  0.73000  1.0000
  O   O6        1.0  0.75300  0.71400  0.74800  1.0000
  W   W1        1.0  0.00000  0.50000  0.50000  1.0000
