data_image0
_chemical_formula_structural       C2F2La2N4
_chemical_formula_sum              "C2 F2 La2 N4"
_cell_length_a       3.84084
_cell_length_b       4.74377
_cell_length_c       7.73761
_cell_angle_alpha    90
_cell_angle_beta     90
_cell_angle_gamma    66.1195

_space_group_name_H-M_alt    "P 1"
_space_group_IT_number       1

loop_
  _space_group_symop_operation_xyz
  'x, y, z'

loop_
  _atom_site_type_symbol
  _atom_site_label
  _atom_site_symmetry_multiplicity
  _atom_site_fract_x
  _atom_site_fract_y
  _atom_site_fract_z
  _atom_site_occupancy
  C   C1        1.0  0.50000  0.00000  0.00000  1.0000
  C   C2        1.0  0.50000  0.00000  0.50000  1.0000
  F   F1        1.0  0.08070  0.83900  0.25000  1.0000
  F   F2        1.0  0.91900  0.16100  0.75000  1.0000
  La  La1       1.0  0.77800  0.44400  0.25000  1.0000
  La  La2       1.0  0.22200  0.55600  0.75000  1.0000
  N   N1        1.0  0.36600  0.26700  0.05300  1.0000
  N   N2        1.0  0.36600  0.26700  0.44700  1.0000
  N   N3        1.0  0.63400  0.73300  0.55300  1.0000
  N   N4        1.0  0.63400  0.73300  0.94700  1.0000
