data_image0
_chemical_formula_structural       O6Pd2Se2
_chemical_formula_sum              "O6 Pd2 Se2"
_cell_length_a       3.84796
_cell_length_b       6.36695
_cell_length_c       6.05788
_cell_angle_alpha    90
_cell_angle_beta     96.4494
_cell_angle_gamma    90

_space_group_name_H-M_alt    "P 1"
_space_group_IT_number       1

loop_
  _space_group_symop_operation_xyz
  'x, y, z'

loop_
  _atom_site_type_symbol
  _atom_site_label
  _atom_site_symmetry_multiplicity
  _atom_site_fract_x
  _atom_site_fract_y
  _atom_site_fract_z
  _atom_site_occupancy
  O   O1        1.0  0.69900  0.25000  0.05790  1.0000
  O   O2        1.0  0.29000  0.03690  0.30000  1.0000
  O   O3        1.0  0.29000  0.46300  0.30000  1.0000
  O   O4        1.0  0.71000  0.53700  0.70000  1.0000
  O   O5        1.0  0.71000  0.96300  0.70000  1.0000
  O   O6        1.0  0.30100  0.75000  0.94200  1.0000
  Pd  Pd1       1.0  0.00000  0.00000  0.00000  1.0000
  Pd  Pd2       1.0  0.00000  0.50000  0.00000  1.0000
  Se  Se1       1.0  0.56600  0.25000  0.34000  1.0000
  Se  Se2       1.0  0.43400  0.75000  0.66000  1.0000
