data_image0
_chemical_formula_structural       B4Gd2Ru4
_chemical_formula_sum              "B4 Gd2 Ru4"
_cell_length_a       5.5805
_cell_length_b       5.5805
_cell_length_c       5.91572
_cell_angle_alpha    109.356
_cell_angle_beta     109.356
_cell_angle_gamma    107.295

_space_group_name_H-M_alt    "P 1"
_space_group_IT_number       1

loop_
  _space_group_symop_operation_xyz
  'x, y, z'

loop_
  _atom_site_type_symbol
  _atom_site_label
  _atom_site_symmetry_multiplicity
  _atom_site_fract_x
  _atom_site_fract_y
  _atom_site_fract_z
  _atom_site_occupancy
  B   B1        1.0  0.68800  0.31200  0.00000  1.0000
  B   B2        1.0  0.31200  0.68800  0.00000  1.0000
  B   B3        1.0  0.93800  0.06200  0.50000  1.0000
  B   B4        1.0  0.56200  0.43800  0.50000  1.0000
  Gd  Gd1       1.0  0.00000  0.00000  0.00000  1.0000
  Gd  Gd2       1.0  0.25000  0.75000  0.50000  1.0000
  Ru  Ru1       1.0  0.61200  0.11200  0.22400  1.0000
  Ru  Ru2       1.0  0.63800  0.63800  0.27600  1.0000
  Ru  Ru3       1.0  0.36200  0.36200  0.72400  1.0000
  Ru  Ru4       1.0  0.88800  0.38800  0.77600  1.0000
