data_image0
_chemical_formula_structural       F4O4Xe2
_chemical_formula_sum              "F4 O4 Xe2"
_cell_length_a       4.29014
_cell_length_b       4.29014
_cell_length_c       7.89575
_cell_angle_alpha    90
_cell_angle_beta     90
_cell_angle_gamma    91.586

_space_group_name_H-M_alt    "P 1"
_space_group_IT_number       1

loop_
  _space_group_symop_operation_xyz
  'x, y, z'

loop_
  _atom_site_type_symbol
  _atom_site_label
  _atom_site_symmetry_multiplicity
  _atom_site_fract_x
  _atom_site_fract_y
  _atom_site_fract_z
  _atom_site_occupancy
  F   F1        1.0  0.73500  0.26500  0.00818  1.0000
  F   F2        1.0  0.73500  0.26500  0.49200  1.0000
  F   F3        1.0  0.26500  0.73500  0.50800  1.0000
  F   F4        1.0  0.26500  0.73500  0.99200  1.0000
  O   O1        1.0  0.20400  0.28500  0.25000  1.0000
  O   O2        1.0  0.71500  0.79600  0.25000  1.0000
  O   O3        1.0  0.28500  0.20400  0.75000  1.0000
  O   O4        1.0  0.79600  0.71500  0.75000  1.0000
  Xe  Xe1       1.0  0.28600  0.71400  0.25000  1.0000
  Xe  Xe2       1.0  0.71400  0.28600  0.75000  1.0000
