data_image0
_chemical_formula_structural       B4Gd2Os4
_chemical_formula_sum              "B4 Gd2 Os4"
_cell_length_a       5.60364
_cell_length_b       5.60364
_cell_length_c       5.95152
_cell_angle_alpha    109.658
_cell_angle_beta     109.658
_cell_angle_gamma    106.583

_space_group_name_H-M_alt    "P 1"
_space_group_IT_number       1

loop_
  _space_group_symop_operation_xyz
  'x, y, z'

loop_
  _atom_site_type_symbol
  _atom_site_label
  _atom_site_symmetry_multiplicity
  _atom_site_fract_x
  _atom_site_fract_y
  _atom_site_fract_z
  _atom_site_occupancy
  B   B1        1.0  0.69000  0.31000  0.00000  1.0000
  B   B2        1.0  0.31000  0.69000  0.00000  1.0000
  B   B3        1.0  0.94000  0.05980  0.50000  1.0000
  B   B4        1.0  0.56000  0.44000  0.50000  1.0000
  Gd  Gd1       1.0  0.00000  0.00000  0.00000  1.0000
  Gd  Gd2       1.0  0.25000  0.75000  0.50000  1.0000
  Os  Os1       1.0  0.61200  0.11200  0.22300  1.0000
  Os  Os2       1.0  0.63800  0.63800  0.27700  1.0000
  Os  Os3       1.0  0.36200  0.36200  0.72300  1.0000
  Os  Os4       1.0  0.88800  0.38800  0.77700  1.0000
