data_image0
_chemical_formula_structural       As2N2V6
_chemical_formula_sum              "As2 N2 V6"
_cell_length_a       3.10547
_cell_length_b       5.30974
_cell_length_c       7.56781
_cell_angle_alpha    90
_cell_angle_beta     90
_cell_angle_gamma    72.9964

_space_group_name_H-M_alt    "P 1"
_space_group_IT_number       1

loop_
  _space_group_symop_operation_xyz
  'x, y, z'

loop_
  _atom_site_type_symbol
  _atom_site_label
  _atom_site_symmetry_multiplicity
  _atom_site_fract_x
  _atom_site_fract_y
  _atom_site_fract_z
  _atom_site_occupancy
  As  As1       1.0  0.74100  0.51900  0.25000  1.0000
  As  As2       1.0  0.25900  0.48100  0.75000  1.0000
  N   N1        1.0  0.00000  0.00000  0.00000  1.0000
  N   N2        1.0  0.00000  0.00000  0.50000  1.0000
  V   V1        1.0  0.37600  0.24800  0.04940  1.0000
  V   V2        1.0  0.03950  0.92100  0.25000  1.0000
  V   V3        1.0  0.37600  0.24800  0.45100  1.0000
  V   V4        1.0  0.62400  0.75200  0.54900  1.0000
  V   V5        1.0  0.96000  0.07910  0.75000  1.0000
  V   V6        1.0  0.62400  0.75200  0.95100  1.0000
