data_image0
_chemical_formula_structural       In2La4Rh4
_chemical_formula_sum              "In2 La4 Rh4"
_cell_length_a       7.69993
_cell_length_b       7.69993
_cell_length_c       3.98202
_cell_angle_alpha    90
_cell_angle_beta     90
_cell_angle_gamma    90

_space_group_name_H-M_alt    "P 1"
_space_group_IT_number       1

loop_
  _space_group_symop_operation_xyz
  'x, y, z'

loop_
  _atom_site_type_symbol
  _atom_site_label
  _atom_site_symmetry_multiplicity
  _atom_site_fract_x
  _atom_site_fract_y
  _atom_site_fract_z
  _atom_site_occupancy
  In  In1       1.0  0.00000  0.00000  0.00000  1.0000
  In  In2       1.0  0.50000  0.50000  0.00000  1.0000
  La  La1       1.0  0.33000  0.17000  0.50000  1.0000
  La  La2       1.0  0.83000  0.33000  0.50000  1.0000
  La  La3       1.0  0.17000  0.67000  0.50000  1.0000
  La  La4       1.0  0.67000  0.83000  0.50000  1.0000
  Rh  Rh1       1.0  0.63600  0.13600  0.00000  1.0000
  Rh  Rh2       1.0  0.13600  0.36400  0.00000  1.0000
  Rh  Rh3       1.0  0.86400  0.63600  0.00000  1.0000
  Rh  Rh4       1.0  0.36400  0.86400  0.00000  1.0000
