data_image0
_chemical_formula_structural       I2Ni4Pr4
_chemical_formula_sum              "I2 Ni4 Pr4"
_cell_length_a       4.08966
_cell_length_b       4.08997
_cell_length_c       17.4655
_cell_angle_alpha    90
_cell_angle_beta     90
_cell_angle_gamma    119.997

_space_group_name_H-M_alt    "P 1"
_space_group_IT_number       1

loop_
  _space_group_symop_operation_xyz
  'x, y, z'

loop_
  _atom_site_type_symbol
  _atom_site_label
  _atom_site_symmetry_multiplicity
  _atom_site_fract_x
  _atom_site_fract_y
  _atom_site_fract_z
  _atom_site_occupancy
  I   I1        1.0  0.66700  0.33300  0.25000  1.0000
  I   I2        1.0  0.33300  0.66700  0.75000  1.0000
  Ni  Ni1       1.0  0.66700  0.33300  0.00000  1.0000
  Ni  Ni2       1.0  0.33300  0.66700  0.00019  1.0000
  Ni  Ni3       1.0  0.33300  0.66700  0.50000  1.0000
  Ni  Ni4       1.0  0.66700  0.33300  0.50000  1.0000
  Pr  Pr1       1.0  0.00001  0.00002  0.10600  1.0000
  Pr  Pr2       1.0  0.00001  0.00002  0.39400  1.0000
  Pr  Pr3       1.0  0.00000  0.00000  0.60600  1.0000
  Pr  Pr4       1.0  0.00000  0.00000  0.89400  1.0000
