data_image0
_chemical_formula_structural       As4Ba4Zn2
_chemical_formula_sum              "As4 Ba4 Zn2"
_cell_length_a       6.6193
_cell_length_b       6.95216
_cell_length_c       8.30415
_cell_angle_alpha    114.746
_cell_angle_beta     113.488
_cell_angle_gamma    90

_space_group_name_H-M_alt    "P 1"
_space_group_IT_number       1

loop_
  _space_group_symop_operation_xyz
  'x, y, z'

loop_
  _atom_site_type_symbol
  _atom_site_label
  _atom_site_symmetry_multiplicity
  _atom_site_fract_x
  _atom_site_fract_y
  _atom_site_fract_z
  _atom_site_occupancy
  As  As1       1.0  0.60800  0.40600  0.21700  1.0000
  As  As2       1.0  0.10800  0.81100  0.21700  1.0000
  As  As3       1.0  0.89200  0.18900  0.78300  1.0000
  As  As4       1.0  0.39200  0.59400  0.78300  1.0000
  Ba  Ba1       1.0  0.13900  0.33400  0.27900  1.0000
  Ba  Ba2       1.0  0.63900  0.94500  0.27900  1.0000
  Ba  Ba3       1.0  0.36100  0.05530  0.72100  1.0000
  Ba  Ba4       1.0  0.86100  0.66600  0.72100  1.0000
  Zn  Zn1       1.0  0.25000  0.50000  0.00000  1.0000
  Zn  Zn2       1.0  0.75000  0.50000  0.00000  1.0000
