data_image0
_chemical_formula_structural       Ba2Cl2N6
_chemical_formula_sum              "Ba2 Cl2 N6"
_cell_length_a       5.58979
_cell_length_b       4.48643
_cell_length_c       7.76184
_cell_angle_alpha    90
_cell_angle_beta     102.006
_cell_angle_gamma    90

_space_group_name_H-M_alt    "P 1"
_space_group_IT_number       1

loop_
  _space_group_symop_operation_xyz
  'x, y, z'

loop_
  _atom_site_type_symbol
  _atom_site_label
  _atom_site_symmetry_multiplicity
  _atom_site_fract_x
  _atom_site_fract_y
  _atom_site_fract_z
  _atom_site_occupancy
  Ba  Ba1       1.0  0.31800  0.25000  0.23700  1.0000
  Ba  Ba2       1.0  0.68200  0.75000  0.76300  1.0000
  Cl  Cl1       1.0  0.76300  0.25000  0.05270  1.0000
  Cl  Cl2       1.0  0.23700  0.75000  0.94700  1.0000
  N   N1        1.0  0.05480  0.75000  0.35500  1.0000
  N   N2        1.0  0.84800  0.75000  0.36600  1.0000
  N   N3        1.0  0.63800  0.75000  0.37900  1.0000
  N   N4        1.0  0.36200  0.25000  0.62100  1.0000
  N   N5        1.0  0.15200  0.25000  0.63400  1.0000
  N   N6        1.0  0.94500  0.25000  0.64500  1.0000
