data_image0
_chemical_formula_structural       In12Li36O36
_chemical_formula_sum              "In12 Li36 O36"
_cell_length_a       9.716
_cell_length_b       9.71604
_cell_length_c       10.3355
_cell_angle_alpha    90
_cell_angle_beta     90.0001
_cell_angle_gamma    120

_space_group_name_H-M_alt    "P 1"
_space_group_IT_number       1

loop_
  _space_group_symop_operation_xyz
  'x, y, z'

loop_
  _atom_site_type_symbol
  _atom_site_label
  _atom_site_symmetry_multiplicity
  _atom_site_fract_x
  _atom_site_fract_y
  _atom_site_fract_z
  _atom_site_occupancy
  In  In1       1.0  0.33300  0.66700  0.25000  1.0000
  In  In2       1.0  0.66700  0.66700  0.25000  1.0000
  In  In3       1.0  0.00000  0.33300  0.25000  1.0000
  In  In4       1.0  0.00000  0.00001  0.25000  1.0000
  In  In5       1.0  0.33300  0.00002  0.25000  1.0000
  In  In6       1.0  0.66700  0.33300  0.25000  1.0000
  In  In7       1.0  0.33300  0.66700  0.75000  1.0000
  In  In8       1.0  0.33300  0.33300  0.75000  1.0000
  In  In9       1.0  0.66700  0.00000  0.75000  1.0000
  In  In10      1.0  0.00000  0.66700  0.75000  1.0000
  In  In11      1.0  0.00000  0.00000  0.75000  1.0000
  In  In12      1.0  0.66700  0.33300  0.75000  1.0000
  Li  Li1       1.0  0.57800  0.10300  0.06990  1.0000
  Li  Li2       1.0  0.52500  0.42200  0.06990  1.0000
  Li  Li3       1.0  0.89700  0.47500  0.06990  1.0000
  Li  Li4       1.0  0.24500  0.43600  0.07000  1.0000
  Li  Li5       1.0  0.56400  0.80900  0.07000  1.0000
  Li  Li6       1.0  0.19100  0.75500  0.07000  1.0000
  Li  Li7       1.0  0.23000  0.14200  0.07010  1.0000
  Li  Li8       1.0  0.91200  0.77000  0.07010  1.0000
  Li  Li9       1.0  0.85800  0.08800  0.07010  1.0000
  Li  Li10      1.0  0.08800  0.85800  0.43000  1.0000
  Li  Li11      1.0  0.14200  0.23000  0.43000  1.0000
  Li  Li12      1.0  0.77000  0.91200  0.43000  1.0000
  Li  Li13      1.0  0.80900  0.56400  0.43000  1.0000
  Li  Li14      1.0  0.43600  0.24500  0.43000  1.0000
  Li  Li15      1.0  0.75500  0.19100  0.43000  1.0000
  Li  Li16      1.0  0.10300  0.57800  0.43000  1.0000
  Li  Li17      1.0  0.42200  0.52500  0.43000  1.0000
  Li  Li18      1.0  0.47500  0.89700  0.43000  1.0000
  Li  Li19      1.0  0.57800  0.47500  0.57000  1.0000
  Li  Li20      1.0  0.52500  0.10300  0.57000  1.0000
  Li  Li21      1.0  0.89700  0.42200  0.57000  1.0000
  Li  Li22      1.0  0.24500  0.80900  0.57000  1.0000
  Li  Li23      1.0  0.56400  0.75500  0.57000  1.0000
  Li  Li24      1.0  0.19100  0.43600  0.57000  1.0000
  Li  Li25      1.0  0.23000  0.08800  0.57000  1.0000
  Li  Li26      1.0  0.91200  0.14200  0.57000  1.0000
  Li  Li27      1.0  0.85800  0.77000  0.57000  1.0000
  Li  Li28      1.0  0.08800  0.23000  0.93000  1.0000
  Li  Li29      1.0  0.14200  0.91200  0.93000  1.0000
  Li  Li30      1.0  0.77000  0.85800  0.93000  1.0000
  Li  Li31      1.0  0.80900  0.24500  0.93000  1.0000
  Li  Li32      1.0  0.43600  0.19100  0.93000  1.0000
  Li  Li33      1.0  0.75500  0.56400  0.93000  1.0000
  Li  Li34      1.0  0.10300  0.52500  0.93000  1.0000
  Li  Li35      1.0  0.42200  0.89700  0.93000  1.0000
  Li  Li36      1.0  0.47500  0.57800  0.93000  1.0000
  O   O1        1.0  0.12100  0.54100  0.12200  1.0000
  O   O2        1.0  0.42000  0.87900  0.12200  1.0000
  O   O3        1.0  0.45900  0.58000  0.12200  1.0000
  O   O4        1.0  0.08660  0.21300  0.12200  1.0000
  O   O5        1.0  0.12600  0.91300  0.12200  1.0000
  O   O6        1.0  0.78700  0.87400  0.12200  1.0000
  O   O7        1.0  0.75400  0.54600  0.12200  1.0000
  O   O8        1.0  0.79200  0.24600  0.12200  1.0000
  O   O9        1.0  0.45400  0.20800  0.12200  1.0000
  O   O10       1.0  0.54600  0.75400  0.37800  1.0000
  O   O11       1.0  0.20800  0.45400  0.37800  1.0000
  O   O12       1.0  0.24600  0.79200  0.37800  1.0000
  O   O13       1.0  0.21300  0.08660  0.37800  1.0000
  O   O14       1.0  0.87400  0.78700  0.37800  1.0000
  O   O15       1.0  0.91300  0.12600  0.37800  1.0000
  O   O16       1.0  0.54100  0.12100  0.37800  1.0000
  O   O17       1.0  0.58000  0.45900  0.37800  1.0000
  O   O18       1.0  0.87900  0.42000  0.37800  1.0000
  O   O19       1.0  0.12100  0.58000  0.62200  1.0000
  O   O20       1.0  0.42000  0.54100  0.62200  1.0000
  O   O21       1.0  0.45900  0.87900  0.62200  1.0000
  O   O22       1.0  0.08660  0.87400  0.62200  1.0000
  O   O23       1.0  0.12600  0.21300  0.62200  1.0000
  O   O24       1.0  0.78700  0.91300  0.62200  1.0000
  O   O25       1.0  0.75400  0.20800  0.62200  1.0000
  O   O26       1.0  0.79200  0.54600  0.62200  1.0000
  O   O27       1.0  0.45400  0.24600  0.62200  1.0000
  O   O28       1.0  0.54600  0.79200  0.87800  1.0000
  O   O29       1.0  0.20800  0.75400  0.87800  1.0000
  O   O30       1.0  0.24600  0.45400  0.87800  1.0000
  O   O31       1.0  0.21300  0.12600  0.87800  1.0000
  O   O32       1.0  0.87400  0.08670  0.87800  1.0000
  O   O33       1.0  0.91300  0.78700  0.87800  1.0000
  O   O34       1.0  0.54100  0.42000  0.87800  1.0000
  O   O35       1.0  0.58000  0.12100  0.87800  1.0000
  O   O36       1.0  0.87900  0.45900  0.87800  1.0000
