data_image0
_chemical_formula_structural       Bi2CrFeO6
_chemical_formula_sum              "Bi2 Cr1 Fe1 O6"
_cell_length_a       5.5446
_cell_length_b       5.5446
_cell_length_c       5.5446
_cell_angle_alpha    60.0735
_cell_angle_beta     60.0735
_cell_angle_gamma    60.0735

_space_group_name_H-M_alt    "P 1"
_space_group_IT_number       1

loop_
  _space_group_symop_operation_xyz
  'x, y, z'

loop_
  _atom_site_type_symbol
  _atom_site_label
  _atom_site_symmetry_multiplicity
  _atom_site_fract_x
  _atom_site_fract_y
  _atom_site_fract_z
  _atom_site_occupancy
  Bi  Bi1       1.0  0.00000  0.00000  1.00000  1.0000
  Bi  Bi2       1.0  0.50300  0.50300  0.50300  1.0000
  Cr  Cr1       1.0  0.22600  0.22600  0.22600  1.0000
  Fe  Fe1       1.0  0.73000  0.73000  0.73000  1.0000
  O   O1        1.0  0.90200  0.45100  0.04540  1.0000
  O   O2        1.0  0.54800  0.94900  0.40000  1.0000
  O   O3        1.0  0.04540  0.90200  0.45100  1.0000
  O   O4        1.0  0.94900  0.40000  0.54800  1.0000
  O   O5        1.0  0.45100  0.04540  0.90200  1.0000
  O   O6        1.0  0.40000  0.54800  0.94900  1.0000
