data_image0
_chemical_formula_structural       La2N4O2Ta2
_chemical_formula_sum              "La2 N4 O2 Ta2"
_cell_length_a       5.63358
_cell_length_b       5.63358
_cell_length_c       5.71079
_cell_angle_alpha    119.06
_cell_angle_beta     60.9399
_cell_angle_gamma    89.3302

_space_group_name_H-M_alt    "P 1"
_space_group_IT_number       1

loop_
  _space_group_symop_operation_xyz
  'x, y, z'

loop_
  _atom_site_type_symbol
  _atom_site_label
  _atom_site_symmetry_multiplicity
  _atom_site_fract_x
  _atom_site_fract_y
  _atom_site_fract_z
  _atom_site_occupancy
  La  La1       1.0  0.25200  0.74800  0.99200  1.0000
  La  La2       1.0  0.74800  0.25200  0.00793  1.0000
  N   N1        1.0  0.24000  0.24000  0.00000  1.0000
  N   N2        1.0  0.76000  0.76000  0.00000  1.0000
  N   N3        1.0  0.32100  0.67900  0.48300  1.0000
  N   N4        1.0  0.67900  0.32100  0.51700  1.0000
  O   O1        1.0  0.18700  0.18700  0.50000  1.0000
  O   O2        1.0  0.81300  0.81300  0.50000  1.0000
  Ta  Ta1       1.0  0.50000  0.00000  0.50000  1.0000
  Ta  Ta2       1.0  0.00000  0.50000  0.50000  1.0000
