data_image0
_chemical_formula_structural       Be4N4Sr2
_chemical_formula_sum              "Be4 N4 Sr2"
_cell_length_a       5.46322
_cell_length_b       5.46322
_cell_length_c       5.46322
_cell_angle_alpha    92.9757
_cell_angle_beta     118.297
_cell_angle_gamma    118.297

_space_group_name_H-M_alt    "P 1"
_space_group_IT_number       1

loop_
  _space_group_symop_operation_xyz
  'x, y, z'

loop_
  _atom_site_type_symbol
  _atom_site_label
  _atom_site_symmetry_multiplicity
  _atom_site_fract_x
  _atom_site_fract_y
  _atom_site_fract_z
  _atom_site_occupancy
  Be  Be1       1.0  0.75400  0.62700  0.12700  1.0000
  Be  Be2       1.0  0.50000  0.12700  0.37300  1.0000
  Be  Be3       1.0  0.50000  0.87300  0.62700  1.0000
  Be  Be4       1.0  0.24600  0.37300  0.87300  1.0000
  N   N1        1.0  0.50000  0.33200  0.16800  1.0000
  N   N2        1.0  0.16400  0.83200  0.33200  1.0000
  N   N3        1.0  0.83600  0.16800  0.66800  1.0000
  N   N4        1.0  0.50000  0.66800  0.83200  1.0000
  Sr  Sr1       1.0  0.00000  0.25000  0.25000  1.0000
  Sr  Sr2       1.0  0.00000  0.75000  0.75000  1.0000
