data_image0
_chemical_formula_structural       Ni2O2Zr6
_chemical_formula_sum              "Ni2 O2 Zr6"
_cell_length_a       3.34149
_cell_length_b       5.70659
_cell_length_c       8.80424
_cell_angle_alpha    90
_cell_angle_beta     90
_cell_angle_gamma    72.9758

_space_group_name_H-M_alt    "P 1"
_space_group_IT_number       1

loop_
  _space_group_symop_operation_xyz
  'x, y, z'

loop_
  _atom_site_type_symbol
  _atom_site_label
  _atom_site_symmetry_multiplicity
  _atom_site_fract_x
  _atom_site_fract_y
  _atom_site_fract_z
  _atom_site_occupancy
  Ni  Ni1       1.0  0.75500  0.49100  0.25000  1.0000
  Ni  Ni2       1.0  0.24500  0.50900  0.75000  1.0000
  O   O1        1.0  0.00000  0.00000  0.00000  1.0000
  O   O2        1.0  0.00000  0.00000  0.50000  1.0000
  Zr  Zr1       1.0  0.36500  0.27100  0.06090  1.0000
  Zr  Zr2       1.0  0.06690  0.86600  0.25000  1.0000
  Zr  Zr3       1.0  0.36500  0.27100  0.43900  1.0000
  Zr  Zr4       1.0  0.63500  0.72900  0.56100  1.0000
  Zr  Zr5       1.0  0.93300  0.13400  0.75000  1.0000
  Zr  Zr6       1.0  0.63500  0.72900  0.93900  1.0000
