data_image0
_chemical_formula_structural       In4P4Sr2
_chemical_formula_sum              "In4 P4 Sr2"
_cell_length_a       4.14439
_cell_length_b       4.14378
_cell_length_c       18.0063
_cell_angle_alpha    90
_cell_angle_beta     90
_cell_angle_gamma    120.005

_space_group_name_H-M_alt    "P 1"
_space_group_IT_number       1

loop_
  _space_group_symop_operation_xyz
  'x, y, z'

loop_
  _atom_site_type_symbol
  _atom_site_label
  _atom_site_symmetry_multiplicity
  _atom_site_fract_x
  _atom_site_fract_y
  _atom_site_fract_z
  _atom_site_occupancy
  In  In1       1.0  0.66700  0.33300  0.17200  1.0000
  In  In2       1.0  0.66700  0.33300  0.32800  1.0000
  In  In3       1.0  0.33300  0.66700  0.67200  1.0000
  In  In4       1.0  0.33300  0.66700  0.82800  1.0000
  P   P1        1.0  0.33300  0.66700  0.10800  1.0000
  P   P2        1.0  0.33300  0.66700  0.39200  1.0000
  P   P3        1.0  0.66700  0.33300  0.60800  1.0000
  P   P4        1.0  0.66700  0.33300  0.89200  1.0000
  Sr  Sr1       1.0  0.00000  0.00000  0.00000  1.0000
  Sr  Sr2       1.0  0.00000  0.00000  0.50000  1.0000
