data_image0
_chemical_formula_structural       Cd2La4Rh4
_chemical_formula_sum              "Cd2 La4 Rh4"
_cell_length_a       7.7639
_cell_length_b       7.7639
_cell_length_c       3.91486
_cell_angle_alpha    90
_cell_angle_beta     90
_cell_angle_gamma    90

_space_group_name_H-M_alt    "P 1"
_space_group_IT_number       1

loop_
  _space_group_symop_operation_xyz
  'x, y, z'

loop_
  _atom_site_type_symbol
  _atom_site_label
  _atom_site_symmetry_multiplicity
  _atom_site_fract_x
  _atom_site_fract_y
  _atom_site_fract_z
  _atom_site_occupancy
  Cd  Cd1       1.0  0.00000  0.00000  0.00000  1.0000
  Cd  Cd2       1.0  0.50000  0.50000  0.00000  1.0000
  La  La1       1.0  0.33400  0.16600  0.50000  1.0000
  La  La2       1.0  0.83400  0.33400  0.50000  1.0000
  La  La3       1.0  0.16600  0.66600  0.50000  1.0000
  La  La4       1.0  0.66600  0.83400  0.50000  1.0000
  Rh  Rh1       1.0  0.63800  0.13800  0.00000  1.0000
  Rh  Rh2       1.0  0.13800  0.36200  0.00000  1.0000
  Rh  Rh3       1.0  0.86200  0.63800  0.00000  1.0000
  Rh  Rh4       1.0  0.36200  0.86200  0.00000  1.0000
