data_image0
_chemical_formula_structural       Mn2Se6Th2
_chemical_formula_sum              "Mn2 Se6 Th2"
_cell_length_a       4.04855
_cell_length_b       6.67562
_cell_length_c       9.3363
_cell_angle_alpha    90
_cell_angle_beta     90
_cell_angle_gamma    72.3481

_space_group_name_H-M_alt    "P 1"
_space_group_IT_number       1

loop_
  _space_group_symop_operation_xyz
  'x, y, z'

loop_
  _atom_site_type_symbol
  _atom_site_label
  _atom_site_symmetry_multiplicity
  _atom_site_fract_x
  _atom_site_fract_y
  _atom_site_fract_z
  _atom_site_occupancy
  Mn  Mn1       1.0  0.00000  0.00000  0.00000  1.0000
  Mn  Mn2       1.0  0.00000  0.00000  0.50000  1.0000
  Se  Se1       1.0  0.35700  0.28600  0.05760  1.0000
  Se  Se2       1.0  0.08130  0.83700  0.25000  1.0000
  Se  Se3       1.0  0.35700  0.28600  0.44200  1.0000
  Se  Se4       1.0  0.64300  0.71400  0.55800  1.0000
  Se  Se5       1.0  0.91900  0.16300  0.75000  1.0000
  Se  Se6       1.0  0.64300  0.71400  0.94200  1.0000
  Th  Th1       1.0  0.75000  0.50000  0.25000  1.0000
  Th  Th2       1.0  0.25000  0.50000  0.75000  1.0000
