data_image0
_chemical_formula_structural       Cu12Ga42Li26
_chemical_formula_sum              "Cu12 Ga42 Li26"
_cell_length_a       11.7398
_cell_length_b       11.7398
_cell_length_c       11.7398
_cell_angle_alpha    109.471
_cell_angle_beta     109.471
_cell_angle_gamma    109.471

_space_group_name_H-M_alt    "P 1"
_space_group_IT_number       1

loop_
  _space_group_symop_operation_xyz
  'x, y, z'

loop_
  _atom_site_type_symbol
  _atom_site_label
  _atom_site_symmetry_multiplicity
  _atom_site_fract_x
  _atom_site_fract_y
  _atom_site_fract_z
  _atom_site_occupancy
  Cu  Cu1       1.0  0.82400  0.31900  0.14200  1.0000
  Cu  Cu2       1.0  0.31900  0.49500  0.17600  1.0000
  Cu  Cu3       1.0  0.68100  0.85800  0.17600  1.0000
  Cu  Cu4       1.0  0.49500  0.17600  0.31900  1.0000
  Cu  Cu5       1.0  0.14200  0.82400  0.31900  1.0000
  Cu  Cu6       1.0  0.17600  0.31900  0.49500  1.0000
  Cu  Cu7       1.0  0.82400  0.68100  0.50500  1.0000
  Cu  Cu8       1.0  0.85800  0.17600  0.68100  1.0000
  Cu  Cu9       1.0  0.50500  0.82400  0.68100  1.0000
  Cu  Cu10      1.0  0.31900  0.14200  0.82400  1.0000
  Cu  Cu11      1.0  0.68100  0.50500  0.82400  1.0000
  Cu  Cu12      1.0  0.17600  0.68100  0.85800  1.0000
  Ga  Ga1       1.0  0.24500  0.59400  0.02930  1.0000
  Ga  Ga2       1.0  0.43500  0.78400  0.02930  1.0000
  Ga  Ga3       1.0  0.90200  0.16000  0.06210  1.0000
  Ga  Ga4       1.0  0.50000  0.59300  0.09300  1.0000
  Ga  Ga5       1.0  0.16000  0.25700  0.09760  1.0000
  Ga  Ga6       1.0  0.84000  0.93800  0.09760  1.0000
  Ga  Ga7       1.0  0.25700  0.09760  0.16000  1.0000
  Ga  Ga8       1.0  0.06210  0.90200  0.16000  1.0000
  Ga  Ga9       1.0  0.65100  0.24500  0.21600  1.0000
  Ga  Ga10      1.0  0.97100  0.56500  0.21600  1.0000
  Ga  Ga11      1.0  0.21600  0.65100  0.24500  1.0000
  Ga  Ga12      1.0  0.59400  0.02930  0.24500  1.0000
  Ga  Ga13      1.0  0.09760  0.16000  0.25700  1.0000
  Ga  Ga14      1.0  0.56500  0.59400  0.34900  1.0000
  Ga  Ga15      1.0  0.75500  0.78400  0.34900  1.0000
  Ga  Ga16      1.0  0.65100  0.43500  0.40600  1.0000
  Ga  Ga17      1.0  0.97100  0.75500  0.40600  1.0000
  Ga  Ga18      1.0  0.90700  0.50000  0.40700  1.0000
  Ga  Ga19      1.0  0.40600  0.65100  0.43500  1.0000
  Ga  Ga20      1.0  0.78400  0.02930  0.43500  1.0000
  Ga  Ga21      1.0  0.59300  0.09300  0.50000  1.0000
  Ga  Ga22      1.0  0.40700  0.90700  0.50000  1.0000
  Ga  Ga23      1.0  0.59400  0.34900  0.56500  1.0000
  Ga  Ga24      1.0  0.21600  0.97100  0.56500  1.0000
  Ga  Ga25      1.0  0.09300  0.50000  0.59300  1.0000
  Ga  Ga26      1.0  0.02930  0.24500  0.59400  1.0000
  Ga  Ga27      1.0  0.34900  0.56500  0.59400  1.0000
  Ga  Ga28      1.0  0.24500  0.21600  0.65100  1.0000
  Ga  Ga29      1.0  0.43500  0.40600  0.65100  1.0000
  Ga  Ga30      1.0  0.90200  0.84000  0.74300  1.0000
  Ga  Ga31      1.0  0.40600  0.97100  0.75500  1.0000
  Ga  Ga32      1.0  0.78400  0.34900  0.75500  1.0000
  Ga  Ga33      1.0  0.02930  0.43500  0.78400  1.0000
  Ga  Ga34      1.0  0.34900  0.75500  0.78400  1.0000
  Ga  Ga35      1.0  0.93800  0.09760  0.84000  1.0000
  Ga  Ga36      1.0  0.74300  0.90200  0.84000  1.0000
  Ga  Ga37      1.0  0.16000  0.06210  0.90200  1.0000
  Ga  Ga38      1.0  0.84000  0.74300  0.90200  1.0000
  Ga  Ga39      1.0  0.50000  0.40700  0.90700  1.0000
  Ga  Ga40      1.0  0.09760  0.84000  0.93800  1.0000
  Ga  Ga41      1.0  0.56500  0.21600  0.97100  1.0000
  Ga  Ga42      1.0  0.75500  0.40600  0.97100  1.0000
  Li  Li1       1.0  0.37300  0.00000  0.00000  1.0000
  Li  Li2       1.0  0.62700  0.00000  0.00000  1.0000
  Li  Li3       1.0  0.00000  0.37300  0.00000  1.0000
  Li  Li4       1.0  0.00000  0.62700  0.00000  1.0000
  Li  Li5       1.0  0.42100  0.30500  0.11500  1.0000
  Li  Li6       1.0  0.81000  0.69500  0.11500  1.0000
  Li  Li7       1.0  0.30500  0.88500  0.19000  1.0000
  Li  Li8       1.0  0.70500  0.50000  0.20500  1.0000
  Li  Li9       1.0  0.50000  0.79500  0.29500  1.0000
  Li  Li10      1.0  0.11500  0.42100  0.30500  1.0000
  Li  Li11      1.0  0.88500  0.19000  0.30500  1.0000
  Li  Li12      1.0  0.00000  0.00000  0.37300  1.0000
  Li  Li13      1.0  0.37300  0.37300  0.37300  1.0000
  Li  Li14      1.0  0.30500  0.11500  0.42100  1.0000
  Li  Li15      1.0  0.79500  0.29500  0.50000  1.0000
  Li  Li16      1.0  0.20500  0.70500  0.50000  1.0000
  Li  Li17      1.0  0.69500  0.88500  0.57900  1.0000
  Li  Li18      1.0  0.00000  0.00000  0.62700  1.0000
  Li  Li19      1.0  0.62700  0.62700  0.62700  1.0000
  Li  Li20      1.0  0.11500  0.81000  0.69500  1.0000
  Li  Li21      1.0  0.88500  0.57900  0.69500  1.0000
  Li  Li22      1.0  0.50000  0.20500  0.70500  1.0000
  Li  Li23      1.0  0.29500  0.50000  0.79500  1.0000
  Li  Li24      1.0  0.69500  0.11500  0.81000  1.0000
  Li  Li25      1.0  0.19000  0.30500  0.88500  1.0000
  Li  Li26      1.0  0.57900  0.69500  0.88500  1.0000
