data_image0
_chemical_formula_structural       F2Sb2Se4Sr2
_chemical_formula_sum              "F2 Sb2 Se4 Sr2"
_cell_length_a       4.10376
_cell_length_b       4.10376
_cell_length_c       14.429
_cell_angle_alpha    90
_cell_angle_beta     90
_cell_angle_gamma    90

_space_group_name_H-M_alt    "P 1"
_space_group_IT_number       1

loop_
  _space_group_symop_operation_xyz
  'x, y, z'

loop_
  _atom_site_type_symbol
  _atom_site_label
  _atom_site_symmetry_multiplicity
  _atom_site_fract_x
  _atom_site_fract_y
  _atom_site_fract_z
  _atom_site_occupancy
  F   F1        1.0  0.75000  0.25000  0.50000  1.0000
  F   F2        1.0  0.25000  0.75000  0.50000  1.0000
  Sb  Sb1       1.0  0.25000  0.25000  0.13200  1.0000
  Sb  Sb2       1.0  0.75000  0.75000  0.86800  1.0000
  Se  Se1       1.0  0.75000  0.75000  0.10900  1.0000
  Se  Se2       1.0  0.25000  0.25000  0.30900  1.0000
  Se  Se3       1.0  0.75000  0.75000  0.69100  1.0000
  Se  Se4       1.0  0.25000  0.25000  0.89100  1.0000
  Sr  Sr1       1.0  0.75000  0.75000  0.40000  1.0000
  Sr  Sr2       1.0  0.25000  0.25000  0.60000  1.0000
