data_image0
_chemical_formula_structural       AuO6Sm3
_chemical_formula_sum              "Au1 O6 Sm3"
_cell_length_a       3.7157
_cell_length_b       5.63849
_cell_length_c       7.07949
_cell_angle_alpha    90.6416
_cell_angle_beta     103.128
_cell_angle_gamma    91.0586

_space_group_name_H-M_alt    "P 1"
_space_group_IT_number       1

loop_
  _space_group_symop_operation_xyz
  'x, y, z'

loop_
  _atom_site_type_symbol
  _atom_site_label
  _atom_site_symmetry_multiplicity
  _atom_site_fract_x
  _atom_site_fract_y
  _atom_site_fract_z
  _atom_site_occupancy
  Au  Au1       1.0  0.00000  0.00000  0.00000  1.0000
  O   O1        1.0  0.84000  0.69700  0.11600  1.0000
  O   O2        1.0  0.86800  0.20800  0.20700  1.0000
  O   O3        1.0  0.48300  0.74400  0.47800  1.0000
  O   O4        1.0  0.51700  0.25600  0.52200  1.0000
  O   O5        1.0  0.13200  0.79200  0.79300  1.0000
  O   O6        1.0  0.16000  0.30300  0.88400  1.0000
  Sm  Sm1       1.0  0.38800  0.47100  0.23500  1.0000
  Sm  Sm2       1.0  0.00000  0.00000  0.50000  1.0000
  Sm  Sm3       1.0  0.61200  0.52900  0.76500  1.0000
