data_image0
_chemical_formula_structural       Ga6Zr4
_chemical_formula_sum              "Ga6 Zr4"
_cell_length_a       5.50016
_cell_length_b       5.50016
_cell_length_c       7.43754
_cell_angle_alpha    100.793
_cell_angle_beta     100.793
_cell_angle_gamma    119.573

_space_group_name_H-M_alt    "P 1"
_space_group_IT_number       1

loop_
  _space_group_symop_operation_xyz
  'x, y, z'

loop_
  _atom_site_type_symbol
  _atom_site_label
  _atom_site_symmetry_multiplicity
  _atom_site_fract_x
  _atom_site_fract_y
  _atom_site_fract_z
  _atom_site_occupancy
  Ga  Ga1       1.0  0.60200  0.60200  0.00000  1.0000
  Ga  Ga2       1.0  0.40900  0.27000  0.23100  1.0000
  Ga  Ga3       1.0  0.42900  0.78900  0.26900  1.0000
  Ga  Ga4       1.0  0.85200  0.35200  0.50000  1.0000
  Ga  Ga5       1.0  0.52000  0.15900  0.73100  1.0000
  Ga  Ga6       1.0  0.03890  0.17900  0.76900  1.0000
  Zr  Zr1       1.0  0.85600  0.21800  0.10400  1.0000
  Zr  Zr2       1.0  0.00220  0.86400  0.39600  1.0000
  Zr  Zr3       1.0  0.46800  0.60600  0.60400  1.0000
  Zr  Zr4       1.0  0.11400  0.75200  0.89600  1.0000
