data_image0
_chemical_formula_structural       AsF6NO2
_chemical_formula_sum              "As1 F6 N1 O2"
_cell_length_a       4.33712
_cell_length_b       4.33712
_cell_length_c       5.5398
_cell_angle_alpha    85.0792
_cell_angle_beta     85.0792
_cell_angle_gamma    99.5737

_space_group_name_H-M_alt    "P 1"
_space_group_IT_number       1

loop_
  _space_group_symop_operation_xyz
  'x, y, z'

loop_
  _atom_site_type_symbol
  _atom_site_label
  _atom_site_symmetry_multiplicity
  _atom_site_fract_x
  _atom_site_fract_y
  _atom_site_fract_z
  _atom_site_occupancy
  As  As1       1.0  0.00000  0.00000  0.00000  1.0000
  F   F1        1.0  0.69000  0.69000  0.04950  1.0000
  F   F2        1.0  0.82000  0.18700  0.23100  1.0000
  F   F3        1.0  0.18700  0.82000  0.23100  1.0000
  F   F4        1.0  0.81300  0.18000  0.76900  1.0000
  F   F5        1.0  0.18000  0.81300  0.76900  1.0000
  F   F6        1.0  0.31000  0.31000  0.95000  1.0000
  N   N1        1.0  0.50000  0.50000  0.50000  1.0000
  O   O1        1.0  0.30700  0.30700  0.45900  1.0000
  O   O2        1.0  0.69300  0.69300  0.54100  1.0000
