data_image0
_chemical_formula_structural       F8V2
_chemical_formula_sum              "F8 V2"
_cell_length_a       5.11598
_cell_length_b       4.77449
_cell_length_c       4.9261
_cell_angle_alpha    90.0058
_cell_angle_beta     61.6674
_cell_angle_gamma    90.0044

_space_group_name_H-M_alt    "P 1"
_space_group_IT_number       1

loop_
  _space_group_symop_operation_xyz
  'x, y, z'

loop_
  _atom_site_type_symbol
  _atom_site_label
  _atom_site_symmetry_multiplicity
  _atom_site_fract_x
  _atom_site_fract_y
  _atom_site_fract_z
  _atom_site_occupancy
  F   F1        1.0  0.13100  0.14000  0.23800  1.0000
  F   F2        1.0  0.87800  0.66600  0.24400  1.0000
  F   F3        1.0  0.62200  0.16600  0.25600  1.0000
  F   F4        1.0  0.36900  0.64000  0.26200  1.0000
  F   F5        1.0  0.63100  0.36000  0.73800  1.0000
  F   F6        1.0  0.37800  0.83400  0.74400  1.0000
  F   F7        1.0  0.12200  0.33400  0.75600  1.0000
  F   F8        1.0  0.86900  0.86000  0.76200  1.0000
  V   V1        1.0  0.00000  0.00000  0.00000  1.0000
  V   V2        1.0  0.50000  0.50000  0.50000  1.0000
