data_image0
_chemical_formula_structural       O4Pr4Se3
_chemical_formula_sum              "O4 Pr4 Se3"
_cell_length_a       4.047
_cell_length_b       6.81916
_cell_length_c       8.49134
_cell_angle_alpha    90
_cell_angle_beta     90
_cell_angle_gamma    72.7382

_space_group_name_H-M_alt    "P 1"
_space_group_IT_number       1

loop_
  _space_group_symop_operation_xyz
  'x, y, z'

loop_
  _atom_site_type_symbol
  _atom_site_label
  _atom_site_symmetry_multiplicity
  _atom_site_fract_x
  _atom_site_fract_y
  _atom_site_fract_z
  _atom_site_occupancy
  O   O1        1.0  0.41200  0.17700  0.00000  1.0000
  O   O2        1.0  0.91200  0.17700  0.24400  1.0000
  O   O3        1.0  0.38400  0.23300  0.50000  1.0000
  O   O4        1.0  0.91200  0.17700  0.75600  1.0000
  Pr  Pr1       1.0  0.00000  0.00003  0.00000  1.0000
  Pr  Pr2       1.0  0.31500  0.37000  0.23700  1.0000
  Pr  Pr3       1.0  0.98400  0.03290  0.50000  1.0000
  Pr  Pr4       1.0  0.31500  0.37000  0.76300  1.0000
  Se  Se1       1.0  0.68700  0.62600  0.00000  1.0000
  Se  Se2       1.0  0.64300  0.71400  0.35100  1.0000
  Se  Se3       1.0  0.64300  0.71400  0.64900  1.0000
