data_image0
_chemical_formula_structural       CI5Y4
_chemical_formula_sum              "C1 I5 Y4"
_cell_length_a       3.9798
_cell_length_b       8.60286
_cell_length_c       9.76658
_cell_angle_alpha    102.342
_cell_angle_beta     101.756
_cell_angle_gamma    90

_space_group_name_H-M_alt    "P 1"
_space_group_IT_number       1

loop_
  _space_group_symop_operation_xyz
  'x, y, z'

loop_
  _atom_site_type_symbol
  _atom_site_label
  _atom_site_symmetry_multiplicity
  _atom_site_fract_x
  _atom_site_fract_y
  _atom_site_fract_z
  _atom_site_occupancy
  C   C1        1.0  0.50000  0.00000  0.00000  1.0000
  I   I1        1.0  0.16400  0.34000  0.32700  1.0000
  I   I2        1.0  0.16800  0.82200  0.33500  1.0000
  I   I3        1.0  0.83200  0.17800  0.66500  1.0000
  I   I4        1.0  0.83600  0.66000  0.67300  1.0000
  I   I5        1.0  0.50000  0.50000  0.00000  1.0000
  Y   Y1        1.0  0.00049  0.81000  0.00097  1.0000
  Y   Y2        1.0  0.62900  0.06410  0.25800  1.0000
  Y   Y3        1.0  0.37100  0.93600  0.74200  1.0000
  Y   Y4        1.0  0.00000  0.19000  0.99900  1.0000
