data_image0
_chemical_formula_structural       Br6Pb4Se
_chemical_formula_sum              "Br6 Pb4 Se1"
_cell_length_a       4.38797
_cell_length_b       9.58928
_cell_length_c       9.58928
_cell_angle_alpha    111.125
_cell_angle_beta     103.226
_cell_angle_gamma    103.226

_space_group_name_H-M_alt    "P 1"
_space_group_IT_number       1

loop_
  _space_group_symop_operation_xyz
  'x, y, z'

loop_
  _atom_site_type_symbol
  _atom_site_label
  _atom_site_symmetry_multiplicity
  _atom_site_fract_x
  _atom_site_fract_y
  _atom_site_fract_z
  _atom_site_occupancy
  Br  Br1       1.0  0.47000  0.83300  0.10600  1.0000
  Br  Br2       1.0  0.29400  0.41600  0.17200  1.0000
  Br  Br3       1.0  0.07660  0.76600  0.38700  1.0000
  Br  Br4       1.0  0.29400  0.17200  0.41600  1.0000
  Br  Br5       1.0  0.07660  0.38700  0.76600  1.0000
  Br  Br6       1.0  0.47000  0.10600  0.83300  1.0000
  Pb  Pb1       1.0  0.00129  0.00129  0.00129  1.0000
  Pb  Pb2       1.0  0.77800  0.53800  0.01880  1.0000
  Pb  Pb3       1.0  0.02880  0.52900  0.52900  1.0000
  Pb  Pb4       1.0  0.77800  0.01880  0.53800  1.0000
  Se  Se1       1.0  0.71400  0.71400  0.71400  1.0000
