data_image0
_chemical_formula_structural       La3N6V2
_chemical_formula_sum              "La3 N6 V2"
_cell_length_a       3.88997
_cell_length_b       3.88997
_cell_length_c       10.3361
_cell_angle_alpha    100.846
_cell_angle_beta     100.846
_cell_angle_gamma    90

_space_group_name_H-M_alt    "P 1"
_space_group_IT_number       1

loop_
  _space_group_symop_operation_xyz
  'x, y, z'

loop_
  _atom_site_type_symbol
  _atom_site_label
  _atom_site_symmetry_multiplicity
  _atom_site_fract_x
  _atom_site_fract_y
  _atom_site_fract_z
  _atom_site_occupancy
  La  La1       1.0  0.00000  0.00000  0.00000  1.0000
  La  La2       1.0  0.17800  0.17800  0.35600  1.0000
  La  La3       1.0  0.82200  0.82200  0.64400  1.0000
  N   N1        1.0  0.58700  0.08660  0.17300  1.0000
  N   N2        1.0  0.08660  0.58700  0.17300  1.0000
  N   N3        1.0  0.69400  0.69400  0.38800  1.0000
  N   N4        1.0  0.30600  0.30600  0.61200  1.0000
  N   N5        1.0  0.91300  0.41300  0.82700  1.0000
  N   N6        1.0  0.41300  0.91300  0.82700  1.0000
  V   V1        1.0  0.60300  0.60300  0.20600  1.0000
  V   V2        1.0  0.39700  0.39700  0.79400  1.0000
