data_image0
_chemical_formula_structural       I5Pr4Ru
_chemical_formula_sum              "I5 Pr4 Ru1"
_cell_length_a       4.29896
_cell_length_b       9.36179
_cell_length_c       10.0931
_cell_angle_alpha    103.911
_cell_angle_beta     102.296
_cell_angle_gamma    90

_space_group_name_H-M_alt    "P 1"
_space_group_IT_number       1

loop_
  _space_group_symop_operation_xyz
  'x, y, z'

loop_
  _atom_site_type_symbol
  _atom_site_label
  _atom_site_symmetry_multiplicity
  _atom_site_fract_x
  _atom_site_fract_y
  _atom_site_fract_z
  _atom_site_occupancy
  I   I1        1.0  0.50000  0.50000  0.00000  1.0000
  I   I2        1.0  0.17100  0.34300  0.34300  1.0000
  I   I3        1.0  0.17200  0.82900  0.34400  1.0000
  I   I4        1.0  0.82800  0.17100  0.65600  1.0000
  I   I5        1.0  0.82900  0.65700  0.65700  1.0000
  Pr  Pr1       1.0  0.00175  0.21200  0.00350  1.0000
  Pr  Pr2       1.0  0.64200  0.07350  0.28400  1.0000
  Pr  Pr3       1.0  0.35800  0.92600  0.71600  1.0000
  Pr  Pr4       1.0  0.99800  0.78800  0.99600  1.0000
  Ru  Ru1       1.0  0.50000  0.00000  0.00000  1.0000
