data_image0
_chemical_formula_structural       Se6Sm2Yb2
_chemical_formula_sum              "Se6 Sm2 Yb2"
_cell_length_a       4.06415
_cell_length_b       7.48866
_cell_length_c       9.21364
_cell_angle_alpha    90
_cell_angle_beta     90
_cell_angle_gamma    74.2552

_space_group_name_H-M_alt    "P 1"
_space_group_IT_number       1

loop_
  _space_group_symop_operation_xyz
  'x, y, z'

loop_
  _atom_site_type_symbol
  _atom_site_label
  _atom_site_symmetry_multiplicity
  _atom_site_fract_x
  _atom_site_fract_y
  _atom_site_fract_z
  _atom_site_occupancy
  Se  Se1       1.0  0.35800  0.28500  0.07620  1.0000
  Se  Se2       1.0  0.11100  0.77800  0.25000  1.0000
  Se  Se3       1.0  0.35800  0.28500  0.42400  1.0000
  Se  Se4       1.0  0.64200  0.71500  0.57600  1.0000
  Se  Se5       1.0  0.88900  0.22200  0.75000  1.0000
  Se  Se6       1.0  0.64200  0.71500  0.92400  1.0000
  Sm  Sm1       1.0  0.75200  0.49700  0.25000  1.0000
  Sm  Sm2       1.0  0.24800  0.50300  0.75000  1.0000
  Yb  Yb1       1.0  0.00000  0.00000  0.00000  1.0000
  Yb  Yb2       1.0  0.00000  0.00000  0.50000  1.0000
