data_image0
_chemical_formula_structural       Be6F24Li12
_chemical_formula_sum              "Be6 F24 Li12"
_cell_length_a       8.00177
_cell_length_b       8.00177
_cell_length_c       8.00177
_cell_angle_alpha    107.549
_cell_angle_beta     107.549
_cell_angle_gamma    107.549

_space_group_name_H-M_alt    "P 1"
_space_group_IT_number       1

loop_
  _space_group_symop_operation_xyz
  'x, y, z'

loop_
  _atom_site_type_symbol
  _atom_site_label
  _atom_site_symmetry_multiplicity
  _atom_site_fract_x
  _atom_site_fract_y
  _atom_site_fract_z
  _atom_site_occupancy
  Be  Be1       1.0  0.23200  0.46400  0.05520  1.0000
  Be  Be2       1.0  0.46400  0.05520  0.23200  1.0000
  Be  Be3       1.0  0.05520  0.23200  0.46400  1.0000
  Be  Be4       1.0  0.94500  0.76800  0.53600  1.0000
  Be  Be5       1.0  0.53600  0.94500  0.76800  1.0000
  Be  Be6       1.0  0.76800  0.53600  0.94500  1.0000
  F   F1        1.0  0.97200  0.69700  0.01950  1.0000
  F   F2        1.0  0.30300  0.98100  0.02790  1.0000
  F   F3        1.0  0.36800  0.36400  0.03530  1.0000
  F   F4        1.0  0.76400  0.42500  0.07210  1.0000
  F   F5        1.0  0.57500  0.92800  0.23600  1.0000
  F   F6        1.0  0.30800  0.60600  0.27000  1.0000
  F   F7        1.0  0.98100  0.02790  0.30300  1.0000
  F   F8        1.0  0.60600  0.27000  0.30800  1.0000
  F   F9        1.0  0.03530  0.36800  0.36400  1.0000
  F   F10       1.0  0.36400  0.03530  0.36800  1.0000
  F   F11       1.0  0.73000  0.69200  0.39400  1.0000
  F   F12       1.0  0.07210  0.76400  0.42500  1.0000
  F   F13       1.0  0.92800  0.23600  0.57500  1.0000
  F   F14       1.0  0.27000  0.30800  0.60600  1.0000
  F   F15       1.0  0.63600  0.96500  0.63200  1.0000
  F   F16       1.0  0.96500  0.63200  0.63600  1.0000
  F   F17       1.0  0.39400  0.73000  0.69200  1.0000
  F   F18       1.0  0.01950  0.97200  0.69700  1.0000
  F   F19       1.0  0.69200  0.39400  0.73000  1.0000
  F   F20       1.0  0.42500  0.07210  0.76400  1.0000
  F   F21       1.0  0.23600  0.57500  0.92800  1.0000
  F   F22       1.0  0.63200  0.63600  0.96500  1.0000
  F   F23       1.0  0.69700  0.01950  0.97200  1.0000
  F   F24       1.0  0.02790  0.30300  0.98100  1.0000
  Li  Li1       1.0  0.87900  0.26900  0.10900  1.0000
  Li  Li2       1.0  0.73100  0.89100  0.12100  1.0000
  Li  Li3       1.0  0.61500  0.44400  0.20300  1.0000
  Li  Li4       1.0  0.10900  0.87900  0.26900  1.0000
  Li  Li5       1.0  0.55600  0.79700  0.38500  1.0000
  Li  Li6       1.0  0.20300  0.61500  0.44400  1.0000
  Li  Li7       1.0  0.79700  0.38500  0.55600  1.0000
  Li  Li8       1.0  0.44400  0.20300  0.61500  1.0000
  Li  Li9       1.0  0.89100  0.12100  0.73100  1.0000
  Li  Li10      1.0  0.38500  0.55600  0.79700  1.0000
  Li  Li11      1.0  0.26900  0.10900  0.87900  1.0000
  Li  Li12      1.0  0.12100  0.73100  0.89100  1.0000
