data_image0
_chemical_formula_structural       Cr6N2P2
_chemical_formula_sum              "Cr6 N2 P2"
_cell_length_a       3.04978
_cell_length_b       5.04293
_cell_length_c       7.16899
_cell_angle_alpha    90
_cell_angle_beta     90
_cell_angle_gamma    72.3993

_space_group_name_H-M_alt    "P 1"
_space_group_IT_number       1

loop_
  _space_group_symop_operation_xyz
  'x, y, z'

loop_
  _atom_site_type_symbol
  _atom_site_label
  _atom_site_symmetry_multiplicity
  _atom_site_fract_x
  _atom_site_fract_y
  _atom_site_fract_z
  _atom_site_occupancy
  Cr  Cr1       1.0  0.37200  0.25600  0.05060  1.0000
  Cr  Cr2       1.0  0.05520  0.89000  0.25000  1.0000
  Cr  Cr3       1.0  0.37200  0.25600  0.44900  1.0000
  Cr  Cr4       1.0  0.62800  0.74400  0.55100  1.0000
  Cr  Cr5       1.0  0.94500  0.11000  0.75000  1.0000
  Cr  Cr6       1.0  0.62800  0.74400  0.94900  1.0000
  N   N1        1.0  0.00000  0.00000  0.00000  1.0000
  N   N2        1.0  0.00000  0.00000  0.50000  1.0000
  P   P1        1.0  0.74400  0.51100  0.25000  1.0000
  P   P2        1.0  0.25600  0.48900  0.75000  1.0000
