data_image0
_chemical_formula_structural       As4K4Pt2
_chemical_formula_sum              "As4 K4 Pt2"
_cell_length_a       6.23342
_cell_length_b       6.52421
_cell_length_c       7.87672
_cell_angle_alpha    65.5345
_cell_angle_beta     90
_cell_angle_gamma    90

_space_group_name_H-M_alt    "P 1"
_space_group_IT_number       1

loop_
  _space_group_symop_operation_xyz
  'x, y, z'

loop_
  _atom_site_type_symbol
  _atom_site_label
  _atom_site_symmetry_multiplicity
  _atom_site_fract_x
  _atom_site_fract_y
  _atom_site_fract_z
  _atom_site_occupancy
  As  As1       1.0  0.25000  0.07890  0.22000  1.0000
  As  As2       1.0  0.25000  0.70100  0.22000  1.0000
  As  As3       1.0  0.75000  0.29900  0.78000  1.0000
  As  As4       1.0  0.75000  0.92100  0.78000  1.0000
  K   K1        1.0  0.75000  0.41900  0.16300  1.0000
  K   K2        1.0  0.75000  0.79600  0.40700  1.0000
  K   K3        1.0  0.25000  0.20400  0.59300  1.0000
  K   K4        1.0  0.25000  0.58100  0.83700  1.0000
  Pt  Pt1       1.0  0.00000  0.00000  0.00000  1.0000
  Pt  Pt2       1.0  0.50000  0.00000  0.00000  1.0000
