data_image0
_chemical_formula_structural       C4Ca4O12
_chemical_formula_sum              "C4 Ca4 O12"
_cell_length_a       5.43328
_cell_length_b       4.89061
_cell_length_c       7.77181
_cell_angle_alpha    90.0201
_cell_angle_beta     90.0033
_cell_angle_gamma    90.0038

_space_group_name_H-M_alt    "P 1"
_space_group_IT_number       1

loop_
  _space_group_symop_operation_xyz
  'x, y, z'

loop_
  _atom_site_type_symbol
  _atom_site_label
  _atom_site_symmetry_multiplicity
  _atom_site_fract_x
  _atom_site_fract_y
  _atom_site_fract_z
  _atom_site_occupancy
  C   C1        1.0  0.59700  0.25000  0.23400  1.0000
  C   C2        1.0  0.40300  0.75000  0.76600  1.0000
  C   C3        1.0  0.09660  0.25000  0.26600  1.0000
  C   C4        1.0  0.90300  0.75000  0.73400  1.0000
  Ca  Ca1       1.0  0.26300  0.75000  0.41600  1.0000
  Ca  Ca2       1.0  0.73700  0.25000  0.58400  1.0000
  Ca  Ca3       1.0  0.76300  0.75000  0.08350  1.0000
  Ca  Ca4       1.0  0.23700  0.25000  0.91600  1.0000
  O   O1        1.0  0.09700  0.02190  0.18200  1.0000
  O   O2        1.0  0.61200  0.25000  0.06850  1.0000
  O   O3        1.0  0.38800  0.75000  0.93100  1.0000
  O   O4        1.0  0.11200  0.25000  0.43200  1.0000
  O   O5        1.0  0.88800  0.75000  0.56800  1.0000
  O   O6        1.0  0.59700  0.47800  0.31800  1.0000
  O   O7        1.0  0.40300  0.52200  0.68200  1.0000
  O   O8        1.0  0.90300  0.97800  0.81800  1.0000
  O   O9        1.0  0.09690  0.47800  0.18200  1.0000
  O   O10       1.0  0.90300  0.52200  0.81800  1.0000
  O   O11       1.0  0.59700  0.02200  0.31800  1.0000
  O   O12       1.0  0.40300  0.97800  0.68200  1.0000
