data_image0
_chemical_formula_structural       B2K2O6Zr
_chemical_formula_sum              "B2 K2 O6 Zr1"
_cell_length_a       5.30471
_cell_length_b       5.30506
_cell_length_c       6.51354
_cell_angle_alpha    65.9704
_cell_angle_beta     114.029
_cell_angle_gamma    119.998

_space_group_name_H-M_alt    "P 1"
_space_group_IT_number       1

loop_
  _space_group_symop_operation_xyz
  'x, y, z'

loop_
  _atom_site_type_symbol
  _atom_site_label
  _atom_site_symmetry_multiplicity
  _atom_site_fract_x
  _atom_site_fract_y
  _atom_site_fract_z
  _atom_site_occupancy
  B   B1        1.0  0.40600  0.59400  0.21700  1.0000
  B   B2        1.0  0.59400  0.40600  0.78300  1.0000
  K   K1        1.0  0.79000  0.21000  0.37000  1.0000
  K   K2        1.0  0.21000  0.79000  0.63000  1.0000
  O   O1        1.0  0.70700  0.74400  0.21900  1.0000
  O   O2        1.0  0.25600  0.74400  0.21900  1.0000
  O   O3        1.0  0.25600  0.29300  0.21900  1.0000
  O   O4        1.0  0.74400  0.70700  0.78100  1.0000
  O   O5        1.0  0.74400  0.25600  0.78100  1.0000
  O   O6        1.0  0.29300  0.25600  0.78100  1.0000
  Zr  Zr1       1.0  0.00000  0.00000  0.00000  1.0000
