data_image0
_chemical_formula_structural       As2Ca2O7
_chemical_formula_sum              "As2 Ca2 O7"
_cell_length_a       4.88424
_cell_length_b       5.8315
_cell_length_c       5.8315
_cell_angle_alpha    105.543
_cell_angle_beta     96.8059
_cell_angle_gamma    96.8059

_space_group_name_H-M_alt    "P 1"
_space_group_IT_number       1

loop_
  _space_group_symop_operation_xyz
  'x, y, z'

loop_
  _atom_site_type_symbol
  _atom_site_label
  _atom_site_symmetry_multiplicity
  _atom_site_fract_x
  _atom_site_fract_y
  _atom_site_fract_z
  _atom_site_occupancy
  As  As1       1.0  0.90900  0.22900  0.22900  1.0000
  As  As2       1.0  0.09150  0.77100  0.77100  1.0000
  Ca  Ca1       1.0  0.50000  0.69500  0.30500  1.0000
  Ca  Ca2       1.0  0.50000  0.30500  0.69500  1.0000
  O   O1        1.0  0.00000  0.00000  0.00000  1.0000
  O   O2        1.0  0.72200  0.39000  0.08370  1.0000
  O   O3        1.0  0.21800  0.38600  0.38600  1.0000
  O   O4        1.0  0.72200  0.08370  0.39000  1.0000
  O   O5        1.0  0.27800  0.91600  0.61000  1.0000
  O   O6        1.0  0.78200  0.61400  0.61400  1.0000
  O   O7        1.0  0.27800  0.61000  0.91600  1.0000
