data_image0
_chemical_formula_structural       Ge3La2Zn6
_chemical_formula_sum              "Ge3 La2 Zn6"
_cell_length_a       7.73353
_cell_length_b       7.73352
_cell_length_c       4.15849
_cell_angle_alpha    90
_cell_angle_beta     90
_cell_angle_gamma    120.001

_space_group_name_H-M_alt    "P 1"
_space_group_IT_number       1

loop_
  _space_group_symop_operation_xyz
  'x, y, z'

loop_
  _atom_site_type_symbol
  _atom_site_label
  _atom_site_symmetry_multiplicity
  _atom_site_fract_x
  _atom_site_fract_y
  _atom_site_fract_z
  _atom_site_occupancy
  Ge  Ge1       1.0  0.37800  0.00001  0.50000  1.0000
  Ge  Ge2       1.0  0.00001  0.37800  0.50000  1.0000
  Ge  Ge3       1.0  0.62200  0.62200  0.50000  1.0000
  La  La1       1.0  0.66700  0.33300  0.00000  1.0000
  La  La2       1.0  0.33300  0.66700  0.00000  1.0000
  Zn  Zn1       1.0  0.18800  0.00000  0.00000  1.0000
  Zn  Zn2       1.0  0.00000  0.18800  0.00000  1.0000
  Zn  Zn3       1.0  0.81200  0.81200  0.00000  1.0000
  Zn  Zn4       1.0  0.70900  0.00001  0.50000  1.0000
  Zn  Zn5       1.0  0.29100  0.29100  0.50000  1.0000
  Zn  Zn6       1.0  0.00001  0.70900  0.50000  1.0000
