data_image0
_chemical_formula_structural       Cu4Si4Zr3
_chemical_formula_sum              "Cu4 Si4 Zr3"
_cell_length_a       3.93267
_cell_length_b       6.39459
_cell_length_c       7.5478
_cell_angle_alpha    115.062
_cell_angle_beta     105.101
_cell_angle_gamma    90

_space_group_name_H-M_alt    "P 1"
_space_group_IT_number       1

loop_
  _space_group_symop_operation_xyz
  'x, y, z'

loop_
  _atom_site_type_symbol
  _atom_site_label
  _atom_site_symmetry_multiplicity
  _atom_site_fract_x
  _atom_site_fract_y
  _atom_site_fract_z
  _atom_site_occupancy
  Cu  Cu1       1.0  0.66900  0.47700  0.33800  1.0000
  Cu  Cu2       1.0  0.66900  0.86000  0.33800  1.0000
  Cu  Cu3       1.0  0.33100  0.14000  0.66200  1.0000
  Cu  Cu4       1.0  0.33100  0.52300  0.66200  1.0000
  Si  Si1       1.0  0.50000  0.19000  0.00000  1.0000
  Si  Si2       1.0  0.50000  0.81000  0.00000  1.0000
  Si  Si3       1.0  0.21600  0.71600  0.43100  1.0000
  Si  Si4       1.0  0.78400  0.28400  0.56900  1.0000
  Zr  Zr1       1.0  0.00000  0.50000  0.00000  1.0000
  Zr  Zr2       1.0  0.12500  0.12500  0.25000  1.0000
  Zr  Zr3       1.0  0.87500  0.87500  0.75000  1.0000
