data_image0
_chemical_formula_structural       Cd2O7V2
_chemical_formula_sum              "Cd2 O7 V2"
_cell_length_a       4.96762
_cell_length_b       5.74759
_cell_length_c       5.74759
_cell_angle_alpha    103.86
_cell_angle_beta     97.9698
_cell_angle_gamma    97.9698

_space_group_name_H-M_alt    "P 1"
_space_group_IT_number       1

loop_
  _space_group_symop_operation_xyz
  'x, y, z'

loop_
  _atom_site_type_symbol
  _atom_site_label
  _atom_site_symmetry_multiplicity
  _atom_site_fract_x
  _atom_site_fract_y
  _atom_site_fract_z
  _atom_site_occupancy
  Cd  Cd1       1.0  0.50000  0.69700  0.30300  1.0000
  Cd  Cd2       1.0  0.50000  0.30300  0.69700  1.0000
  O   O1        1.0  0.00000  0.00000  0.00000  1.0000
  O   O2        1.0  0.72000  0.39700  0.08210  1.0000
  O   O3        1.0  0.72000  0.08210  0.39700  1.0000
  O   O4        1.0  0.21500  0.39900  0.39900  1.0000
  O   O5        1.0  0.78500  0.60100  0.60100  1.0000
  O   O6        1.0  0.28000  0.91800  0.60300  1.0000
  O   O7        1.0  0.28000  0.60300  0.91800  1.0000
  V   V1        1.0  0.90900  0.22900  0.22900  1.0000
  V   V2        1.0  0.09080  0.77100  0.77100  1.0000
