data_image0
_chemical_formula_structural       O5S2Sm2Ti2
_chemical_formula_sum              "O5 S2 Sm2 Ti2"
_cell_length_a       3.83063
_cell_length_b       3.83063
_cell_length_c       11.7953
_cell_angle_alpha    99.3451
_cell_angle_beta     99.3451
_cell_angle_gamma    90

_space_group_name_H-M_alt    "P 1"
_space_group_IT_number       1

loop_
  _space_group_symop_operation_xyz
  'x, y, z'

loop_
  _atom_site_type_symbol
  _atom_site_label
  _atom_site_symmetry_multiplicity
  _atom_site_fract_x
  _atom_site_fract_y
  _atom_site_fract_z
  _atom_site_occupancy
  O   O1        1.0  0.50000  0.50000  0.00000  1.0000
  O   O2        1.0  0.59800  0.09850  0.19700  1.0000
  O   O3        1.0  0.09850  0.59800  0.19700  1.0000
  O   O4        1.0  0.90200  0.40200  0.80300  1.0000
  O   O5        1.0  0.40200  0.90200  0.80300  1.0000
  S   S1        1.0  0.70500  0.70500  0.41000  1.0000
  S   S2        1.0  0.29500  0.29500  0.59000  1.0000
  Sm  Sm1       1.0  0.16700  0.16700  0.33300  1.0000
  Sm  Sm2       1.0  0.83300  0.83300  0.66700  1.0000
  Ti  Ti1       1.0  0.57900  0.57900  0.15800  1.0000
  Ti  Ti2       1.0  0.42100  0.42100  0.84200  1.0000
