data_image0
_chemical_formula_structural       C5Nb6
_chemical_formula_sum              "C5 Nb6"
_cell_length_a       5.51341
_cell_length_b       5.50542
_cell_length_c       5.50125
_cell_angle_alpha    99.7231
_cell_angle_beta     59.9268
_cell_angle_gamma    109.696

_space_group_name_H-M_alt    "P 1"
_space_group_IT_number       1

loop_
  _space_group_symop_operation_xyz
  'x, y, z'

loop_
  _atom_site_type_symbol
  _atom_site_label
  _atom_site_symmetry_multiplicity
  _atom_site_fract_x
  _atom_site_fract_y
  _atom_site_fract_z
  _atom_site_occupancy
  C   C1        1.0  0.50000  0.50000  0.00000  1.0000
  C   C2        1.0  0.33500  0.00000  0.32900  1.0000
  C   C3        1.0  0.83300  0.50000  0.33400  1.0000
  C   C4        1.0  0.16700  0.50000  0.66600  1.0000
  C   C5        1.0  0.66500  0.00000  0.67100  1.0000
  Nb  Nb1       1.0  0.73500  0.26400  0.00000  1.0000
  Nb  Nb2       1.0  0.26500  0.73600  0.00000  1.0000
  Nb  Nb3       1.0  0.08210  0.25300  0.35300  1.0000
  Nb  Nb4       1.0  0.56500  0.74700  0.35300  1.0000
  Nb  Nb5       1.0  0.43500  0.25300  0.64700  1.0000
  Nb  Nb6       1.0  0.91800  0.74700  0.64700  1.0000
