data_image0
_chemical_formula_structural       O8W3
_chemical_formula_sum              "O8 W3"
_cell_length_a       3.79576
_cell_length_b       6.11268
_cell_length_c       6.11268
_cell_angle_alpha    116.607
_cell_angle_beta     90
_cell_angle_gamma    90

_space_group_name_H-M_alt    "P 1"
_space_group_IT_number       1

loop_
  _space_group_symop_operation_xyz
  'x, y, z'

loop_
  _atom_site_type_symbol
  _atom_site_label
  _atom_site_symmetry_multiplicity
  _atom_site_fract_x
  _atom_site_fract_y
  _atom_site_fract_z
  _atom_site_occupancy
  O   O1        1.0  0.50000  0.00000  0.00000  1.0000
  O   O2        1.0  0.99900  0.33600  0.03800  1.0000
  O   O3        1.0  0.50000  0.68900  0.31100  1.0000
  O   O4        1.0  0.00075  0.03800  0.33600  1.0000
  O   O5        1.0  0.00000  0.50000  0.50000  1.0000
  O   O6        1.0  0.00075  0.96200  0.66400  1.0000
  O   O7        1.0  0.50000  0.31100  0.68900  1.0000
  O   O8        1.0  0.99900  0.66400  0.96200  1.0000
  W   W1        1.0  0.00000  0.00000  0.00000  1.0000
  W   W2        1.0  0.00000  0.68400  0.31600  1.0000
  W   W3        1.0  0.00000  0.31600  0.68400  1.0000
