data_image0
_chemical_formula_structural       Ge2N4O2Si2
_chemical_formula_sum              "Ge2 N4 O2 Si2"
_cell_length_a       9.12673
_cell_length_b       4.97738
_cell_length_c       5.35631
_cell_angle_alpha    90
_cell_angle_beta     31.5183
_cell_angle_gamma    90

_space_group_name_H-M_alt    "P 1"
_space_group_IT_number       1

loop_
  _space_group_symop_operation_xyz
  'x, y, z'

loop_
  _atom_site_type_symbol
  _atom_site_label
  _atom_site_symmetry_multiplicity
  _atom_site_fract_x
  _atom_site_fract_y
  _atom_site_fract_z
  _atom_site_occupancy
  Ge  Ge1       1.0  0.51900  0.31600  0.30500  1.0000
  Ge  Ge2       1.0  0.48100  0.81600  0.69500  1.0000
  N   N1        1.0  0.58700  0.67500  0.24000  1.0000
  N   N2        1.0  0.15300  0.65500  0.27200  1.0000
  N   N3        1.0  0.84700  0.15500  0.72800  1.0000
  N   N4        1.0  0.41300  0.17500  0.76000  1.0000
  O   O1        1.0  0.24900  0.24400  0.48400  1.0000
  O   O2        1.0  0.75100  0.74400  0.51600  1.0000
  Si  Si1       1.0  0.16500  0.31400  0.31700  1.0000
  Si  Si2       1.0  0.83500  0.81400  0.68300  1.0000
