data_image0
_chemical_formula_structural       NiO6Sr2Te
_chemical_formula_sum              "Ni1 O6 Sr2 Te1"
_cell_length_a       5.39377
_cell_length_b       6.02949
_cell_length_c       6.02949
_cell_angle_alpha    126.096
_cell_angle_beta     63.3248
_cell_angle_gamma    116.675

_space_group_name_H-M_alt    "P 1"
_space_group_IT_number       1

loop_
  _space_group_symop_operation_xyz
  'x, y, z'

loop_
  _atom_site_type_symbol
  _atom_site_label
  _atom_site_symmetry_multiplicity
  _atom_site_fract_x
  _atom_site_fract_y
  _atom_site_fract_z
  _atom_site_occupancy
  Ni  Ni1       1.0  0.50000  0.00000  0.00000  1.0000
  O   O1        1.0  0.79300  0.79000  0.21000  1.0000
  O   O2        1.0  0.26000  0.24600  0.24400  1.0000
  O   O3        1.0  0.74000  0.24400  0.24600  1.0000
  O   O4        1.0  0.26000  0.75600  0.75400  1.0000
  O   O5        1.0  0.74000  0.75400  0.75600  1.0000
  O   O6        1.0  0.20700  0.21000  0.79000  1.0000
  Sr  Sr1       1.0  0.19700  0.69700  0.30300  1.0000
  Sr  Sr2       1.0  0.80300  0.30300  0.69700  1.0000
  Te  Te1       1.0  0.00000  0.00000  0.00000  1.0000
