data_image0
_chemical_formula_structural       Cu6S4Tl
_chemical_formula_sum              "Cu6 S4 Tl1"
_cell_length_a       3.92872
_cell_length_b       3.92872
_cell_length_c       12.3927
_cell_angle_alpha    99.1204
_cell_angle_beta     99.1204
_cell_angle_gamma    90

_space_group_name_H-M_alt    "P 1"
_space_group_IT_number       1

loop_
  _space_group_symop_operation_xyz
  'x, y, z'

loop_
  _atom_site_type_symbol
  _atom_site_label
  _atom_site_symmetry_multiplicity
  _atom_site_fract_x
  _atom_site_fract_y
  _atom_site_fract_z
  _atom_site_occupancy
  Cu  Cu1       1.0  0.62900  0.12900  0.25900  1.0000
  Cu  Cu2       1.0  0.12900  0.62900  0.25900  1.0000
  Cu  Cu3       1.0  0.75000  0.25000  0.50000  1.0000
  Cu  Cu4       1.0  0.25000  0.75000  0.50000  1.0000
  Cu  Cu5       1.0  0.87100  0.37100  0.74100  1.0000
  Cu  Cu6       1.0  0.37100  0.87100  0.74100  1.0000
  S   S1        1.0  0.58100  0.58100  0.16200  1.0000
  S   S2        1.0  0.19500  0.19500  0.38900  1.0000
  S   S3        1.0  0.80500  0.80500  0.61100  1.0000
  S   S4        1.0  0.41900  0.41900  0.83800  1.0000
  Tl  Tl1       1.0  0.00000  0.00000  0.00000  1.0000
