data_image0
_chemical_formula_structural       Cl4O4W2
_chemical_formula_sum              "Cl4 O4 W2"
_cell_length_a       7.66009
_cell_length_b       3.89307
_cell_length_c       7.65577
_cell_angle_alpha    90
_cell_angle_beta     90
_cell_angle_gamma    90

_space_group_name_H-M_alt    "P 1"
_space_group_IT_number       1

loop_
  _space_group_symop_operation_xyz
  'x, y, z'

loop_
  _atom_site_type_symbol
  _atom_site_label
  _atom_site_symmetry_multiplicity
  _atom_site_fract_x
  _atom_site_fract_y
  _atom_site_fract_z
  _atom_site_occupancy
  Cl  Cl1       1.0  0.04820  0.01350  0.29700  1.0000
  Cl  Cl2       1.0  0.54800  0.98700  0.29700  1.0000
  Cl  Cl3       1.0  0.04820  0.01350  0.70300  1.0000
  Cl  Cl4       1.0  0.54800  0.98700  0.70300  1.0000
  O   O1        1.0  0.28200  0.00755  0.00000  1.0000
  O   O2        1.0  0.02920  0.48800  0.00000  1.0000
  O   O3        1.0  0.52900  0.51200  0.00000  1.0000
  O   O4        1.0  0.78200  0.99200  0.00000  1.0000
  W   W1        1.0  0.51500  0.05700  0.00000  1.0000
  W   W2        1.0  0.01460  0.94300  0.00000  1.0000
