data_image0
_chemical_formula_structural       B4Gd2Ni4
_chemical_formula_sum              "B4 Gd2 Ni4"
_cell_length_a       4.99602
_cell_length_b       4.99602
_cell_length_c       6.10245
_cell_angle_alpha    102.608
_cell_angle_beta     104.394
_cell_angle_gamma    115.451

_space_group_name_H-M_alt    "P 1"
_space_group_IT_number       1

loop_
  _space_group_symop_operation_xyz
  'x, y, z'

loop_
  _atom_site_type_symbol
  _atom_site_label
  _atom_site_symmetry_multiplicity
  _atom_site_fract_x
  _atom_site_fract_y
  _atom_site_fract_z
  _atom_site_occupancy
  B   B1        1.0  0.17900  0.49600  0.02510  1.0000
  B   B2        1.0  0.97100  0.15400  0.47500  1.0000
  B   B3        1.0  0.02920  0.84600  0.52500  1.0000
  B   B4        1.0  0.82100  0.50400  0.97500  1.0000
  Gd  Gd1       1.0  0.36900  0.11900  0.25000  1.0000
  Gd  Gd2       1.0  0.63100  0.88100  0.75000  1.0000
  Ni  Ni1       1.0  0.66800  0.72000  0.20000  1.0000
  Ni  Ni2       1.0  0.02070  0.46900  0.30000  1.0000
  Ni  Ni3       1.0  0.97900  0.53100  0.70000  1.0000
  Ni  Ni4       1.0  0.33200  0.28000  0.80000  1.0000
