data_image0
_chemical_formula_structural       Br2Ca3Cu2O4
_chemical_formula_sum              "Br2 Ca3 Cu2 O4"
_cell_length_a       3.84885
_cell_length_b       3.84885
_cell_length_c       11.9698
_cell_angle_alpha    99.2518
_cell_angle_beta     99.2518
_cell_angle_gamma    90

_space_group_name_H-M_alt    "P 1"
_space_group_IT_number       1

loop_
  _space_group_symop_operation_xyz
  'x, y, z'

loop_
  _atom_site_type_symbol
  _atom_site_label
  _atom_site_symmetry_multiplicity
  _atom_site_fract_x
  _atom_site_fract_y
  _atom_site_fract_z
  _atom_site_occupancy
  Br  Br1       1.0  0.69400  0.69400  0.38900  1.0000
  Br  Br2       1.0  0.30600  0.30600  0.61100  1.0000
  Ca  Ca1       1.0  0.00000  0.00000  0.00000  1.0000
  Ca  Ca2       1.0  0.13500  0.13500  0.26900  1.0000
  Ca  Ca3       1.0  0.86500  0.86500  0.73100  1.0000
  Cu  Cu1       1.0  0.56800  0.56800  0.13500  1.0000
  Cu  Cu2       1.0  0.43200  0.43200  0.86500  1.0000
  O   O1        1.0  0.56900  0.06860  0.13700  1.0000
  O   O2        1.0  0.06860  0.56900  0.13700  1.0000
  O   O3        1.0  0.93100  0.43100  0.86300  1.0000
  O   O4        1.0  0.43100  0.93100  0.86300  1.0000
