data_image0
_chemical_formula_structural       C2Ge2V6
_chemical_formula_sum              "C2 Ge2 V6"
_cell_length_a       3.05773
_cell_length_b       5.26732
_cell_length_c       7.85646
_cell_angle_alpha    90
_cell_angle_beta     90
_cell_angle_gamma    73.1268

_space_group_name_H-M_alt    "P 1"
_space_group_IT_number       1

loop_
  _space_group_symop_operation_xyz
  'x, y, z'

loop_
  _atom_site_type_symbol
  _atom_site_label
  _atom_site_symmetry_multiplicity
  _atom_site_fract_x
  _atom_site_fract_y
  _atom_site_fract_z
  _atom_site_occupancy
  C   C1        1.0  0.00000  0.00000  0.00000  1.0000
  C   C2        1.0  0.00000  0.00000  0.50000  1.0000
  Ge  Ge1       1.0  0.74500  0.51000  0.25000  1.0000
  Ge  Ge2       1.0  0.25500  0.49000  0.75000  1.0000
  V   V1        1.0  0.37200  0.25600  0.04670  1.0000
  V   V2        1.0  0.04170  0.91700  0.25000  1.0000
  V   V3        1.0  0.37200  0.25600  0.45300  1.0000
  V   V4        1.0  0.62800  0.74400  0.54700  1.0000
  V   V5        1.0  0.95800  0.08330  0.75000  1.0000
  V   V6        1.0  0.62800  0.74400  0.95300  1.0000
