data_image0
_chemical_formula_structural       As2Ge3Te6
_chemical_formula_sum              "As2 Ge3 Te6"
_cell_length_a       4.17872
_cell_length_b       4.17872
_cell_length_c       20.4225
_cell_angle_alpha    90
_cell_angle_beta     95.872
_cell_angle_gamma    60

_space_group_name_H-M_alt    "P 1"
_space_group_IT_number       1

loop_
  _space_group_symop_operation_xyz
  'x, y, z'

loop_
  _atom_site_type_symbol
  _atom_site_label
  _atom_site_symmetry_multiplicity
  _atom_site_fract_x
  _atom_site_fract_y
  _atom_site_fract_z
  _atom_site_occupancy
  As  As1       1.0  0.90100  0.54900  0.35200  1.0000
  As  As2       1.0  0.09870  0.45100  0.64800  1.0000
  Ge  Ge1       1.0  0.00000  0.00000  0.00000  1.0000
  Ge  Ge2       1.0  0.45000  0.27500  0.17500  1.0000
  Ge  Ge3       1.0  0.55000  0.72500  0.82500  1.0000
  Te  Te1       1.0  0.72400  0.63800  0.08660  1.0000
  Te  Te2       1.0  0.17400  0.91300  0.26000  1.0000
  Te  Te3       1.0  0.61900  0.19100  0.42800  1.0000
  Te  Te4       1.0  0.38100  0.80900  0.57200  1.0000
  Te  Te5       1.0  0.82600  0.08680  0.74000  1.0000
  Te  Te6       1.0  0.27600  0.36200  0.91300  1.0000
