data_image0
_chemical_formula_structural       Al5Ba5Sn
_chemical_formula_sum              "Al5 Ba5 Sn1"
_cell_length_a       6.09402
_cell_length_b       6.09401
_cell_length_c       11.1714
_cell_angle_alpha    90
_cell_angle_beta     90
_cell_angle_gamma    120

_space_group_name_H-M_alt    "P 1"
_space_group_IT_number       1

loop_
  _space_group_symop_operation_xyz
  'x, y, z'

loop_
  _atom_site_type_symbol
  _atom_site_label
  _atom_site_symmetry_multiplicity
  _atom_site_fract_x
  _atom_site_fract_y
  _atom_site_fract_z
  _atom_site_occupancy
  Al  Al1       1.0  0.33300  0.66700  0.32200  1.0000
  Al  Al2       1.0  0.51200  0.02390  0.50000  1.0000
  Al  Al3       1.0  0.51200  0.48800  0.50000  1.0000
  Al  Al4       1.0  0.97600  0.48800  0.50000  1.0000
  Al  Al5       1.0  0.33300  0.66700  0.67800  1.0000
  Ba  Ba1       1.0  0.33300  0.66700  0.00000  1.0000
  Ba  Ba2       1.0  0.66700  0.33300  0.19900  1.0000
  Ba  Ba3       1.0  0.00000  0.00000  0.32800  1.0000
  Ba  Ba4       1.0  0.00000  0.00000  0.67200  1.0000
  Ba  Ba5       1.0  0.66700  0.33300  0.80100  1.0000
  Sn  Sn1       1.0  0.00000  0.00000  0.00000  1.0000
