data_image0
_chemical_formula_structural       Ce2Ge3Zn6
_chemical_formula_sum              "Ce2 Ge3 Zn6"
_cell_length_a       7.71206
_cell_length_b       7.71206
_cell_length_c       4.13864
_cell_angle_alpha    90
_cell_angle_beta     90
_cell_angle_gamma    120.001

_space_group_name_H-M_alt    "P 1"
_space_group_IT_number       1

loop_
  _space_group_symop_operation_xyz
  'x, y, z'

loop_
  _atom_site_type_symbol
  _atom_site_label
  _atom_site_symmetry_multiplicity
  _atom_site_fract_x
  _atom_site_fract_y
  _atom_site_fract_z
  _atom_site_occupancy
  Ce  Ce1       1.0  0.66700  0.33300  0.00000  1.0000
  Ce  Ce2       1.0  0.33300  0.66700  0.00000  1.0000
  Ge  Ge1       1.0  0.38100  0.00000  0.50000  1.0000
  Ge  Ge2       1.0  0.00000  0.38100  0.50000  1.0000
  Ge  Ge3       1.0  0.61900  0.61900  0.50000  1.0000
  Zn  Zn1       1.0  0.18900  0.00000  0.00000  1.0000
  Zn  Zn2       1.0  0.00000  0.18900  0.00000  1.0000
  Zn  Zn3       1.0  0.81100  0.81100  0.00000  1.0000
  Zn  Zn4       1.0  0.71100  0.00000  0.50000  1.0000
  Zn  Zn5       1.0  0.28900  0.28900  0.50000  1.0000
  Zn  Zn6       1.0  0.00000  0.71100  0.50000  1.0000
