data_image0
_chemical_formula_structural       CuO6S2Tl2
_chemical_formula_sum              "Cu1 O6 S2 Tl2"
_cell_length_a       5.49458
_cell_length_b       7.21251
_cell_length_c       5.49198
_cell_angle_alpha    112.196
_cell_angle_beta     123.634
_cell_angle_gamma    87.8132

_space_group_name_H-M_alt    "P 1"
_space_group_IT_number       1

loop_
  _space_group_symop_operation_xyz
  'x, y, z'

loop_
  _atom_site_type_symbol
  _atom_site_label
  _atom_site_symmetry_multiplicity
  _atom_site_fract_x
  _atom_site_fract_y
  _atom_site_fract_z
  _atom_site_occupancy
  Cu  Cu1       1.0  0.50000  0.50000  0.50000  1.0000
  O   O1        1.0  0.24700  0.30700  0.03020  1.0000
  O   O2        1.0  0.22300  0.69300  0.44000  1.0000
  O   O3        1.0  0.77800  0.72100  0.44300  1.0000
  O   O4        1.0  0.22200  0.27900  0.55700  1.0000
  O   O5        1.0  0.77700  0.30700  0.56000  1.0000
  O   O6        1.0  0.75300  0.69300  0.97000  1.0000
  S   S1        1.0  0.87800  0.60600  0.22900  1.0000
  S   S2        1.0  0.12200  0.39400  0.77100  1.0000
  Tl  Tl1       1.0  0.30000  0.88500  0.08460  1.0000
  Tl  Tl2       1.0  0.70000  0.11500  0.91500  1.0000
