data_image0
_chemical_formula_structural       Ge4Ir2Yb4
_chemical_formula_sum              "Ge4 Ir2 Yb4"
_cell_length_a       4.31451
_cell_length_b       5.7885
_cell_length_c       9.45503
_cell_angle_alpha    98.1556
_cell_angle_beta     103.189
_cell_angle_gamma    68.119

_space_group_name_H-M_alt    "P 1"
_space_group_IT_number       1

loop_
  _space_group_symop_operation_xyz
  'x, y, z'

loop_
  _atom_site_type_symbol
  _atom_site_label
  _atom_site_symmetry_multiplicity
  _atom_site_fract_x
  _atom_site_fract_y
  _atom_site_fract_z
  _atom_site_occupancy
  Ge  Ge1       1.0  0.48600  0.14600  0.11700  1.0000
  Ge  Ge2       1.0  0.34400  0.75400  0.44200  1.0000
  Ge  Ge3       1.0  0.65600  0.24600  0.55800  1.0000
  Ge  Ge4       1.0  0.51400  0.85400  0.88300  1.0000
  Ir  Ir1       1.0  0.72300  0.90000  0.34500  1.0000
  Ir  Ir2       1.0  0.27700  0.10000  0.65500  1.0000
  Yb  Yb1       1.0  0.18700  0.73600  0.11000  1.0000
  Yb  Yb2       1.0  0.00231  0.32500  0.33000  1.0000
  Yb  Yb3       1.0  0.99800  0.67500  0.67000  1.0000
  Yb  Yb4       1.0  0.81300  0.26400  0.89000  1.0000
