data_image0
_chemical_formula_structural       I2O4Sm4
_chemical_formula_sum              "I2 O4 Sm4"
_cell_length_a       4.11984
_cell_length_b       6.67694
_cell_length_c       8.65514
_cell_angle_alpha    98.7891
_cell_angle_beta     103.769
_cell_angle_gamma    107.97

_space_group_name_H-M_alt    "P 1"
_space_group_IT_number       1

loop_
  _space_group_symop_operation_xyz
  'x, y, z'

loop_
  _atom_site_type_symbol
  _atom_site_label
  _atom_site_symmetry_multiplicity
  _atom_site_fract_x
  _atom_site_fract_y
  _atom_site_fract_z
  _atom_site_occupancy
  I   I1        1.0  0.44300  0.75700  0.12900  1.0000
  I   I2        1.0  0.55700  0.24300  0.87100  1.0000
  O   O1        1.0  0.84300  0.37400  0.31200  1.0000
  O   O2        1.0  0.27000  0.11300  0.42600  1.0000
  O   O3        1.0  0.73000  0.88700  0.57400  1.0000
  O   O4        1.0  0.15700  0.62600  0.68800  1.0000
  Sm  Sm1       1.0  0.23500  0.26100  0.20900  1.0000
  Sm  Sm2       1.0  0.10100  0.75300  0.44900  1.0000
  Sm  Sm3       1.0  0.89900  0.24700  0.55100  1.0000
  Sm  Sm4       1.0  0.76500  0.73900  0.79100  1.0000
