data_image0
_chemical_formula_structural       Mo6Si4
_chemical_formula_sum              "Mo6 Si4"
_cell_length_a       6.63502
_cell_length_b       6.63502
_cell_length_c       3.28361
_cell_angle_alpha    90
_cell_angle_beta     90
_cell_angle_gamma    90

_space_group_name_H-M_alt    "P 1"
_space_group_IT_number       1

loop_
  _space_group_symop_operation_xyz
  'x, y, z'

loop_
  _atom_site_type_symbol
  _atom_site_label
  _atom_site_symmetry_multiplicity
  _atom_site_fract_x
  _atom_site_fract_y
  _atom_site_fract_z
  _atom_site_occupancy
  Mo  Mo1       1.0  0.00000  0.00000  0.00000  1.0000
  Mo  Mo2       1.0  0.50000  0.50000  0.00000  1.0000
  Mo  Mo3       1.0  0.33800  0.16200  0.50000  1.0000
  Mo  Mo4       1.0  0.83800  0.33800  0.50000  1.0000
  Mo  Mo5       1.0  0.16200  0.66200  0.50000  1.0000
  Mo  Mo6       1.0  0.66200  0.83800  0.50000  1.0000
  Si  Si1       1.0  0.63300  0.13300  0.00000  1.0000
  Si  Si2       1.0  0.13300  0.36700  0.00000  1.0000
  Si  Si3       1.0  0.86700  0.63300  0.00000  1.0000
  Si  Si4       1.0  0.36700  0.86700  0.00000  1.0000
