data_image0
_chemical_formula_structural       Cs2F6GaLi
_chemical_formula_sum              "Cs2 F6 Ga1 Li1"
_cell_length_a       6.0111
_cell_length_b       6.01112
_cell_length_c       4.96389
_cell_angle_alpha    90
_cell_angle_beta     90
_cell_angle_gamma    120

_space_group_name_H-M_alt    "P 1"
_space_group_IT_number       1

loop_
  _space_group_symop_operation_xyz
  'x, y, z'

loop_
  _atom_site_type_symbol
  _atom_site_label
  _atom_site_symmetry_multiplicity
  _atom_site_fract_x
  _atom_site_fract_y
  _atom_site_fract_z
  _atom_site_occupancy
  Cs  Cs1       1.0  0.33300  0.66700  0.27300  1.0000
  Cs  Cs2       1.0  0.66700  0.33300  0.72700  1.0000
  F   F1        1.0  0.29100  0.14600  0.23500  1.0000
  F   F2        1.0  0.85400  0.14600  0.23500  1.0000
  F   F3        1.0  0.85400  0.70900  0.23500  1.0000
  F   F4        1.0  0.14600  0.29100  0.76500  1.0000
  F   F5        1.0  0.14600  0.85400  0.76500  1.0000
  F   F6        1.0  0.70900  0.85400  0.76500  1.0000
  Ga  Ga1       1.0  0.00000  0.00000  0.00000  1.0000
  Li  Li1       1.0  0.00000  0.00000  0.50000  1.0000
