data_image0
_chemical_formula_structural       Al2F12K4Li2
_chemical_formula_sum              "Al2 F12 K4 Li2"
_cell_length_a       9.25819
_cell_length_b       9.25819
_cell_length_c       9.25819
_cell_angle_alpha    33.2355
_cell_angle_beta     33.2355
_cell_angle_gamma    33.2355

_space_group_name_H-M_alt    "P 1"
_space_group_IT_number       1

loop_
  _space_group_symop_operation_xyz
  'x, y, z'

loop_
  _atom_site_type_symbol
  _atom_site_label
  _atom_site_symmetry_multiplicity
  _atom_site_fract_x
  _atom_site_fract_y
  _atom_site_fract_z
  _atom_site_occupancy
  Al  Al1       1.0  0.50000  0.50000  0.50000  1.0000
  Al  Al2       1.0  0.00000  0.00000  0.00000  1.0000
  F   F1        1.0  0.61700  0.14500  0.61700  1.0000
  F   F2        1.0  0.61700  0.61700  0.14500  1.0000
  F   F3        1.0  0.14500  0.61700  0.61700  1.0000
  F   F4        1.0  0.85500  0.38300  0.38300  1.0000
  F   F5        1.0  0.38300  0.38300  0.85500  1.0000
  F   F6        1.0  0.38300  0.85500  0.38300  1.0000
  F   F7        1.0  0.80200  0.28000  0.80200  1.0000
  F   F8        1.0  0.80200  0.80200  0.28000  1.0000
  F   F9        1.0  0.28000  0.80200  0.80200  1.0000
  F   F10       1.0  0.72000  0.19800  0.19800  1.0000
  F   F11       1.0  0.19800  0.19800  0.72000  1.0000
  F   F12       1.0  0.19800  0.72000  0.19800  1.0000
  K   K1        1.0  0.28500  0.28500  0.28500  1.0000
  K   K2        1.0  0.71500  0.71500  0.71500  1.0000
  K   K3        1.0  0.12700  0.12700  0.12700  1.0000
  K   K4        1.0  0.87300  0.87300  0.87300  1.0000
  Li  Li1       1.0  0.40600  0.40600  0.40600  1.0000
  Li  Li2       1.0  0.59400  0.59400  0.59400  1.0000
