data_image0
_chemical_formula_structural       K2MnO6Se2
_chemical_formula_sum              "K2 Mn1 O6 Se2"
_cell_length_a       5.62206
_cell_length_b       5.62206
_cell_length_c       6.95783
_cell_angle_alpha    113.829
_cell_angle_beta     66.1709
_cell_angle_gamma    120

_space_group_name_H-M_alt    "P 1"
_space_group_IT_number       1

loop_
  _space_group_symop_operation_xyz
  'x, y, z'

loop_
  _atom_site_type_symbol
  _atom_site_label
  _atom_site_symmetry_multiplicity
  _atom_site_fract_x
  _atom_site_fract_y
  _atom_site_fract_z
  _atom_site_occupancy
  K   K1        1.0  0.19500  0.80500  0.41400  1.0000
  K   K2        1.0  0.80500  0.19500  0.58600  1.0000
  Mn  Mn1       1.0  0.00000  0.00000  0.00000  1.0000
  O   O1        1.0  0.26800  0.25100  0.23300  1.0000
  O   O2        1.0  0.75000  0.25100  0.23300  1.0000
  O   O3        1.0  0.74900  0.73200  0.23300  1.0000
  O   O4        1.0  0.25100  0.26800  0.76700  1.0000
  O   O5        1.0  0.25100  0.75000  0.76700  1.0000
  O   O6        1.0  0.73200  0.75000  0.76700  1.0000
  Se  Se1       1.0  0.62800  0.37200  0.11500  1.0000
  Se  Se2       1.0  0.37200  0.62800  0.88500  1.0000
