data_image0
_chemical_formula_structural       AsF6NS2
_chemical_formula_sum              "As1 F6 N1 S2"
_cell_length_a       4.9621
_cell_length_b       5.40796
_cell_length_c       5.40796
_cell_angle_alpha    67.2081
_cell_angle_beta     90.1093
_cell_angle_gamma    90.1093

_space_group_name_H-M_alt    "P 1"
_space_group_IT_number       1

loop_
  _space_group_symop_operation_xyz
  'x, y, z'

loop_
  _atom_site_type_symbol
  _atom_site_label
  _atom_site_symmetry_multiplicity
  _atom_site_fract_x
  _atom_site_fract_y
  _atom_site_fract_z
  _atom_site_occupancy
  As  As1       1.0  0.00000  0.00000  0.00000  1.0000
  F   F1        1.0  0.85900  0.67600  0.09300  1.0000
  F   F2        1.0  0.70800  0.11100  0.11100  1.0000
  F   F3        1.0  0.14000  0.90700  0.32400  1.0000
  F   F4        1.0  0.85900  0.09300  0.67600  1.0000
  F   F5        1.0  0.29200  0.88900  0.88900  1.0000
  F   F6        1.0  0.14000  0.32400  0.90700  1.0000
  N   N1        1.0  0.50000  0.50000  0.50000  1.0000
  S   S1        1.0  0.36300  0.35300  0.35300  1.0000
  S   S2        1.0  0.63700  0.64700  0.64700  1.0000
