data_image0
_chemical_formula_structural       La4O4Se3
_chemical_formula_sum              "La4 O4 Se3"
_cell_length_a       4.0939
_cell_length_b       6.90386
_cell_length_c       8.51234
_cell_angle_alpha    90
_cell_angle_beta     90
_cell_angle_gamma    107.247

_space_group_name_H-M_alt    "P 1"
_space_group_IT_number       1

loop_
  _space_group_symop_operation_xyz
  'x, y, z'

loop_
  _atom_site_type_symbol
  _atom_site_label
  _atom_site_symmetry_multiplicity
  _atom_site_fract_x
  _atom_site_fract_y
  _atom_site_fract_z
  _atom_site_occupancy
  La  La1       1.0  0.00000  0.99900  0.00000  1.0000
  La  La2       1.0  0.31400  0.62800  0.23700  1.0000
  La  La3       1.0  0.98200  0.96500  0.50000  1.0000
  La  La4       1.0  0.31400  0.62800  0.76300  1.0000
  O   O1        1.0  0.41300  0.82500  0.00000  1.0000
  O   O2        1.0  0.90900  0.81900  0.24300  1.0000
  O   O3        1.0  0.38300  0.76700  0.50000  1.0000
  O   O4        1.0  0.90900  0.81900  0.75700  1.0000
  Se  Se1       1.0  0.68800  0.37600  0.00000  1.0000
  Se  Se2       1.0  0.64100  0.28200  0.35100  1.0000
  Se  Se3       1.0  0.64100  0.28200  0.64900  1.0000
