data_image0
_chemical_formula_structural       As4Cs4Si2
_chemical_formula_sum              "As4 Cs4 Si2"
_cell_length_a       6.51657
_cell_length_b       7.73578
_cell_length_c       8.91723
_cell_angle_alpha    115.706
_cell_angle_beta     111.432
_cell_angle_gamma    90

_space_group_name_H-M_alt    "P 1"
_space_group_IT_number       1

loop_
  _space_group_symop_operation_xyz
  'x, y, z'

loop_
  _atom_site_type_symbol
  _atom_site_label
  _atom_site_symmetry_multiplicity
  _atom_site_fract_x
  _atom_site_fract_y
  _atom_site_fract_z
  _atom_site_occupancy
  As  As1       1.0  0.59100  0.43900  0.18300  1.0000
  As  As2       1.0  0.09130  0.74400  0.18300  1.0000
  As  As3       1.0  0.90900  0.25600  0.81700  1.0000
  As  As4       1.0  0.40900  0.56100  0.81700  1.0000
  Cs  Cs1       1.0  0.14400  0.31400  0.28900  1.0000
  Cs  Cs2       1.0  0.64400  0.97500  0.28900  1.0000
  Cs  Cs3       1.0  0.35600  0.02520  0.71100  1.0000
  Cs  Cs4       1.0  0.85600  0.68600  0.71100  1.0000
  Si  Si1       1.0  0.25000  0.50000  0.00000  1.0000
  Si  Si2       1.0  0.75000  0.50000  0.00000  1.0000
