data_image0
_chemical_formula_structural       F2O4Rb2S2
_chemical_formula_sum              "F2 O4 Rb2 S2"
_cell_length_a       6.83658
_cell_length_b       5.74254
_cell_length_c       4.6834
_cell_angle_alpha    90
_cell_angle_beta     106.366
_cell_angle_gamma    90

_space_group_name_H-M_alt    "P 1"
_space_group_IT_number       1

loop_
  _space_group_symop_operation_xyz
  'x, y, z'

loop_
  _atom_site_type_symbol
  _atom_site_label
  _atom_site_symmetry_multiplicity
  _atom_site_fract_x
  _atom_site_fract_y
  _atom_site_fract_z
  _atom_site_occupancy
  F   F1        1.0  0.12300  0.75000  0.19900  1.0000
  F   F2        1.0  0.87700  0.25000  0.80100  1.0000
  O   O1        1.0  0.69900  0.03750  0.32800  1.0000
  O   O2        1.0  0.69900  0.46200  0.32800  1.0000
  O   O3        1.0  0.30100  0.53800  0.67200  1.0000
  O   O4        1.0  0.30100  0.96200  0.67200  1.0000
  Rb  Rb1       1.0  0.28500  0.25000  0.16400  1.0000
  Rb  Rb2       1.0  0.71500  0.75000  0.83600  1.0000
  S   S1        1.0  0.82500  0.25000  0.39500  1.0000
  S   S2        1.0  0.17500  0.75000  0.60500  1.0000
