data_image0
_chemical_formula_structural       CaO7Si2Zr
_chemical_formula_sum              "Ca1 O7 Si2 Zr1"
_cell_length_a       4.69108
_cell_length_b       5.52233
_cell_length_c       5.52233
_cell_angle_alpha    103.354
_cell_angle_beta     97.0501
_cell_angle_gamma    97.0501

_space_group_name_H-M_alt    "P 1"
_space_group_IT_number       1

loop_
  _space_group_symop_operation_xyz
  'x, y, z'

loop_
  _atom_site_type_symbol
  _atom_site_label
  _atom_site_symmetry_multiplicity
  _atom_site_fract_x
  _atom_site_fract_y
  _atom_site_fract_z
  _atom_site_occupancy
  Ca  Ca1       1.0  0.50000  0.29200  0.70800  1.0000
  O   O1        1.0  0.71300  0.41300  0.11600  1.0000
  O   O2        1.0  0.73700  0.03900  0.34800  1.0000
  O   O3        1.0  0.22000  0.37600  0.37900  1.0000
  O   O4        1.0  0.28700  0.88400  0.58700  1.0000
  O   O5        1.0  0.78000  0.62100  0.62400  1.0000
  O   O6        1.0  0.00000  0.06100  0.93900  1.0000
  O   O7        1.0  0.26300  0.65200  0.96100  1.0000
  Si  Si1       1.0  0.91900  0.22200  0.20700  1.0000
  Si  Si2       1.0  0.08060  0.79300  0.77800  1.0000
  Zr  Zr1       1.0  0.50000  0.68600  0.31400  1.0000
