data_image0
_chemical_formula_structural       Cu4Sm2Sn5
_chemical_formula_sum              "Cu4 Sm2 Sn5"
_cell_length_a       4.41939
_cell_length_b       4.41939
_cell_length_c       12.9082
_cell_angle_alpha    99.8568
_cell_angle_beta     99.8568
_cell_angle_gamma    90

_space_group_name_H-M_alt    "P 1"
_space_group_IT_number       1

loop_
  _space_group_symop_operation_xyz
  'x, y, z'

loop_
  _atom_site_type_symbol
  _atom_site_label
  _atom_site_symmetry_multiplicity
  _atom_site_fract_x
  _atom_site_fract_y
  _atom_site_fract_z
  _atom_site_occupancy
  Cu  Cu1       1.0  0.54400  0.54400  0.08780  1.0000
  Cu  Cu2       1.0  0.90700  0.40700  0.81400  1.0000
  Cu  Cu3       1.0  0.40700  0.90700  0.81400  1.0000
  Cu  Cu4       1.0  0.45000  0.45000  0.90000  1.0000
  Sm  Sm1       1.0  0.99600  0.99600  0.99200  1.0000
  Sm  Sm2       1.0  0.31600  0.31600  0.63200  1.0000
  Sn  Sn1       1.0  0.60300  0.10300  0.20600  1.0000
  Sn  Sn2       1.0  0.10300  0.60300  0.20600  1.0000
  Sn  Sn3       1.0  0.71900  0.21900  0.43900  1.0000
  Sn  Sn4       1.0  0.21900  0.71900  0.43900  1.0000
  Sn  Sn5       1.0  0.84800  0.84800  0.69600  1.0000
