data_image0
_chemical_formula_structural       Ce4O4Se3
_chemical_formula_sum              "Ce4 O4 Se3"
_cell_length_a       4.08852
_cell_length_b       6.8826
_cell_length_c       8.53288
_cell_angle_alpha    90
_cell_angle_beta     90
_cell_angle_gamma    72.7214

_space_group_name_H-M_alt    "P 1"
_space_group_IT_number       1

loop_
  _space_group_symop_operation_xyz
  'x, y, z'

loop_
  _atom_site_type_symbol
  _atom_site_label
  _atom_site_symmetry_multiplicity
  _atom_site_fract_x
  _atom_site_fract_y
  _atom_site_fract_z
  _atom_site_occupancy
  Ce  Ce1       1.0  0.00049  0.99900  0.00000  1.0000
  Ce  Ce2       1.0  0.31400  0.37200  0.23700  1.0000
  Ce  Ce3       1.0  0.98300  0.03310  0.50000  1.0000
  Ce  Ce4       1.0  0.31400  0.37200  0.76300  1.0000
  O   O1        1.0  0.41200  0.17600  0.00000  1.0000
  O   O2        1.0  0.91100  0.17800  0.24400  1.0000
  O   O3        1.0  0.38400  0.23200  0.50000  1.0000
  O   O4        1.0  0.91100  0.17800  0.75600  1.0000
  Se  Se1       1.0  0.68700  0.62600  0.00000  1.0000
  Se  Se2       1.0  0.64300  0.71400  0.35200  1.0000
  Se  Se3       1.0  0.64300  0.71400  0.64800  1.0000
