data_image0
_chemical_formula_structural       O4Se3Sm4
_chemical_formula_sum              "O4 Se3 Sm4"
_cell_length_a       3.94676
_cell_length_b       6.65952
_cell_length_c       8.3855
_cell_angle_alpha    90
_cell_angle_beta     90
_cell_angle_gamma    72.763

_space_group_name_H-M_alt    "P 1"
_space_group_IT_number       1

loop_
  _space_group_symop_operation_xyz
  'x, y, z'

loop_
  _atom_site_type_symbol
  _atom_site_label
  _atom_site_symmetry_multiplicity
  _atom_site_fract_x
  _atom_site_fract_y
  _atom_site_fract_z
  _atom_site_occupancy
  O   O1        1.0  0.41200  0.17600  0.00000  1.0000
  O   O2        1.0  0.91300  0.17300  0.24400  1.0000
  O   O3        1.0  0.38400  0.23300  0.50000  1.0000
  O   O4        1.0  0.91300  0.17300  0.75600  1.0000
  Se  Se1       1.0  0.68800  0.62400  0.00000  1.0000
  Se  Se2       1.0  0.64500  0.71100  0.35000  1.0000
  Se  Se3       1.0  0.64500  0.71100  0.65000  1.0000
  Sm  Sm1       1.0  0.00000  0.00041  0.00000  1.0000
  Sm  Sm2       1.0  0.31800  0.36500  0.23700  1.0000
  Sm  Sm3       1.0  0.98300  0.03480  0.50000  1.0000
  Sm  Sm4       1.0  0.31800  0.36500  0.76300  1.0000
