data_image0
_chemical_formula_structural       Cl4I4Ta2
_chemical_formula_sum              "Cl4 I4 Ta2"
_cell_length_a       7.65009
_cell_length_b       7.65009
_cell_length_c       7.65009
_cell_angle_alpha    120.584
_cell_angle_beta     95.8596
_cell_angle_gamma    112.899

_space_group_name_H-M_alt    "P 1"
_space_group_IT_number       1

loop_
  _space_group_symop_operation_xyz
  'x, y, z'

loop_
  _atom_site_type_symbol
  _atom_site_label
  _atom_site_symmetry_multiplicity
  _atom_site_fract_x
  _atom_site_fract_y
  _atom_site_fract_z
  _atom_site_occupancy
  Cl  Cl1       1.0  0.27500  0.54500  0.27000  1.0000
  Cl  Cl2       1.0  0.72500  0.99600  0.27000  1.0000
  Cl  Cl3       1.0  0.27500  0.00433  0.73000  1.0000
  Cl  Cl4       1.0  0.72500  0.45500  0.73000  1.0000
  I   I1        1.0  0.18500  0.00000  0.18500  1.0000
  I   I2        1.0  0.77700  0.50000  0.27700  1.0000
  I   I3        1.0  0.22300  0.50000  0.72300  1.0000
  I   I4        1.0  0.81500  0.00000  0.81500  1.0000
  Ta  Ta1       1.0  0.00000  0.29200  0.29200  1.0000
  Ta  Ta2       1.0  0.00000  0.70800  0.70800  1.0000
