data_image0
_chemical_formula_structural       Cl4I4Pb4
_chemical_formula_sum              "Cl4 I4 Pb4"
_cell_length_a       8.29263
_cell_length_b       9.76255
_cell_length_c       4.61989
_cell_angle_alpha    90
_cell_angle_beta     90
_cell_angle_gamma    90

_space_group_name_H-M_alt    "P 1"
_space_group_IT_number       1

loop_
  _space_group_symop_operation_xyz
  'x, y, z'

loop_
  _atom_site_type_symbol
  _atom_site_label
  _atom_site_symmetry_multiplicity
  _atom_site_fract_x
  _atom_site_fract_y
  _atom_site_fract_z
  _atom_site_occupancy
  Cl  Cl1       1.0  0.86000  0.05980  0.25000  1.0000
  Cl  Cl2       1.0  0.36000  0.44000  0.25000  1.0000
  Cl  Cl3       1.0  0.64000  0.56000  0.75000  1.0000
  Cl  Cl4       1.0  0.14000  0.94000  0.75000  1.0000
  I   I1        1.0  0.96900  0.66900  0.25000  1.0000
  I   I2        1.0  0.46900  0.83100  0.25000  1.0000
  I   I3        1.0  0.53100  0.16900  0.75000  1.0000
  I   I4        1.0  0.03060  0.33100  0.75000  1.0000
  Pb  Pb1       1.0  0.20600  0.12500  0.25000  1.0000
  Pb  Pb2       1.0  0.70600  0.37500  0.25000  1.0000
  Pb  Pb3       1.0  0.29400  0.62500  0.75000  1.0000
  Pb  Pb4       1.0  0.79400  0.87500  0.75000  1.0000
