data_image0
_chemical_formula_structural       Se6Si2Tl4
_chemical_formula_sum              "Se6 Si2 Tl4"
_cell_length_a       6.95243
_cell_length_b       6.97756
_cell_length_c       8.84845
_cell_angle_alpha    90.285
_cell_angle_beta     111.843
_cell_angle_gamma    113.437

_space_group_name_H-M_alt    "P 1"
_space_group_IT_number       1

loop_
  _space_group_symop_operation_xyz
  'x, y, z'

loop_
  _atom_site_type_symbol
  _atom_site_label
  _atom_site_symmetry_multiplicity
  _atom_site_fract_x
  _atom_site_fract_y
  _atom_site_fract_z
  _atom_site_occupancy
  Se  Se1       1.0  0.23700  0.28900  0.09390  1.0000
  Se  Se2       1.0  0.52100  0.88200  0.27000  1.0000
  Se  Se3       1.0  0.23500  0.47400  0.49400  1.0000
  Se  Se4       1.0  0.76500  0.52600  0.50600  1.0000
  Se  Se5       1.0  0.47900  0.11800  0.73000  1.0000
  Se  Se6       1.0  0.76300  0.71100  0.90600  1.0000
  Si  Si1       1.0  0.43200  0.54700  0.32000  1.0000
  Si  Si2       1.0  0.56800  0.45300  0.68000  1.0000
  Tl  Tl1       1.0  0.74200  0.32200  0.10200  1.0000
  Tl  Tl2       1.0  0.11800  0.94100  0.33200  1.0000
  Tl  Tl3       1.0  0.88200  0.05860  0.66800  1.0000
  Tl  Tl4       1.0  0.25800  0.67800  0.89800  1.0000
