data_image0
_chemical_formula_structural       Cu4O4Rb4
_chemical_formula_sum              "Cu4 O4 Rb4"
_cell_length_a       5.79263
_cell_length_b       7.2856
_cell_length_c       7.2856
_cell_angle_alpha    99.093
_cell_angle_beta     66.5755
_cell_angle_gamma    113.424

_space_group_name_H-M_alt    "P 1"
_space_group_IT_number       1

loop_
  _space_group_symop_operation_xyz
  'x, y, z'

loop_
  _atom_site_type_symbol
  _atom_site_label
  _atom_site_symmetry_multiplicity
  _atom_site_fract_x
  _atom_site_fract_y
  _atom_site_fract_z
  _atom_site_occupancy
  Cu  Cu1       1.0  0.38500  0.49900  0.22900  1.0000
  Cu  Cu2       1.0  0.38600  0.77100  0.49900  1.0000
  Cu  Cu3       1.0  0.11400  0.22900  0.50100  1.0000
  Cu  Cu4       1.0  0.11500  0.50100  0.77100  1.0000
  O   O1        1.0  0.52400  0.77300  0.22600  1.0000
  O   O2        1.0  0.25000  0.22600  0.22700  1.0000
  O   O3        1.0  0.25000  0.77400  0.77300  1.0000
  O   O4        1.0  0.97600  0.22700  0.77400  1.0000
  Rb  Rb1       1.0  0.05210  0.80200  0.19800  1.0000
  Rb  Rb2       1.0  0.75000  0.19800  0.19800  1.0000
  Rb  Rb3       1.0  0.75000  0.80200  0.80200  1.0000
  Rb  Rb4       1.0  0.44800  0.19800  0.80200  1.0000
