data_image0
_chemical_formula_structural       As6Ca6
_chemical_formula_sum              "As6 Ca6"
_cell_length_a       7.90002
_cell_length_b       7.90002
_cell_length_c       5.89675
_cell_angle_alpha    90
_cell_angle_beta     90
_cell_angle_gamma    120

_space_group_name_H-M_alt    "P 1"
_space_group_IT_number       1

loop_
  _space_group_symop_operation_xyz
  'x, y, z'

loop_
  _atom_site_type_symbol
  _atom_site_label
  _atom_site_symmetry_multiplicity
  _atom_site_fract_x
  _atom_site_fract_y
  _atom_site_fract_z
  _atom_site_occupancy
  As  As1       1.0  0.66700  0.33300  0.22100  1.0000
  As  As2       1.0  0.33300  0.66700  0.22100  1.0000
  As  As3       1.0  0.00002  0.00002  0.28500  1.0000
  As  As4       1.0  0.00002  0.00002  0.71500  1.0000
  As  As5       1.0  0.66700  0.33300  0.77900  1.0000
  As  As6       1.0  0.33300  0.66700  0.77900  1.0000
  Ca  Ca1       1.0  0.31800  0.00002  0.00000  1.0000
  Ca  Ca2       1.0  0.00002  0.31800  0.00000  1.0000
  Ca  Ca3       1.0  0.68200  0.68200  0.00000  1.0000
  Ca  Ca4       1.0  0.65100  0.00002  0.50000  1.0000
  Ca  Ca5       1.0  0.34900  0.34900  0.50000  1.0000
  Ca  Ca6       1.0  0.00002  0.65100  0.50000  1.0000
