data_image0
_chemical_formula_structural       Br7Mn2Rb3
_chemical_formula_sum              "Br7 Mn2 Rb3"
_cell_length_a       5.37747
_cell_length_b       5.37747
_cell_length_c       14.3591
_cell_angle_alpha    100.792
_cell_angle_beta     100.792
_cell_angle_gamma    90

_space_group_name_H-M_alt    "P 1"
_space_group_IT_number       1

loop_
  _space_group_symop_operation_xyz
  'x, y, z'

loop_
  _atom_site_type_symbol
  _atom_site_label
  _atom_site_symmetry_multiplicity
  _atom_site_fract_x
  _atom_site_fract_y
  _atom_site_fract_z
  _atom_site_occupancy
  Br  Br1       1.0  0.50000  0.50000  0.00000  1.0000
  Br  Br2       1.0  0.59600  0.09560  0.19100  1.0000
  Br  Br3       1.0  0.09560  0.59600  0.19100  1.0000
  Br  Br4       1.0  0.69400  0.69400  0.38900  1.0000
  Br  Br5       1.0  0.30600  0.30600  0.61100  1.0000
  Br  Br6       1.0  0.90400  0.40400  0.80900  1.0000
  Br  Br7       1.0  0.40400  0.90400  0.80900  1.0000
  Mn  Mn1       1.0  0.60000  0.60000  0.19900  1.0000
  Mn  Mn2       1.0  0.40000  0.40000  0.80100  1.0000
  Rb  Rb1       1.0  0.00000  0.00000  0.00000  1.0000
  Rb  Rb2       1.0  0.18000  0.18000  0.36100  1.0000
  Rb  Rb3       1.0  0.82000  0.82000  0.63900  1.0000
