data_image0
_chemical_formula_structural       Al2O8W2
_chemical_formula_sum              "Al2 O8 W2"
_cell_length_a       4.56244
_cell_length_b       5.38339
_cell_length_c       5.38339
_cell_angle_alpha    64.3514
_cell_angle_beta     91.8649
_cell_angle_gamma    91.8649

_space_group_name_H-M_alt    "P 1"
_space_group_IT_number       1

loop_
  _space_group_symop_operation_xyz
  'x, y, z'

loop_
  _atom_site_type_symbol
  _atom_site_label
  _atom_site_symmetry_multiplicity
  _atom_site_fract_x
  _atom_site_fract_y
  _atom_site_fract_z
  _atom_site_occupancy
  Al  Al1       1.0  0.48900  0.26000  0.26000  1.0000
  Al  Al2       1.0  0.51100  0.74000  0.74000  1.0000
  O   O1        1.0  0.69700  0.60300  0.09590  1.0000
  O   O2        1.0  0.77600  0.11500  0.11500  1.0000
  O   O3        1.0  0.30300  0.90400  0.39700  1.0000
  O   O4        1.0  0.20100  0.40100  0.40100  1.0000
  O   O5        1.0  0.79900  0.59900  0.59900  1.0000
  O   O6        1.0  0.69700  0.09590  0.60300  1.0000
  O   O7        1.0  0.22400  0.88500  0.88500  1.0000
  O   O8        1.0  0.30300  0.39700  0.90400  1.0000
  W   W1        1.0  0.00000  0.77100  0.22900  1.0000
  W   W2        1.0  0.00000  0.22900  0.77100  1.0000
