data_image0
_chemical_formula_structural       F2Li2O6S2
_chemical_formula_sum              "F2 Li2 O6 S2"
_cell_length_a       4.55252
_cell_length_b       5.47585
_cell_length_c       5.47585
_cell_angle_alpha    95.4998
_cell_angle_beta     90.7374
_cell_angle_gamma    89.2626

_space_group_name_H-M_alt    "P 1"
_space_group_IT_number       1

loop_
  _space_group_symop_operation_xyz
  'x, y, z'

loop_
  _atom_site_type_symbol
  _atom_site_label
  _atom_site_symmetry_multiplicity
  _atom_site_fract_x
  _atom_site_fract_y
  _atom_site_fract_z
  _atom_site_occupancy
  F   F1        1.0  0.66100  0.72200  0.27800  1.0000
  F   F2        1.0  0.33900  0.27800  0.72200  1.0000
  Li  Li1       1.0  0.00000  0.19100  0.19100  1.0000
  Li  Li2       1.0  0.00000  0.80900  0.80900  1.0000
  O   O1        1.0  0.21800  0.88300  0.11700  1.0000
  O   O2        1.0  0.25300  0.45800  0.20900  1.0000
  O   O3        1.0  0.74700  0.20900  0.45800  1.0000
  O   O4        1.0  0.25300  0.79100  0.54200  1.0000
  O   O5        1.0  0.74700  0.54200  0.79100  1.0000
  O   O6        1.0  0.78200  0.11700  0.88300  1.0000
  S   S1        1.0  0.31200  0.71000  0.29000  1.0000
  S   S2        1.0  0.68800  0.29000  0.71000  1.0000
