data_image0
_chemical_formula_structural       Al4Ho8
_chemical_formula_sum              "Al4 Ho8"
_cell_length_a       6.52523
_cell_length_b       5.07198
_cell_length_c       9.41465
_cell_angle_alpha    90
_cell_angle_beta     90
_cell_angle_gamma    90

_space_group_name_H-M_alt    "P 1"
_space_group_IT_number       1

loop_
  _space_group_symop_operation_xyz
  'x, y, z'

loop_
  _atom_site_type_symbol
  _atom_site_label
  _atom_site_symmetry_multiplicity
  _atom_site_fract_x
  _atom_site_fract_y
  _atom_site_fract_z
  _atom_site_occupancy
  Al  Al1       1.0  0.29200  0.25000  0.10300  1.0000
  Al  Al2       1.0  0.79200  0.25000  0.39700  1.0000
  Al  Al3       1.0  0.20800  0.75000  0.60300  1.0000
  Al  Al4       1.0  0.70800  0.75000  0.89700  1.0000
  Ho  Ho1       1.0  0.81300  0.25000  0.07270  1.0000
  Ho  Ho2       1.0  0.52700  0.75000  0.21000  1.0000
  Ho  Ho3       1.0  0.02740  0.75000  0.29000  1.0000
  Ho  Ho4       1.0  0.31300  0.25000  0.42700  1.0000
  Ho  Ho5       1.0  0.68700  0.75000  0.57300  1.0000
  Ho  Ho6       1.0  0.97300  0.25000  0.71000  1.0000
  Ho  Ho7       1.0  0.47300  0.25000  0.79000  1.0000
  Ho  Ho8       1.0  0.18700  0.75000  0.92700  1.0000
