data_image0
_chemical_formula_structural       Cl8NW2
_chemical_formula_sum              "Cl8 N1 W2"
_cell_length_a       6.51698
_cell_length_b       6.5739
_cell_length_c       7.07065
_cell_angle_alpha    89.5942
_cell_angle_beta     81.6494
_cell_angle_gamma    82.741

_space_group_name_H-M_alt    "P 1"
_space_group_IT_number       1

loop_
  _space_group_symop_operation_xyz
  'x, y, z'

loop_
  _atom_site_type_symbol
  _atom_site_label
  _atom_site_symmetry_multiplicity
  _atom_site_fract_x
  _atom_site_fract_y
  _atom_site_fract_z
  _atom_site_occupancy
  Cl  Cl1       1.0  0.21300  0.87000  0.12900  1.0000
  Cl  Cl2       1.0  0.36500  0.38700  0.22500  1.0000
  Cl  Cl3       1.0  0.73300  0.78800  0.30700  1.0000
  Cl  Cl4       1.0  0.89200  0.31400  0.41300  1.0000
  Cl  Cl5       1.0  0.10800  0.68600  0.58700  1.0000
  Cl  Cl6       1.0  0.26700  0.21200  0.69300  1.0000
  Cl  Cl7       1.0  0.63500  0.61300  0.77500  1.0000
  Cl  Cl8       1.0  0.78700  0.13000  0.87100  1.0000
  N   N1        1.0  0.00000  0.50000  0.00000  1.0000
  W   W1        1.0  0.05130  0.59100  0.23100  1.0000
  W   W2        1.0  0.94900  0.40900  0.76900  1.0000
