data_image0
_chemical_formula_structural       Cu4Ge4Sm3
_chemical_formula_sum              "Cu4 Ge4 Sm3"
_cell_length_a       4.27535
_cell_length_b       6.71148
_cell_length_c       8.12139
_cell_angle_alpha    114.406
_cell_angle_beta     105.261
_cell_angle_gamma    90

_space_group_name_H-M_alt    "P 1"
_space_group_IT_number       1

loop_
  _space_group_symop_operation_xyz
  'x, y, z'

loop_
  _atom_site_type_symbol
  _atom_site_label
  _atom_site_symmetry_multiplicity
  _atom_site_fract_x
  _atom_site_fract_y
  _atom_site_fract_z
  _atom_site_occupancy
  Cu  Cu1       1.0  0.66800  0.48000  0.33600  1.0000
  Cu  Cu2       1.0  0.66800  0.85600  0.33600  1.0000
  Cu  Cu3       1.0  0.33200  0.14400  0.66400  1.0000
  Cu  Cu4       1.0  0.33200  0.52000  0.66400  1.0000
  Ge  Ge1       1.0  0.50000  0.19000  0.00000  1.0000
  Ge  Ge2       1.0  0.50000  0.81000  0.00000  1.0000
  Ge  Ge3       1.0  0.21600  0.71600  0.43200  1.0000
  Ge  Ge4       1.0  0.78400  0.28400  0.56800  1.0000
  Sm  Sm1       1.0  0.00000  0.50000  0.00000  1.0000
  Sm  Sm2       1.0  0.13100  0.13100  0.26300  1.0000
  Sm  Sm3       1.0  0.86900  0.86900  0.73700  1.0000
