data_image0
_chemical_formula_structural       KO8P2Sb
_chemical_formula_sum              "K1 O8 P2 Sb1"
_cell_length_a       4.74141
_cell_length_b       4.74141
_cell_length_c       8.64329
_cell_angle_alpha    74.0807
_cell_angle_beta     105.919
_cell_angle_gamma    120

_space_group_name_H-M_alt    "P 1"
_space_group_IT_number       1

loop_
  _space_group_symop_operation_xyz
  'x, y, z'

loop_
  _atom_site_type_symbol
  _atom_site_label
  _atom_site_symmetry_multiplicity
  _atom_site_fract_x
  _atom_site_fract_y
  _atom_site_fract_z
  _atom_site_occupancy
  K   K1        1.0  0.50000  0.50000  0.50000  1.0000
  O   O1        1.0  0.73200  0.98600  0.14500  1.0000
  O   O2        1.0  0.39900  0.26800  0.14500  1.0000
  O   O3        1.0  0.01410  0.60100  0.14500  1.0000
  O   O4        1.0  0.79900  0.20100  0.39800  1.0000
  O   O5        1.0  0.20100  0.79900  0.60200  1.0000
  O   O6        1.0  0.98600  0.39900  0.85500  1.0000
  O   O7        1.0  0.60100  0.73200  0.85500  1.0000
  O   O8        1.0  0.26800  0.01410  0.85500  1.0000
  P   P1        1.0  0.73900  0.26100  0.21700  1.0000
  P   P2        1.0  0.26100  0.73900  0.78300  1.0000
  Sb  Sb1       1.0  0.00000  0.00000  0.00000  1.0000
