data_image0
_chemical_formula_structural       In2S6Zn3
_chemical_formula_sum              "In2 S6 Zn3"
_cell_length_a       3.89476
_cell_length_b       3.89448
_cell_length_c       18.4319
_cell_angle_alpha    90
_cell_angle_beta     89.9995
_cell_angle_gamma    119.998

_space_group_name_H-M_alt    "P 1"
_space_group_IT_number       1

loop_
  _space_group_symop_operation_xyz
  'x, y, z'

loop_
  _atom_site_type_symbol
  _atom_site_label
  _atom_site_symmetry_multiplicity
  _atom_site_fract_x
  _atom_site_fract_y
  _atom_site_fract_z
  _atom_site_occupancy
  In  In1       1.0  0.33300  0.66700  0.03970  1.0000
  In  In2       1.0  0.66700  0.33300  0.42600  1.0000
  S   S1        1.0  0.00000  0.00000  0.98300  1.0000
  S   S2        1.0  0.33400  0.66700  0.17700  1.0000
  S   S3        1.0  0.00000  0.00000  0.34700  1.0000
  S   S4        1.0  0.33300  0.66700  0.49800  1.0000
  S   S5        1.0  0.00000  0.00000  0.66400  1.0000
  S   S6        1.0  0.33300  0.66700  0.83500  1.0000
  Zn  Zn1       1.0  0.00013  0.00006  0.22400  1.0000
  Zn  Zn2       1.0  0.33300  0.66700  0.63100  1.0000
  Zn  Zn3       1.0  0.00000  0.00000  0.79800  1.0000
