data_image0
_chemical_formula_structural       As4GeTe7
_chemical_formula_sum              "As4 Ge1 Te7"
_cell_length_a       4.11973
_cell_length_b       4.11973
_cell_length_c       23.4017
_cell_angle_alpha    90
_cell_angle_beta     90.0006
_cell_angle_gamma    120

_space_group_name_H-M_alt    "P 1"
_space_group_IT_number       1

loop_
  _space_group_symop_operation_xyz
  'x, y, z'

loop_
  _atom_site_type_symbol
  _atom_site_label
  _atom_site_symmetry_multiplicity
  _atom_site_fract_x
  _atom_site_fract_y
  _atom_site_fract_z
  _atom_site_occupancy
  As  As1       1.0  0.66700  0.33300  0.07840  1.0000
  As  As2       1.0  0.66700  0.33300  0.34300  1.0000
  As  As3       1.0  0.33300  0.66700  0.65700  1.0000
  As  As4       1.0  0.33300  0.66700  0.92200  1.0000
  Ge  Ge1       1.0  0.00000  0.00000  0.50000  1.0000
  Te  Te1       1.0  0.00000  0.00000  0.00000  1.0000
  Te  Te2       1.0  0.33300  0.66700  0.14600  1.0000
  Te  Te3       1.0  0.00000  0.00000  0.27600  1.0000
  Te  Te4       1.0  0.33300  0.66700  0.42400  1.0000
  Te  Te5       1.0  0.66700  0.33300  0.57600  1.0000
  Te  Te6       1.0  0.00000  0.00000  0.72400  1.0000
  Te  Te7       1.0  0.66700  0.33300  0.85400  1.0000
