data_image0
_chemical_formula_structural       Cl6O2TlW2
_chemical_formula_sum              "Cl6 O2 Tl1 W2"
_cell_length_a       3.81171
_cell_length_b       6.75519
_cell_length_c       10.6017
_cell_angle_alpha    106.841
_cell_angle_beta     90
_cell_angle_gamma    106.387

_space_group_name_H-M_alt    "P 1"
_space_group_IT_number       1

loop_
  _space_group_symop_operation_xyz
  'x, y, z'

loop_
  _atom_site_type_symbol
  _atom_site_label
  _atom_site_symmetry_multiplicity
  _atom_site_fract_x
  _atom_site_fract_y
  _atom_site_fract_z
  _atom_site_occupancy
  Cl  Cl1       1.0  0.15700  0.31300  0.05240  1.0000
  Cl  Cl2       1.0  0.87400  0.74800  0.25800  1.0000
  Cl  Cl3       1.0  0.14000  0.27900  0.34900  1.0000
  Cl  Cl4       1.0  0.86000  0.72100  0.65100  1.0000
  Cl  Cl5       1.0  0.12600  0.25200  0.74200  1.0000
  Cl  Cl6       1.0  0.84300  0.68700  0.94800  1.0000
  O   O1        1.0  0.50400  0.00707  0.13600  1.0000
  O   O2        1.0  0.49600  0.99300  0.86400  1.0000
  Tl  Tl1       1.0  0.50000  0.00000  0.50000  1.0000
  W   W1        1.0  0.00380  0.00760  0.13600  1.0000
  W   W2        1.0  0.99600  0.99200  0.86400  1.0000
