data_image0
_chemical_formula_structural       B3Cl6N3
_chemical_formula_sum              "B3 Cl6 N3"
_cell_length_a       6.16645
_cell_length_b       6.16645
_cell_length_c       6.16645
_cell_angle_alpha    92.1705
_cell_angle_beta     92.1705
_cell_angle_gamma    92.1705

_space_group_name_H-M_alt    "P 1"
_space_group_IT_number       1

loop_
  _space_group_symop_operation_xyz
  'x, y, z'

loop_
  _atom_site_type_symbol
  _atom_site_label
  _atom_site_symmetry_multiplicity
  _atom_site_fract_x
  _atom_site_fract_y
  _atom_site_fract_z
  _atom_site_occupancy
  B   B1        1.0  0.93400  0.87600  0.18800  1.0000
  B   B2        1.0  0.18800  0.93400  0.87600  1.0000
  B   B3        1.0  0.87600  0.18800  0.93400  1.0000
  Cl  Cl1       1.0  0.25800  0.59800  0.13500  1.0000
  Cl  Cl2       1.0  0.59800  0.13500  0.25800  1.0000
  Cl  Cl3       1.0  0.85400  0.72700  0.40800  1.0000
  Cl  Cl4       1.0  0.13500  0.25800  0.59800  1.0000
  Cl  Cl5       1.0  0.40800  0.85400  0.72700  1.0000
  Cl  Cl6       1.0  0.72700  0.40800  0.85400  1.0000
  N   N1        1.0  0.11700  0.81900  0.06280  1.0000
  N   N2        1.0  0.81900  0.06280  0.11700  1.0000
  N   N3        1.0  0.06280  0.11700  0.81900  1.0000
