data_image0
_chemical_formula_structural       Cu4Te6Zr2
_chemical_formula_sum              "Cu4 Te6 Zr2"
_cell_length_a       4.07743
_cell_length_b       7.31732
_cell_length_c       10.4241
_cell_angle_alpha    97.6472
_cell_angle_beta     101.278
_cell_angle_gamma    90

_space_group_name_H-M_alt    "P 1"
_space_group_IT_number       1

loop_
  _space_group_symop_operation_xyz
  'x, y, z'

loop_
  _atom_site_type_symbol
  _atom_site_label
  _atom_site_symmetry_multiplicity
  _atom_site_fract_x
  _atom_site_fract_y
  _atom_site_fract_z
  _atom_site_occupancy
  Cu  Cu1       1.0  0.54800  0.15100  0.09560  1.0000
  Cu  Cu2       1.0  0.21200  0.42800  0.42500  1.0000
  Cu  Cu3       1.0  0.78800  0.57200  0.57500  1.0000
  Cu  Cu4       1.0  0.45200  0.84900  0.90400  1.0000
  Te  Te1       1.0  0.58100  0.81900  0.16200  1.0000
  Te  Te2       1.0  0.08220  0.36800  0.16400  1.0000
  Te  Te3       1.0  0.74900  0.21800  0.49800  1.0000
  Te  Te4       1.0  0.25100  0.78200  0.50200  1.0000
  Te  Te5       1.0  0.91800  0.63200  0.83600  1.0000
  Te  Te6       1.0  0.41900  0.18100  0.83800  1.0000
  Zr  Zr1       1.0  0.14600  0.05550  0.29100  1.0000
  Zr  Zr2       1.0  0.85400  0.94500  0.70900  1.0000
