data_image0
_chemical_formula_structural       Ca2O8W2
_chemical_formula_sum              "Ca2 O8 W2"
_cell_length_a       6.74967
_cell_length_b       5.22443
_cell_length_c       5.22443
_cell_angle_alpha    90
_cell_angle_beta     112.769
_cell_angle_gamma    112.769

_space_group_name_H-M_alt    "P 1"
_space_group_IT_number       1

loop_
  _space_group_symop_operation_xyz
  'x, y, z'

loop_
  _atom_site_type_symbol
  _atom_site_label
  _atom_site_symmetry_multiplicity
  _atom_site_fract_x
  _atom_site_fract_y
  _atom_site_fract_z
  _atom_site_occupancy
  Ca  Ca1       1.0  0.75000  0.37500  0.12500  1.0000
  Ca  Ca2       1.0  0.25000  0.62500  0.87500  1.0000
  O   O1        1.0  0.07550  0.79300  0.13400  1.0000
  O   O2        1.0  0.42500  0.36600  0.21700  1.0000
  O   O3        1.0  0.57500  0.94100  0.29300  1.0000
  O   O4        1.0  0.07550  0.28300  0.44100  1.0000
  O   O5        1.0  0.92500  0.71700  0.55900  1.0000
  O   O6        1.0  0.42500  0.05890  0.70700  1.0000
  O   O7        1.0  0.57500  0.63400  0.78300  1.0000
  O   O8        1.0  0.92500  0.20700  0.86600  1.0000
  W   W1        1.0  0.25000  0.12500  0.37500  1.0000
  W   W2        1.0  0.75000  0.87500  0.62500  1.0000
