data_image0
_chemical_formula_structural       Br5C2Ce4
_chemical_formula_sum              "Br5 C2 Ce4"
_cell_length_a       10.4109
_cell_length_b       4.03293
_cell_length_c       8.33975
_cell_angle_alpha    90
_cell_angle_beta     113.611
_cell_angle_gamma    101.168

_space_group_name_H-M_alt    "P 1"
_space_group_IT_number       1

loop_
  _space_group_symop_operation_xyz
  'x, y, z'

loop_
  _atom_site_type_symbol
  _atom_site_label
  _atom_site_symmetry_multiplicity
  _atom_site_fract_x
  _atom_site_fract_y
  _atom_site_fract_z
  _atom_site_occupancy
  Br  Br1       1.0  0.00000  0.50000  0.00000  1.0000
  Br  Br2       1.0  0.67000  0.83500  0.06080  1.0000
  Br  Br3       1.0  0.33000  0.16500  0.39000  1.0000
  Br  Br4       1.0  0.67000  0.83500  0.61000  1.0000
  Br  Br5       1.0  0.33000  0.16500  0.93900  1.0000
  C   C1        1.0  0.92500  0.46200  0.46200  1.0000
  C   C2        1.0  0.07500  0.53800  0.53800  1.0000
  Ce  Ce1       1.0  0.00000  0.00000  0.29500  1.0000
  Ce  Ce2       1.0  0.67700  0.33800  0.33800  1.0000
  Ce  Ce3       1.0  0.32300  0.66200  0.66200  1.0000
  Ce  Ce4       1.0  0.00000  0.00000  0.70500  1.0000
