data_image0
_chemical_formula_structural       Cr2O8Sm2
_chemical_formula_sum              "Cr2 O8 Sm2"
_cell_length_a       6.02239
_cell_length_b       6.02239
_cell_length_c       6.02239
_cell_angle_alpha    106.076
_cell_angle_beta     116.498
_cell_angle_gamma    106.076

_space_group_name_H-M_alt    "P 1"
_space_group_IT_number       1

loop_
  _space_group_symop_operation_xyz
  'x, y, z'

loop_
  _atom_site_type_symbol
  _atom_site_label
  _atom_site_symmetry_multiplicity
  _atom_site_fract_x
  _atom_site_fract_y
  _atom_site_fract_z
  _atom_site_occupancy
  Cr  Cr1       1.0  0.50000  0.00000  0.50000  1.0000
  Cr  Cr2       1.0  0.25000  0.50000  0.75000  1.0000
  O   O1        1.0  0.51400  0.18400  0.33000  1.0000
  O   O2        1.0  0.14600  0.81600  0.33000  1.0000
  O   O3        1.0  0.07970  0.31600  0.39600  1.0000
  O   O4        1.0  0.67000  0.81600  0.48600  1.0000
  O   O5        1.0  0.07970  0.68400  0.76400  1.0000
  O   O6        1.0  0.67000  0.18400  0.85400  1.0000
  O   O7        1.0  0.23600  0.31600  0.92000  1.0000
  O   O8        1.0  0.60400  0.68400  0.92000  1.0000
  Sm  Sm1       1.0  0.00000  0.00000  0.00000  1.0000
  Sm  Sm2       1.0  0.75000  0.50000  0.25000  1.0000
