data_image0
_chemical_formula_structural       CuO8W2Y
_chemical_formula_sum              "Cu1 O8 W2 Y1"
_cell_length_a       5.92508
_cell_length_b       6.07183
_cell_length_c       5.00856
_cell_angle_alpha    113.46
_cell_angle_beta     92.2924
_cell_angle_gamma    110.567

_space_group_name_H-M_alt    "P 1"
_space_group_IT_number       1

loop_
  _space_group_symop_operation_xyz
  'x, y, z'

loop_
  _atom_site_type_symbol
  _atom_site_label
  _atom_site_symmetry_multiplicity
  _atom_site_fract_x
  _atom_site_fract_y
  _atom_site_fract_z
  _atom_site_occupancy
  Cu  Cu1       1.0  0.22200  0.10000  0.12700  1.0000
  O   O1        1.0  0.24300  0.39400  0.08090  1.0000
  O   O2        1.0  0.77800  0.36200  0.11000  1.0000
  O   O3        1.0  0.67400  0.83400  0.13300  1.0000
  O   O4        1.0  0.21100  0.81000  0.17500  1.0000
  O   O5        1.0  0.04880  0.40600  0.59000  1.0000
  O   O6        1.0  0.50600  0.34800  0.61700  1.0000
  O   O7        1.0  0.93700  0.85000  0.62600  1.0000
  O   O8        1.0  0.39500  0.79500  0.66500  1.0000
  W   W1        1.0  0.04800  0.62200  0.38200  1.0000
  W   W2        1.0  0.39800  0.57700  0.86900  1.0000
  Y   Y1        1.0  0.71800  0.09720  0.61900  1.0000
