data_image0
_chemical_formula_structural       Cl6I2N2V2
_chemical_formula_sum              "Cl6 I2 N2 V2"
_cell_length_a       8.34238
_cell_length_b       8.0826
_cell_length_c       6.02244
_cell_angle_alpha    115.972
_cell_angle_beta     94.3876
_cell_angle_gamma    112.419

_space_group_name_H-M_alt    "P 1"
_space_group_IT_number       1

loop_
  _space_group_symop_operation_xyz
  'x, y, z'

loop_
  _atom_site_type_symbol
  _atom_site_label
  _atom_site_symmetry_multiplicity
  _atom_site_fract_x
  _atom_site_fract_y
  _atom_site_fract_z
  _atom_site_occupancy
  Cl  Cl1       1.0  0.13800  0.72000  0.06760  1.0000
  Cl  Cl2       1.0  0.61300  0.18600  0.40800  1.0000
  Cl  Cl3       1.0  0.06820  0.33900  0.47700  1.0000
  Cl  Cl4       1.0  0.93200  0.66100  0.52300  1.0000
  Cl  Cl5       1.0  0.38700  0.81400  0.59200  1.0000
  Cl  Cl6       1.0  0.86200  0.28000  0.93200  1.0000
  I   I1        1.0  0.67900  0.81600  0.10800  1.0000
  I   I2        1.0  0.32100  0.18400  0.89200  1.0000
  N   N1        1.0  0.25400  0.39900  0.10500  1.0000
  N   N2        1.0  0.74600  0.60100  0.89500  1.0000
  V   V1        1.0  0.14800  0.52400  0.27300  1.0000
  V   V2        1.0  0.85200  0.47600  0.72700  1.0000
