data_image0
_chemical_formula_structural       Ag4Ce3Ge4
_chemical_formula_sum              "Ag4 Ce3 Ge4"
_cell_length_a       4.50906
_cell_length_b       7.24221
_cell_length_c       8.63583
_cell_angle_alpha    114.791
_cell_angle_beta     105.133
_cell_angle_gamma    90

_space_group_name_H-M_alt    "P 1"
_space_group_IT_number       1

loop_
  _space_group_symop_operation_xyz
  'x, y, z'

loop_
  _atom_site_type_symbol
  _atom_site_label
  _atom_site_symmetry_multiplicity
  _atom_site_fract_x
  _atom_site_fract_y
  _atom_site_fract_z
  _atom_site_occupancy
  Ag  Ag1       1.0  0.66700  0.47400  0.33400  1.0000
  Ag  Ag2       1.0  0.66700  0.86000  0.33400  1.0000
  Ag  Ag3       1.0  0.33300  0.14000  0.66600  1.0000
  Ag  Ag4       1.0  0.33300  0.52600  0.66600  1.0000
  Ce  Ce1       1.0  0.00000  0.50000  0.00000  1.0000
  Ce  Ce2       1.0  0.12900  0.12900  0.25800  1.0000
  Ce  Ce3       1.0  0.87100  0.87100  0.74200  1.0000
  Ge  Ge1       1.0  0.50000  0.18000  0.00000  1.0000
  Ge  Ge2       1.0  0.50000  0.82000  0.00000  1.0000
  Ge  Ge3       1.0  0.21700  0.71700  0.43400  1.0000
  Ge  Ge4       1.0  0.78300  0.28300  0.56600  1.0000
