data_image0
_chemical_formula_structural       Ge2O8Zr2
_chemical_formula_sum              "Ge2 O8 Zr2"
_cell_length_a       4.88579
_cell_length_b       4.88579
_cell_length_c       6.32267
_cell_angle_alpha    112.729
_cell_angle_beta     112.729
_cell_angle_gamma    90

_space_group_name_H-M_alt    "P 1"
_space_group_IT_number       1

loop_
  _space_group_symop_operation_xyz
  'x, y, z'

loop_
  _atom_site_type_symbol
  _atom_site_label
  _atom_site_symmetry_multiplicity
  _atom_site_fract_x
  _atom_site_fract_y
  _atom_site_fract_z
  _atom_site_occupancy
  Ge  Ge1       1.0  0.00000  0.00000  0.00000  1.0000
  Ge  Ge2       1.0  0.25000  0.75000  0.50000  1.0000
  O   O1        1.0  0.34900  0.25500  0.16500  1.0000
  O   O2        1.0  0.81600  0.91000  0.16500  1.0000
  O   O3        1.0  0.90100  0.49500  0.33500  1.0000
  O   O4        1.0  0.43400  0.84000  0.33500  1.0000
  O   O5        1.0  0.16000  0.09900  0.66500  1.0000
  O   O6        1.0  0.50500  0.56600  0.66500  1.0000
  O   O7        1.0  0.74500  0.18400  0.83500  1.0000
  O   O8        1.0  0.09030  0.65100  0.83500  1.0000
  Zr  Zr1       1.0  0.50000  0.50000  0.00000  1.0000
  Zr  Zr2       1.0  0.75000  0.25000  0.50000  1.0000
