data_image0
_chemical_formula_structural       Br8Ga2Pd
_chemical_formula_sum              "Br8 Ga2 Pd1"
_cell_length_a       7.49147
_cell_length_b       7.77603
_cell_length_c       7.77603
_cell_angle_alpha    66.1062
_cell_angle_beta     95.5874
_cell_angle_gamma    95.5874

_space_group_name_H-M_alt    "P 1"
_space_group_IT_number       1

loop_
  _space_group_symop_operation_xyz
  'x, y, z'

loop_
  _atom_site_type_symbol
  _atom_site_label
  _atom_site_symmetry_multiplicity
  _atom_site_fract_x
  _atom_site_fract_y
  _atom_site_fract_z
  _atom_site_occupancy
  Br  Br1       1.0  0.85000  0.68100  0.08930  1.0000
  Br  Br2       1.0  0.62500  0.17000  0.17000  1.0000
  Br  Br3       1.0  0.15000  0.91100  0.31900  1.0000
  Br  Br4       1.0  0.29600  0.38400  0.38400  1.0000
  Br  Br5       1.0  0.70400  0.61600  0.61600  1.0000
  Br  Br6       1.0  0.85000  0.08930  0.68100  1.0000
  Br  Br7       1.0  0.37500  0.83000  0.83000  1.0000
  Br  Br8       1.0  0.15000  0.31900  0.91100  1.0000
  Ga  Ga1       1.0  0.33400  0.21200  0.21200  1.0000
  Ga  Ga2       1.0  0.66600  0.78800  0.78800  1.0000
  Pd  Pd1       1.0  0.00000  0.00000  0.00000  1.0000
