data_image0
_chemical_formula_structural       Nd4O4Se3
_chemical_formula_sum              "Nd4 O4 Se3"
_cell_length_a       4.00757
_cell_length_b       6.76307
_cell_length_c       8.45719
_cell_angle_alpha    90
_cell_angle_beta     90
_cell_angle_gamma    72.7655

_space_group_name_H-M_alt    "P 1"
_space_group_IT_number       1

loop_
  _space_group_symop_operation_xyz
  'x, y, z'

loop_
  _atom_site_type_symbol
  _atom_site_label
  _atom_site_symmetry_multiplicity
  _atom_site_fract_x
  _atom_site_fract_y
  _atom_site_fract_z
  _atom_site_occupancy
  Nd  Nd1       1.0  0.00027  0.99900  0.00000  1.0000
  Nd  Nd2       1.0  0.31600  0.36800  0.23700  1.0000
  Nd  Nd3       1.0  0.98300  0.03450  0.50000  1.0000
  Nd  Nd4       1.0  0.31600  0.36800  0.76300  1.0000
  O   O1        1.0  0.41200  0.17500  0.00000  1.0000
  O   O2        1.0  0.91200  0.17500  0.24400  1.0000
  O   O3        1.0  0.38300  0.23400  0.50000  1.0000
  O   O4        1.0  0.91200  0.17500  0.75600  1.0000
  Se  Se1       1.0  0.68800  0.62400  0.00000  1.0000
  Se  Se2       1.0  0.64400  0.71300  0.35100  1.0000
  Se  Se3       1.0  0.64400  0.71300  0.64900  1.0000
