data_image0
_chemical_formula_structural       Ge4Ho4Rh4
_chemical_formula_sum              "Ge4 Ho4 Rh4"
_cell_length_a       6.90661
_cell_length_b       4.30541
_cell_length_c       7.56364
_cell_angle_alpha    90
_cell_angle_beta     90
_cell_angle_gamma    90

_space_group_name_H-M_alt    "P 1"
_space_group_IT_number       1

loop_
  _space_group_symop_operation_xyz
  'x, y, z'

loop_
  _atom_site_type_symbol
  _atom_site_label
  _atom_site_symmetry_multiplicity
  _atom_site_fract_x
  _atom_site_fract_y
  _atom_site_fract_z
  _atom_site_occupancy
  Ge  Ge1       1.0  0.71200  0.75000  0.10500  1.0000
  Ge  Ge2       1.0  0.21200  0.75000  0.39500  1.0000
  Ge  Ge3       1.0  0.78800  0.25000  0.60500  1.0000
  Ge  Ge4       1.0  0.28800  0.25000  0.89500  1.0000
  Ho  Ho1       1.0  0.00339  0.25000  0.19500  1.0000
  Ho  Ho2       1.0  0.50300  0.25000  0.30500  1.0000
  Ho  Ho3       1.0  0.49700  0.75000  0.69500  1.0000
  Ho  Ho4       1.0  0.99700  0.75000  0.80500  1.0000
  Rh  Rh1       1.0  0.34300  0.75000  0.06850  1.0000
  Rh  Rh2       1.0  0.84300  0.75000  0.43200  1.0000
  Rh  Rh3       1.0  0.15700  0.25000  0.56800  1.0000
  Rh  Rh4       1.0  0.65700  0.25000  0.93200  1.0000
