data_image0
_chemical_formula_structural       O8RbS2Tl
_chemical_formula_sum              "O8 Rb1 S2 Tl1"
_cell_length_a       4.86901
_cell_length_b       4.869
_cell_length_c       8.81074
_cell_angle_alpha    73.9599
_cell_angle_beta     106.04
_cell_angle_gamma    120

_space_group_name_H-M_alt    "P 1"
_space_group_IT_number       1

loop_
  _space_group_symop_operation_xyz
  'x, y, z'

loop_
  _atom_site_type_symbol
  _atom_site_label
  _atom_site_symmetry_multiplicity
  _atom_site_fract_x
  _atom_site_fract_y
  _atom_site_fract_z
  _atom_site_occupancy
  O   O1        1.0  0.69800  0.30200  0.09430  1.0000
  O   O2        1.0  0.06390  0.21800  0.32900  1.0000
  O   O3        1.0  0.78200  0.51600  0.32900  1.0000
  O   O4        1.0  0.48400  0.93600  0.32900  1.0000
  O   O5        1.0  0.21800  0.06390  0.67100  1.0000
  O   O6        1.0  0.93600  0.48400  0.67100  1.0000
  O   O7        1.0  0.51600  0.78200  0.67100  1.0000
  O   O8        1.0  0.30200  0.69800  0.90600  1.0000
  Rb  Rb1       1.0  0.00000  0.00000  0.00000  1.0000
  S   S1        1.0  0.75600  0.24400  0.26900  1.0000
  S   S2        1.0  0.24400  0.75600  0.73100  1.0000
  Tl  Tl1       1.0  0.50000  0.50000  0.50000  1.0000
