data_image0
_chemical_formula_structural       O8W4
_chemical_formula_sum              "O8 W4"
_cell_length_a       5.58094
_cell_length_b       4.92999
_cell_length_c       5.66048
_cell_angle_alpha    90
_cell_angle_beta     120.595
_cell_angle_gamma    90

_space_group_name_H-M_alt    "P 1"
_space_group_IT_number       1

loop_
  _space_group_symop_operation_xyz
  'x, y, z'

loop_
  _atom_site_type_symbol
  _atom_site_label
  _atom_site_symmetry_multiplicity
  _atom_site_fract_x
  _atom_site_fract_y
  _atom_site_fract_z
  _atom_site_occupancy
  O   O1        1.0  0.60900  0.20000  0.20200  1.0000
  O   O2        1.0  0.11300  0.22100  0.23500  1.0000
  O   O3        1.0  0.88700  0.72100  0.26500  1.0000
  O   O4        1.0  0.39100  0.70000  0.29800  1.0000
  O   O5        1.0  0.60900  0.30000  0.70200  1.0000
  O   O6        1.0  0.11300  0.27900  0.73500  1.0000
  O   O7        1.0  0.88700  0.77900  0.76500  1.0000
  O   O8        1.0  0.39100  0.80000  0.79800  1.0000
  W   W1        1.0  0.23100  0.99400  0.01450  1.0000
  W   W2        1.0  0.76900  0.49400  0.48600  1.0000
  W   W3        1.0  0.23100  0.50600  0.51400  1.0000
  W   W4        1.0  0.76900  0.00644  0.98600  1.0000
