data_image0
_chemical_formula_structural       Cl8N2V2
_chemical_formula_sum              "Cl8 N2 V2"
_cell_length_a       7.79948
_cell_length_b       7.23841
_cell_length_c       5.9458
_cell_angle_alpha    111.808
_cell_angle_beta     95.0803
_cell_angle_gamma    108.458

_space_group_name_H-M_alt    "P 1"
_space_group_IT_number       1

loop_
  _space_group_symop_operation_xyz
  'x, y, z'

loop_
  _atom_site_type_symbol
  _atom_site_label
  _atom_site_symmetry_multiplicity
  _atom_site_fract_x
  _atom_site_fract_y
  _atom_site_fract_z
  _atom_site_occupancy
  Cl  Cl1       1.0  0.15100  0.71500  0.04380  1.0000
  Cl  Cl2       1.0  0.66100  0.80300  0.09290  1.0000
  Cl  Cl3       1.0  0.60100  0.24000  0.45300  1.0000
  Cl  Cl4       1.0  0.04720  0.29700  0.47600  1.0000
  Cl  Cl5       1.0  0.95300  0.70300  0.52400  1.0000
  Cl  Cl6       1.0  0.39900  0.76000  0.54700  1.0000
  Cl  Cl7       1.0  0.33900  0.19700  0.90700  1.0000
  Cl  Cl8       1.0  0.84900  0.28500  0.95600  1.0000
  N   N1        1.0  0.25500  0.34900  0.09060  1.0000
  N   N2        1.0  0.74500  0.65100  0.90900  1.0000
  V   V1        1.0  0.15100  0.49800  0.26300  1.0000
  V   V2        1.0  0.84900  0.50200  0.73700  1.0000
