data_image0
_chemical_formula_structural       C2Cl5La4
_chemical_formula_sum              "C2 Cl5 La4"
_cell_length_a       9.86539
_cell_length_b       3.97194
_cell_length_c       7.98641
_cell_angle_alpha    90
_cell_angle_beta     113.877
_cell_angle_gamma    101.613

_space_group_name_H-M_alt    "P 1"
_space_group_IT_number       1

loop_
  _space_group_symop_operation_xyz
  'x, y, z'

loop_
  _atom_site_type_symbol
  _atom_site_label
  _atom_site_symmetry_multiplicity
  _atom_site_fract_x
  _atom_site_fract_y
  _atom_site_fract_z
  _atom_site_occupancy
  C   C1        1.0  0.91900  0.46000  0.46000  1.0000
  C   C2        1.0  0.08090  0.54000  0.54000  1.0000
  Cl  Cl1       1.0  0.00000  0.50000  0.00000  1.0000
  Cl  Cl2       1.0  0.66500  0.83300  0.06180  1.0000
  Cl  Cl3       1.0  0.33500  0.16700  0.39600  1.0000
  Cl  Cl4       1.0  0.66500  0.83300  0.60400  1.0000
  Cl  Cl5       1.0  0.33500  0.16700  0.93800  1.0000
  La  La1       1.0  0.00000  0.00000  0.28700  1.0000
  La  La2       1.0  0.65800  0.32900  0.32900  1.0000
  La  La3       1.0  0.34200  0.67100  0.67100  1.0000
  La  La4       1.0  0.00000  0.00000  0.71300  1.0000
