data_image0
_chemical_formula_structural       Al8Ho2Ni2
_chemical_formula_sum              "Al8 Ho2 Ni2"
_cell_length_a       4.05687
_cell_length_b       6.59214
_cell_length_c       7.9517
_cell_angle_alpha    90
_cell_angle_beta     75.2208
_cell_angle_gamma    90

_space_group_name_H-M_alt    "P 1"
_space_group_IT_number       1

loop_
  _space_group_symop_operation_xyz
  'x, y, z'

loop_
  _atom_site_type_symbol
  _atom_site_label
  _atom_site_symmetry_multiplicity
  _atom_site_fract_x
  _atom_site_fract_y
  _atom_site_fract_z
  _atom_site_occupancy
  Al  Al1       1.0  0.50000  0.00000  0.00000  1.0000
  Al  Al2       1.0  0.50000  0.50000  0.00000  1.0000
  Al  Al3       1.0  0.92500  0.75000  0.15100  1.0000
  Al  Al4       1.0  0.31200  0.55200  0.37600  1.0000
  Al  Al5       1.0  0.31200  0.94800  0.37600  1.0000
  Al  Al6       1.0  0.68800  0.05220  0.62400  1.0000
  Al  Al7       1.0  0.68800  0.44800  0.62400  1.0000
  Al  Al8       1.0  0.07540  0.25000  0.84900  1.0000
  Ho  Ho1       1.0  0.88200  0.25000  0.23500  1.0000
  Ho  Ho2       1.0  0.11800  0.75000  0.76500  1.0000
  Ni  Ni1       1.0  0.77400  0.75000  0.45200  1.0000
  Ni  Ni2       1.0  0.22600  0.25000  0.54800  1.0000
