data_image0
_chemical_formula_structural       Ge2Se6Tl4
_chemical_formula_sum              "Ge2 Se6 Tl4"
_cell_length_a       7.04599
_cell_length_b       7.1344
_cell_length_c       8.93962
_cell_angle_alpha    89.9616
_cell_angle_beta     111.548
_cell_angle_gamma    113.703

_space_group_name_H-M_alt    "P 1"
_space_group_IT_number       1

loop_
  _space_group_symop_operation_xyz
  'x, y, z'

loop_
  _atom_site_type_symbol
  _atom_site_label
  _atom_site_symmetry_multiplicity
  _atom_site_fract_x
  _atom_site_fract_y
  _atom_site_fract_z
  _atom_site_occupancy
  Ge  Ge1       1.0  0.43000  0.54700  0.31400  1.0000
  Ge  Ge2       1.0  0.57000  0.45300  0.68600  1.0000
  Se  Se1       1.0  0.23300  0.28300  0.08520  1.0000
  Se  Se2       1.0  0.51700  0.89100  0.26400  1.0000
  Se  Se3       1.0  0.22600  0.46700  0.49300  1.0000
  Se  Se4       1.0  0.77400  0.53300  0.50700  1.0000
  Se  Se5       1.0  0.48300  0.10900  0.73600  1.0000
  Se  Se6       1.0  0.76700  0.71700  0.91500  1.0000
  Tl  Tl1       1.0  0.74200  0.32100  0.10200  1.0000
  Tl  Tl2       1.0  0.12200  0.94500  0.33300  1.0000
  Tl  Tl3       1.0  0.87800  0.05550  0.66700  1.0000
  Tl  Tl4       1.0  0.25800  0.67900  0.89800  1.0000
