data_image0
_chemical_formula_structural       Ag4O4Rb4
_chemical_formula_sum              "Ag4 O4 Rb4"
_cell_length_a       5.74161
_cell_length_b       7.68746
_cell_length_c       7.68746
_cell_angle_alpha    98.0165
_cell_angle_beta     68.0721
_cell_angle_gamma    111.928

_space_group_name_H-M_alt    "P 1"
_space_group_IT_number       1

loop_
  _space_group_symop_operation_xyz
  'x, y, z'

loop_
  _atom_site_type_symbol
  _atom_site_label
  _atom_site_symmetry_multiplicity
  _atom_site_fract_x
  _atom_site_fract_y
  _atom_site_fract_z
  _atom_site_occupancy
  Ag  Ag1       1.0  0.14600  0.29100  0.00000  1.0000
  Ag  Ag2       1.0  0.85400  0.70900  0.00000  1.0000
  Ag  Ag3       1.0  0.85400  0.00000  0.29100  1.0000
  Ag  Ag4       1.0  0.14600  0.00000  0.70900  1.0000
  O   O1        1.0  0.00000  0.29100  0.29100  1.0000
  O   O2        1.0  0.70900  0.70900  0.29100  1.0000
  O   O3        1.0  0.29100  0.29100  0.70900  1.0000
  O   O4        1.0  1.00000  0.70900  0.70900  1.0000
  Rb  Rb1       1.0  0.18600  0.68600  0.31400  1.0000
  Rb  Rb2       1.0  0.50000  0.31400  0.31400  1.0000
  Rb  Rb3       1.0  0.81400  0.31400  0.68600  1.0000
  Rb  Rb4       1.0  0.50000  0.68600  0.68600  1.0000
