data_image0
_chemical_formula_structural       Cr2O8W2
_chemical_formula_sum              "Cr2 O8 W2"
_cell_length_a       4.66793
_cell_length_b       5.50782
_cell_length_c       5.50782
_cell_angle_alpha    64.3623
_cell_angle_beta     91.6153
_cell_angle_gamma    91.6153

_space_group_name_H-M_alt    "P 1"
_space_group_IT_number       1

loop_
  _space_group_symop_operation_xyz
  'x, y, z'

loop_
  _atom_site_type_symbol
  _atom_site_label
  _atom_site_symmetry_multiplicity
  _atom_site_fract_x
  _atom_site_fract_y
  _atom_site_fract_z
  _atom_site_occupancy
  Cr  Cr1       1.0  0.49000  0.26000  0.26000  1.0000
  Cr  Cr2       1.0  0.51000  0.74000  0.74000  1.0000
  O   O1        1.0  0.70600  0.60800  0.09710  1.0000
  O   O2        1.0  0.78400  0.11100  0.11100  1.0000
  O   O3        1.0  0.29400  0.90300  0.39200  1.0000
  O   O4        1.0  0.19200  0.40800  0.40800  1.0000
  O   O5        1.0  0.80800  0.59200  0.59200  1.0000
  O   O6        1.0  0.70600  0.09710  0.60800  1.0000
  O   O7        1.0  0.21600  0.88900  0.88900  1.0000
  O   O8        1.0  0.29400  0.39200  0.90300  1.0000
  W   W1        1.0  0.00000  0.77100  0.22900  1.0000
  W   W2        1.0  0.00000  0.22900  0.77100  1.0000
