data_image0
_chemical_formula_structural       Dy7Ir2Te2
_chemical_formula_sum              "Dy7 Ir2 Te2"
_cell_length_a       3.94296
_cell_length_b       9.40286
_cell_length_c       9.40286
_cell_angle_alpha    114.032
_cell_angle_beta     102.103
_cell_angle_gamma    102.103

_space_group_name_H-M_alt    "P 1"
_space_group_IT_number       1

loop_
  _space_group_symop_operation_xyz
  'x, y, z'

loop_
  _atom_site_type_symbol
  _atom_site_label
  _atom_site_symmetry_multiplicity
  _atom_site_fract_x
  _atom_site_fract_y
  _atom_site_fract_z
  _atom_site_occupancy
  Dy  Dy1       1.0  0.89400  0.52500  0.26300  1.0000
  Dy  Dy2       1.0  0.10300  0.91900  0.28600  1.0000
  Dy  Dy3       1.0  0.89400  0.26300  0.52500  1.0000
  Dy  Dy4       1.0  0.74200  0.89000  0.59500  1.0000
  Dy  Dy5       1.0  0.74200  0.59500  0.89000  1.0000
  Dy  Dy6       1.0  0.10300  0.28600  0.91900  1.0000
  Dy  Dy7       1.0  0.47600  0.97600  0.97600  1.0000
  Ir  Ir1       1.0  0.40500  0.66600  0.14400  1.0000
  Ir  Ir2       1.0  0.40500  0.14400  0.66600  1.0000
  Te  Te1       1.0  0.24000  0.24000  0.24000  1.0000
  Te  Te2       1.0  0.14100  0.64100  0.64100  1.0000
