data_image0
_chemical_formula_structural       As6Si6
_chemical_formula_sum              "As6 Si6"
_cell_length_a       3.70097
_cell_length_b       8.63802
_cell_length_c       9.91074
_cell_angle_alpha    108.684
_cell_angle_beta     90
_cell_angle_gamma    102.37

_space_group_name_H-M_alt    "P 1"
_space_group_IT_number       1

loop_
  _space_group_symop_operation_xyz
  'x, y, z'

loop_
  _atom_site_type_symbol
  _atom_site_label
  _atom_site_symmetry_multiplicity
  _atom_site_fract_x
  _atom_site_fract_y
  _atom_site_fract_z
  _atom_site_occupancy
  As  As1       1.0  0.66900  0.33900  0.16800  1.0000
  As  As2       1.0  0.95900  0.91800  0.18100  1.0000
  As  As3       1.0  0.35300  0.70500  0.45000  1.0000
  As  As4       1.0  0.64700  0.29500  0.55000  1.0000
  As  As5       1.0  0.04080  0.08160  0.81900  1.0000
  As  As6       1.0  0.33100  0.66100  0.83200  1.0000
  Si  Si1       1.0  0.36600  0.73200  0.08720  1.0000
  Si  Si2       1.0  0.26500  0.53000  0.20400  1.0000
  Si  Si3       1.0  0.93400  0.86800  0.40900  1.0000
  Si  Si4       1.0  0.06590  0.13200  0.59100  1.0000
  Si  Si5       1.0  0.73500  0.47000  0.79600  1.0000
  Si  Si6       1.0  0.63400  0.26800  0.91300  1.0000
