data_image0
_chemical_formula_structural       O8Rb3Ta
_chemical_formula_sum              "O8 Rb3 Ta1"
_cell_length_a       6.34758
_cell_length_b       6.34758
_cell_length_c       6.34758
_cell_angle_alpha    113.123
_cell_angle_beta     102.391
_cell_angle_gamma    113.123

_space_group_name_H-M_alt    "P 1"
_space_group_IT_number       1

loop_
  _space_group_symop_operation_xyz
  'x, y, z'

loop_
  _atom_site_type_symbol
  _atom_site_label
  _atom_site_symmetry_multiplicity
  _atom_site_fract_x
  _atom_site_fract_y
  _atom_site_fract_z
  _atom_site_occupancy
  O   O1        1.0  0.04980  0.72500  0.04980  1.0000
  O   O2        1.0  0.77200  0.00000  0.18900  1.0000
  O   O3        1.0  0.22800  0.41700  0.22800  1.0000
  O   O4        1.0  0.32400  0.27500  0.32400  1.0000
  O   O5        1.0  0.95000  0.00000  0.67600  1.0000
  O   O6        1.0  0.18900  0.00000  0.77200  1.0000
  O   O7        1.0  0.81100  0.58300  0.81100  1.0000
  O   O8        1.0  0.67600  0.00000  0.95000  1.0000
  Rb  Rb1       1.0  0.75000  0.50000  0.25000  1.0000
  Rb  Rb2       1.0  0.50000  0.00000  0.50000  1.0000
  Rb  Rb3       1.0  0.25000  0.50000  0.75000  1.0000
  Ta  Ta1       1.0  0.00000  0.00000  0.00000  1.0000
