data_image0
_chemical_formula_structural       O8P2Sb2
_chemical_formula_sum              "O8 P2 Sb2"
_cell_length_a       5.00044
_cell_length_b       6.78461
_cell_length_c       4.67296
_cell_angle_alpha    90
_cell_angle_beta     95.0074
_cell_angle_gamma    90

_space_group_name_H-M_alt    "P 1"
_space_group_IT_number       1

loop_
  _space_group_symop_operation_xyz
  'x, y, z'

loop_
  _atom_site_type_symbol
  _atom_site_label
  _atom_site_symmetry_multiplicity
  _atom_site_fract_x
  _atom_site_fract_y
  _atom_site_fract_z
  _atom_site_occupancy
  O   O1        1.0  0.22000  0.57100  0.17500  1.0000
  O   O2        1.0  0.22000  0.92900  0.17500  1.0000
  O   O3        1.0  0.67800  0.75000  0.18300  1.0000
  O   O4        1.0  0.56100  0.25000  0.38400  1.0000
  O   O5        1.0  0.43900  0.75000  0.61600  1.0000
  O   O6        1.0  0.32200  0.25000  0.81700  1.0000
  O   O7        1.0  0.78000  0.07090  0.82500  1.0000
  O   O8        1.0  0.78000  0.42900  0.82500  1.0000
  P   P1        1.0  0.38700  0.75000  0.28200  1.0000
  P   P2        1.0  0.61300  0.25000  0.71800  1.0000
  Sb  Sb1       1.0  0.16200  0.25000  0.20200  1.0000
  Sb  Sb2       1.0  0.83800  0.75000  0.79800  1.0000
