data_image0
_chemical_formula_structural       O7Ru2Sr3
_chemical_formula_sum              "O7 Ru2 Sr3"
_cell_length_a       3.94156
_cell_length_b       3.94156
_cell_length_c       10.5462
_cell_angle_alpha    100.77
_cell_angle_beta     100.77
_cell_angle_gamma    90

_space_group_name_H-M_alt    "P 1"
_space_group_IT_number       1

loop_
  _space_group_symop_operation_xyz
  'x, y, z'

loop_
  _atom_site_type_symbol
  _atom_site_label
  _atom_site_symmetry_multiplicity
  _atom_site_fract_x
  _atom_site_fract_y
  _atom_site_fract_z
  _atom_site_occupancy
  O   O1        1.0  0.00000  0.00000  0.00000  1.0000
  O   O2        1.0  0.59700  0.09660  0.19300  1.0000
  O   O3        1.0  0.09660  0.59700  0.19300  1.0000
  O   O4        1.0  0.19700  0.19700  0.39400  1.0000
  O   O5        1.0  0.80300  0.80300  0.60600  1.0000
  O   O6        1.0  0.90300  0.40300  0.80700  1.0000
  O   O7        1.0  0.40300  0.90300  0.80700  1.0000
  Ru  Ru1       1.0  0.09840  0.09840  0.19700  1.0000
  Ru  Ru2       1.0  0.90200  0.90200  0.80300  1.0000
  Sr  Sr1       1.0  0.50000  0.50000  0.00000  1.0000
  Sr  Sr2       1.0  0.68400  0.68400  0.36800  1.0000
  Sr  Sr3       1.0  0.31600  0.31600  0.63200  1.0000
