data_image0
_chemical_formula_structural       As8Si4
_chemical_formula_sum              "As8 Si4"
_cell_length_a       6.10584
_cell_length_b       6.10584
_cell_length_c       6.10584
_cell_angle_alpha    90
_cell_angle_beta     90
_cell_angle_gamma    90

_space_group_name_H-M_alt    "P 1"
_space_group_IT_number       1

loop_
  _space_group_symop_operation_xyz
  'x, y, z'

loop_
  _atom_site_type_symbol
  _atom_site_label
  _atom_site_symmetry_multiplicity
  _atom_site_fract_x
  _atom_site_fract_y
  _atom_site_fract_z
  _atom_site_occupancy
  As  As1       1.0  0.88400  0.38400  0.11600  1.0000
  As  As2       1.0  0.61600  0.88400  0.11600  1.0000
  As  As3       1.0  0.38400  0.38400  0.38400  1.0000
  As  As4       1.0  0.11600  0.88400  0.38400  1.0000
  As  As5       1.0  0.88400  0.11600  0.61600  1.0000
  As  As6       1.0  0.61600  0.61600  0.61600  1.0000
  As  As7       1.0  0.38400  0.11600  0.88400  1.0000
  As  As8       1.0  0.11600  0.61600  0.88400  1.0000
  Si  Si1       1.0  0.00000  0.00000  0.00000  1.0000
  Si  Si2       1.0  0.50000  0.50000  0.00000  1.0000
  Si  Si3       1.0  0.50000  0.00000  0.50000  1.0000
  Si  Si4       1.0  0.00000  0.50000  0.50000  1.0000
