data_image0
_chemical_formula_structural       Cl2O6Sm2Ti2
_chemical_formula_sum              "Cl2 O6 Sm2 Ti2"
_cell_length_a       3.95132
_cell_length_b       5.26883
_cell_length_c       9.99912
_cell_angle_alpha    96.3772
_cell_angle_beta     101.396
_cell_angle_gamma    112.023

_space_group_name_H-M_alt    "P 1"
_space_group_IT_number       1

loop_
  _space_group_symop_operation_xyz
  'x, y, z'

loop_
  _atom_site_type_symbol
  _atom_site_label
  _atom_site_symmetry_multiplicity
  _atom_site_fract_x
  _atom_site_fract_y
  _atom_site_fract_z
  _atom_site_occupancy
  Cl  Cl1       1.0  0.20900  0.32100  0.09660  1.0000
  Cl  Cl2       1.0  0.79100  0.67900  0.90300  1.0000
  O   O1        1.0  0.60900  0.96300  0.25400  1.0000
  O   O2        1.0  0.95600  0.53400  0.37700  1.0000
  O   O3        1.0  0.27100  0.10400  0.43800  1.0000
  O   O4        1.0  0.72900  0.89600  0.56200  1.0000
  O   O5        1.0  0.04430  0.46600  0.62300  1.0000
  O   O6        1.0  0.39100  0.03680  0.74600  1.0000
  Sm  Sm1       1.0  0.98400  0.76600  0.20200  1.0000
  Sm  Sm2       1.0  0.01600  0.23400  0.79800  1.0000
  Ti  Ti1       1.0  0.81300  0.19200  0.43400  1.0000
  Ti  Ti2       1.0  0.18700  0.80800  0.56600  1.0000
