data_image0
_chemical_formula_structural       P4Re8
_chemical_formula_sum              "P4 Re8"
_cell_length_a       5.56087
_cell_length_b       2.95016
_cell_length_c       10.1002
_cell_angle_alpha    90
_cell_angle_beta     90
_cell_angle_gamma    90

_space_group_name_H-M_alt    "P 1"
_space_group_IT_number       1

loop_
  _space_group_symop_operation_xyz
  'x, y, z'

loop_
  _atom_site_type_symbol
  _atom_site_label
  _atom_site_symmetry_multiplicity
  _atom_site_fract_x
  _atom_site_fract_y
  _atom_site_fract_z
  _atom_site_occupancy
  P   P1        1.0  0.40300  0.25000  0.10200  1.0000
  P   P2        1.0  0.90300  0.25000  0.39800  1.0000
  P   P3        1.0  0.09650  0.75000  0.60200  1.0000
  P   P4        1.0  0.59700  0.75000  0.89800  1.0000
  Re  Re1       1.0  0.82600  0.25000  0.06460  1.0000
  Re  Re2       1.0  0.14500  0.75000  0.21300  1.0000
  Re  Re3       1.0  0.64500  0.75000  0.28700  1.0000
  Re  Re4       1.0  0.32600  0.25000  0.43500  1.0000
  Re  Re5       1.0  0.67400  0.75000  0.56500  1.0000
  Re  Re6       1.0  0.35500  0.25000  0.71300  1.0000
  Re  Re7       1.0  0.85500  0.25000  0.78700  1.0000
  Re  Re8       1.0  0.17400  0.75000  0.93500  1.0000
