data_image0
_chemical_formula_structural       Cu4S6Si2
_chemical_formula_sum              "Cu4 S6 Si2"
_cell_length_a       6.07117
_cell_length_b       6.33461
_cell_length_c       6.33461
_cell_angle_alpha    60.4618
_cell_angle_beta     90
_cell_angle_gamma    90

_space_group_name_H-M_alt    "P 1"
_space_group_IT_number       1

loop_
  _space_group_symop_operation_xyz
  'x, y, z'

loop_
  _atom_site_type_symbol
  _atom_site_label
  _atom_site_symmetry_multiplicity
  _atom_site_fract_x
  _atom_site_fract_y
  _atom_site_fract_z
  _atom_site_occupancy
  Cu  Cu1       1.0  0.02030  0.32200  0.00148  1.0000
  Cu  Cu2       1.0  0.52000  0.00148  0.32200  1.0000
  Cu  Cu3       1.0  0.02030  0.99900  0.67800  1.0000
  Cu  Cu4       1.0  0.52000  0.67800  0.99900  1.0000
  S   S1        1.0  0.89400  0.65900  0.01680  1.0000
  S   S2        1.0  0.89400  0.98300  0.34100  1.0000
  S   S3        1.0  0.36100  0.65700  0.34300  1.0000
  S   S4        1.0  0.86100  0.34300  0.65700  1.0000
  S   S5        1.0  0.39400  0.01680  0.65900  1.0000
  S   S6        1.0  0.39400  0.34100  0.98300  1.0000
  Si  Si1       1.0  0.98900  0.66700  0.33300  1.0000
  Si  Si2       1.0  0.48900  0.33300  0.66700  1.0000
