data_image0
_chemical_formula_structural       GeO8Zr3
_chemical_formula_sum              "Ge1 O8 Zr3"
_cell_length_a       5.0292
_cell_length_b       5.0292
_cell_length_c       6.33965
_cell_angle_alpha    113.369
_cell_angle_beta     113.369
_cell_angle_gamma    90

_space_group_name_H-M_alt    "P 1"
_space_group_IT_number       1

loop_
  _space_group_symop_operation_xyz
  'x, y, z'

loop_
  _atom_site_type_symbol
  _atom_site_label
  _atom_site_symmetry_multiplicity
  _atom_site_fract_x
  _atom_site_fract_y
  _atom_site_fract_z
  _atom_site_occupancy
  Ge  Ge1       1.0  0.00000  0.00000  0.00000  1.0000
  O   O1        1.0  0.30400  0.30400  0.18000  1.0000
  O   O2        1.0  0.87700  0.87700  0.18000  1.0000
  O   O3        1.0  0.85500  0.46100  0.31600  1.0000
  O   O4        1.0  0.46100  0.85500  0.31600  1.0000
  O   O5        1.0  0.14500  0.14500  0.68400  1.0000
  O   O6        1.0  0.53900  0.53900  0.68400  1.0000
  O   O7        1.0  0.69600  0.12300  0.82000  1.0000
  O   O8        1.0  0.12300  0.69600  0.82000  1.0000
  Zr  Zr1       1.0  0.50000  0.50000  0.00000  1.0000
  Zr  Zr2       1.0  0.75000  0.25000  0.50000  1.0000
  Zr  Zr3       1.0  0.25000  0.75000  0.50000  1.0000
