data_image0
_chemical_formula_structural       Ge2S6Tl4
_chemical_formula_sum              "Ge2 S6 Tl4"
_cell_length_a       6.82609
_cell_length_b       6.91619
_cell_length_c       8.56513
_cell_angle_alpha    89.589
_cell_angle_beta     111.738
_cell_angle_gamma    113.192

_space_group_name_H-M_alt    "P 1"
_space_group_IT_number       1

loop_
  _space_group_symop_operation_xyz
  'x, y, z'

loop_
  _atom_site_type_symbol
  _atom_site_label
  _atom_site_symmetry_multiplicity
  _atom_site_fract_x
  _atom_site_fract_y
  _atom_site_fract_z
  _atom_site_occupancy
  Ge  Ge1       1.0  0.43000  0.54800  0.31600  1.0000
  Ge  Ge2       1.0  0.57000  0.45200  0.68400  1.0000
  S   S1        1.0  0.24400  0.29800  0.09140  1.0000
  S   S2        1.0  0.51200  0.87800  0.26700  1.0000
  S   S3        1.0  0.23800  0.47000  0.49500  1.0000
  S   S4        1.0  0.76200  0.53000  0.50500  1.0000
  S   S5        1.0  0.48800  0.12200  0.73300  1.0000
  S   S6        1.0  0.75600  0.70200  0.90900  1.0000
  Tl  Tl1       1.0  0.73600  0.31300  0.10900  1.0000
  Tl  Tl2       1.0  0.12300  0.94500  0.32800  1.0000
  Tl  Tl3       1.0  0.87700  0.05510  0.67200  1.0000
  Tl  Tl4       1.0  0.26400  0.68700  0.89100  1.0000
