data_image0
_chemical_formula_structural       Al6Os2U4
_chemical_formula_sum              "Al6 Os2 U4"
_cell_length_a       5.33438
_cell_length_b       5.33461
_cell_length_c       8.86807
_cell_angle_alpha    90
_cell_angle_beta     90
_cell_angle_gamma    119.999

_space_group_name_H-M_alt    "P 1"
_space_group_IT_number       1

loop_
  _space_group_symop_operation_xyz
  'x, y, z'

loop_
  _atom_site_type_symbol
  _atom_site_label
  _atom_site_symmetry_multiplicity
  _atom_site_fract_x
  _atom_site_fract_y
  _atom_site_fract_z
  _atom_site_occupancy
  Al  Al1       1.0  0.33000  0.16500  0.25000  1.0000
  Al  Al2       1.0  0.83500  0.16500  0.25000  1.0000
  Al  Al3       1.0  0.83500  0.67000  0.25000  1.0000
  Al  Al4       1.0  0.16500  0.33000  0.75000  1.0000
  Al  Al5       1.0  0.16500  0.83500  0.75000  1.0000
  Al  Al6       1.0  0.67000  0.83500  0.75000  1.0000
  Os  Os1       1.0  0.00000  0.00000  0.00000  1.0000
  Os  Os2       1.0  0.00000  0.00000  0.50000  1.0000
  U   U1        1.0  0.33300  0.66700  0.05200  1.0000
  U   U2        1.0  0.33300  0.66700  0.44800  1.0000
  U   U3        1.0  0.66700  0.33300  0.55200  1.0000
  U   U4        1.0  0.66700  0.33300  0.94800  1.0000
