data_image0
_chemical_formula_structural       Ge32Li28Rb4
_chemical_formula_sum              "Ge32 Li28 Rb4"
_cell_length_a       9.69971
_cell_length_b       9.69956
_cell_length_c       16.3622
_cell_angle_alpha    90
_cell_angle_beta     90
_cell_angle_gamma    120.001

_space_group_name_H-M_alt    "P 1"
_space_group_IT_number       1

loop_
  _space_group_symop_operation_xyz
  'x, y, z'

loop_
  _atom_site_type_symbol
  _atom_site_label
  _atom_site_symmetry_multiplicity
  _atom_site_fract_x
  _atom_site_fract_y
  _atom_site_fract_z
  _atom_site_occupancy
  Ge  Ge1       1.0  0.42200  0.84400  0.00772  1.0000
  Ge  Ge2       1.0  0.15600  0.57800  0.00772  1.0000
  Ge  Ge3       1.0  0.42200  0.57800  0.00772  1.0000
  Ge  Ge4       1.0  0.26700  0.00320  0.23400  1.0000
  Ge  Ge5       1.0  0.73700  0.00320  0.23400  1.0000
  Ge  Ge6       1.0  0.26700  0.26300  0.23400  1.0000
  Ge  Ge7       1.0  0.99700  0.26300  0.23400  1.0000
  Ge  Ge8       1.0  0.73700  0.73300  0.23400  1.0000
  Ge  Ge9       1.0  0.99700  0.73300  0.23400  1.0000
  Ge  Ge10      1.0  0.17400  0.82600  0.36800  1.0000
  Ge  Ge11      1.0  0.65100  0.82600  0.36800  1.0000
  Ge  Ge12      1.0  0.17400  0.34900  0.36800  1.0000
  Ge  Ge13      1.0  0.66700  0.33300  0.37600  1.0000
  Ge  Ge14      1.0  0.09230  0.90800  0.49800  1.0000
  Ge  Ge15      1.0  0.81500  0.90800  0.49800  1.0000
  Ge  Ge16      1.0  0.09230  0.18500  0.49800  1.0000
  Ge  Ge17      1.0  0.57800  0.15600  0.50800  1.0000
  Ge  Ge18      1.0  0.57800  0.42200  0.50800  1.0000
  Ge  Ge19      1.0  0.84400  0.42200  0.50800  1.0000
  Ge  Ge20      1.0  0.26300  0.99700  0.73400  1.0000
  Ge  Ge21      1.0  0.73300  0.99700  0.73400  1.0000
  Ge  Ge22      1.0  0.00318  0.73700  0.73400  1.0000
  Ge  Ge23      1.0  0.73300  0.73700  0.73400  1.0000
  Ge  Ge24      1.0  0.00319  0.26700  0.73400  1.0000
  Ge  Ge25      1.0  0.26300  0.26700  0.73400  1.0000
  Ge  Ge26      1.0  0.34900  0.17400  0.86800  1.0000
  Ge  Ge27      1.0  0.82600  0.17400  0.86800  1.0000
  Ge  Ge28      1.0  0.82600  0.65100  0.86800  1.0000
  Ge  Ge29      1.0  0.33300  0.66700  0.87600  1.0000
  Ge  Ge30      1.0  0.18500  0.09230  0.99800  1.0000
  Ge  Ge31      1.0  0.90800  0.09230  0.99800  1.0000
  Ge  Ge32      1.0  0.90800  0.81500  0.99800  1.0000
  Li  Li1       1.0  0.16100  0.32300  0.08440  1.0000
  Li  Li2       1.0  0.16100  0.83900  0.08440  1.0000
  Li  Li3       1.0  0.67700  0.83900  0.08440  1.0000
  Li  Li4       1.0  0.00000  0.00000  0.15200  1.0000
  Li  Li5       1.0  0.52200  0.47800  0.31000  1.0000
  Li  Li6       1.0  0.95600  0.47800  0.31000  1.0000
  Li  Li7       1.0  0.52200  0.04350  0.31000  1.0000
  Li  Li8       1.0  0.00000  0.00000  0.33500  1.0000
  Li  Li9       1.0  0.83400  0.66800  0.40000  1.0000
  Li  Li10      1.0  0.33200  0.16600  0.40000  1.0000
  Li  Li11      1.0  0.83400  0.16600  0.40000  1.0000
  Li  Li12      1.0  0.12100  0.56100  0.44500  1.0000
  Li  Li13      1.0  0.43900  0.56100  0.44500  1.0000
  Li  Li14      1.0  0.43900  0.87900  0.44500  1.0000
  Li  Li15      1.0  0.32300  0.16100  0.58400  1.0000
  Li  Li16      1.0  0.83900  0.16100  0.58400  1.0000
  Li  Li17      1.0  0.83900  0.67700  0.58400  1.0000
  Li  Li18      1.0  0.00000  0.00000  0.65200  1.0000
  Li  Li19      1.0  0.04350  0.52200  0.81000  1.0000
  Li  Li20      1.0  0.47800  0.52200  0.81000  1.0000
  Li  Li21      1.0  0.47800  0.95600  0.81000  1.0000
  Li  Li22      1.0  0.00000  0.00000  0.83500  1.0000
  Li  Li23      1.0  0.16600  0.33200  0.90000  1.0000
  Li  Li24      1.0  0.16600  0.83400  0.90000  1.0000
  Li  Li25      1.0  0.66800  0.83400  0.90000  1.0000
  Li  Li26      1.0  0.56100  0.43900  0.94500  1.0000
  Li  Li27      1.0  0.87900  0.43900  0.94500  1.0000
  Li  Li28      1.0  0.56100  0.12100  0.94500  1.0000
  Rb  Rb1       1.0  0.66700  0.33300  0.15000  1.0000
  Rb  Rb2       1.0  0.33300  0.66700  0.21600  1.0000
  Rb  Rb3       1.0  0.33300  0.66700  0.65000  1.0000
  Rb  Rb4       1.0  0.66700  0.33300  0.71600  1.0000
