data_image0
_chemical_formula_structural       Ir2Th2
_chemical_formula_sum              "Ir2 Th2"
_cell_length_a       3.91574
_cell_length_b       4.24093
_cell_length_c       6.02983
_cell_angle_alpha    90
_cell_angle_beta     71.0528
_cell_angle_gamma    90

_space_group_name_H-M_alt    "P 1"
_space_group_IT_number       1

loop_
  _space_group_symop_operation_xyz
  'x, y, z'

loop_
  _atom_site_type_symbol
  _atom_site_label
  _atom_site_symmetry_multiplicity
  _atom_site_fract_x
  _atom_site_fract_y
  _atom_site_fract_z
  _atom_site_occupancy
  Ir  Ir1       1.0  0.40200  0.75000  0.19600  1.0000
  Ir  Ir2       1.0  0.59800  0.25000  0.80400  1.0000
  Th  Th1       1.0  0.86300  0.25000  0.27300  1.0000
  Th  Th2       1.0  0.13700  0.75000  0.72700  1.0000
