data_image0
_chemical_formula_structural       Mg4Rh2
_chemical_formula_sum              "Mg4 Rh2"
_cell_length_a       3.01861
_cell_length_b       3.01861
_cell_length_c       13.4698
_cell_angle_alpha    90
_cell_angle_beta     90
_cell_angle_gamma    120

_space_group_name_H-M_alt    "P 1"
_space_group_IT_number       1

loop_
  _space_group_symop_operation_xyz
  'x, y, z'

loop_
  _atom_site_type_symbol
  _atom_site_label
  _atom_site_symmetry_multiplicity
  _atom_site_fract_x
  _atom_site_fract_y
  _atom_site_fract_z
  _atom_site_occupancy
  Mg  Mg1       1.0  0.00000  0.00000  0.01700  1.0000
  Mg  Mg2       1.0  0.00000  0.00000  0.31600  1.0000
  Mg  Mg3       1.0  0.66700  0.33300  0.51700  1.0000
  Mg  Mg4       1.0  0.66700  0.33300  0.81600  1.0000
  Rh  Rh1       1.0  0.66700  0.33300  0.16700  1.0000
  Rh  Rh2       1.0  0.00000  0.00000  0.66700  1.0000
