data_image0
_chemical_formula_structural       Eu8Ge12Li4
_chemical_formula_sum              "Eu8 Ge12 Li4"
_cell_length_a       10.8914
_cell_length_b       11.5706
_cell_length_c       4.47102
_cell_angle_alpha    90
_cell_angle_beta     90
_cell_angle_gamma    90

_space_group_name_H-M_alt    "P 1"
_space_group_IT_number       1

loop_
  _space_group_symop_operation_xyz
  'x, y, z'

loop_
  _atom_site_type_symbol
  _atom_site_label
  _atom_site_symmetry_multiplicity
  _atom_site_fract_x
  _atom_site_fract_y
  _atom_site_fract_z
  _atom_site_occupancy
  Eu  Eu1       1.0  0.95100  0.35200  0.00000  1.0000
  Eu  Eu2       1.0  0.32200  0.43200  0.00000  1.0000
  Eu  Eu3       1.0  0.67800  0.56800  0.00000  1.0000
  Eu  Eu4       1.0  0.04950  0.64800  0.00000  1.0000
  Eu  Eu5       1.0  0.82200  0.06820  0.50000  1.0000
  Eu  Eu6       1.0  0.45100  0.14800  0.50000  1.0000
  Eu  Eu7       1.0  0.54900  0.85200  0.50000  1.0000
  Eu  Eu8       1.0  0.17800  0.93200  0.50000  1.0000
  Ge  Ge1       1.0  0.61100  0.04270  0.00000  1.0000
  Ge  Ge2       1.0  0.02910  0.10300  0.00000  1.0000
  Ge  Ge3       1.0  0.25600  0.14100  0.00000  1.0000
  Ge  Ge4       1.0  0.74400  0.85900  0.00000  1.0000
  Ge  Ge5       1.0  0.97100  0.89700  0.00000  1.0000
  Ge  Ge6       1.0  0.38900  0.95700  0.00000  1.0000
  Ge  Ge7       1.0  0.75600  0.35900  0.50000  1.0000
  Ge  Ge8       1.0  0.52900  0.39700  0.50000  1.0000
  Ge  Ge9       1.0  0.11100  0.45700  0.50000  1.0000
  Ge  Ge10      1.0  0.88900  0.54300  0.50000  1.0000
  Ge  Ge11      1.0  0.47100  0.60300  0.50000  1.0000
  Ge  Ge12      1.0  0.24400  0.64100  0.50000  1.0000
  Li  Li1       1.0  0.64000  0.28200  0.00000  1.0000
  Li  Li2       1.0  0.36000  0.71800  0.00000  1.0000
  Li  Li3       1.0  0.14000  0.21800  0.50000  1.0000
  Li  Li4       1.0  0.86000  0.78200  0.50000  1.0000
