data_image0
_chemical_formula_structural       Ag3Li17Sn6
_chemical_formula_sum              "Ag3 Li17 Sn6"
_cell_length_a       7.95077
_cell_length_b       7.95086
_cell_length_c       8.43567
_cell_angle_alpha    90
_cell_angle_beta     90
_cell_angle_gamma    120

_space_group_name_H-M_alt    "P 1"
_space_group_IT_number       1

loop_
  _space_group_symop_operation_xyz
  'x, y, z'

loop_
  _atom_site_type_symbol
  _atom_site_label
  _atom_site_symmetry_multiplicity
  _atom_site_fract_x
  _atom_site_fract_y
  _atom_site_fract_z
  _atom_site_occupancy
  Ag  Ag1       1.0  0.66700  0.33300  0.00076  1.0000
  Ag  Ag2       1.0  0.33300  0.66700  0.00076  1.0000
  Ag  Ag3       1.0  0.00000  0.00000  0.50000  1.0000
  Li  Li1       1.0  0.65800  0.00000  0.15700  1.0000
  Li  Li2       1.0  0.34200  0.34200  0.15700  1.0000
  Li  Li3       1.0  0.00000  0.65800  0.15700  1.0000
  Li  Li4       1.0  0.30100  0.00000  0.33200  1.0000
  Li  Li5       1.0  0.69900  0.69900  0.33200  1.0000
  Li  Li6       1.0  0.00000  0.30100  0.33200  1.0000
  Li  Li7       1.0  0.66700  0.33300  0.33400  1.0000
  Li  Li8       1.0  0.33300  0.66700  0.33400  1.0000
  Li  Li9       1.0  1.00000  0.31300  0.65300  1.0000
  Li  Li10      1.0  0.31300  0.00000  0.65300  1.0000
  Li  Li11      1.0  0.68700  0.68700  0.65300  1.0000
  Li  Li12      1.0  0.66700  0.33300  0.66800  1.0000
  Li  Li13      1.0  0.33300  0.66700  0.66800  1.0000
  Li  Li14      1.0  0.00000  0.00001  0.83200  1.0000
  Li  Li15      1.0  0.00000  0.64500  0.83400  1.0000
  Li  Li16      1.0  0.64500  0.00000  0.83400  1.0000
  Li  Li17      1.0  0.35500  0.35500  0.83400  1.0000
  Sn  Sn1       1.0  0.00000  0.30700  0.99400  1.0000
  Sn  Sn2       1.0  0.30700  0.00000  0.99400  1.0000
  Sn  Sn3       1.0  0.69300  0.69300  0.99400  1.0000
  Sn  Sn4       1.0  0.00000  0.64400  0.49700  1.0000
  Sn  Sn5       1.0  0.64400  0.00000  0.49700  1.0000
  Sn  Sn6       1.0  0.35600  0.35600  0.49700  1.0000
