data_image0
_chemical_formula_structural       Li8S12Te4
_chemical_formula_sum              "Li8 S12 Te4"
_cell_length_a       5.37428
_cell_length_b       11.4702
_cell_length_c       7.82069
_cell_angle_alpha    90
_cell_angle_beta     91.5716
_cell_angle_gamma    90

_space_group_name_H-M_alt    "P 1"
_space_group_IT_number       1

loop_
  _space_group_symop_operation_xyz
  'x, y, z'

loop_
  _atom_site_type_symbol
  _atom_site_label
  _atom_site_symmetry_multiplicity
  _atom_site_fract_x
  _atom_site_fract_y
  _atom_site_fract_z
  _atom_site_occupancy
  Li  Li1       1.0  0.76100  0.41300  0.13100  1.0000
  Li  Li2       1.0  0.74100  0.77100  0.14300  1.0000
  Li  Li3       1.0  0.25900  0.27100  0.35700  1.0000
  Li  Li4       1.0  0.23900  0.91300  0.36900  1.0000
  Li  Li5       1.0  0.76100  0.08650  0.63100  1.0000
  Li  Li6       1.0  0.74100  0.72900  0.64300  1.0000
  Li  Li7       1.0  0.25900  0.22900  0.85700  1.0000
  Li  Li8       1.0  0.23900  0.58700  0.86900  1.0000
  S   S1        1.0  0.23200  0.74600  0.12200  1.0000
  S   S2        1.0  0.25500  0.42600  0.12700  1.0000
  S   S3        1.0  0.27500  0.09620  0.13300  1.0000
  S   S4        1.0  0.72500  0.59600  0.36700  1.0000
  S   S5        1.0  0.74500  0.92600  0.37300  1.0000
  S   S6        1.0  0.76800  0.24600  0.37800  1.0000
  S   S7        1.0  0.23200  0.75400  0.62200  1.0000
  S   S8        1.0  0.25500  0.07430  0.62700  1.0000
  S   S9        1.0  0.27500  0.40400  0.63300  1.0000
  S   S10       1.0  0.72500  0.90400  0.86700  1.0000
  S   S11       1.0  0.74500  0.57400  0.87300  1.0000
  S   S12       1.0  0.76800  0.25400  0.87800  1.0000
  Te  Te1       1.0  0.72200  0.08620  0.18000  1.0000
  Te  Te2       1.0  0.27800  0.58600  0.32000  1.0000
  Te  Te3       1.0  0.72200  0.41400  0.68000  1.0000
  Te  Te4       1.0  0.27800  0.91400  0.82000  1.0000
