data_image0
_chemical_formula_structural       Li8O12Ru4
_chemical_formula_sum              "Li8 O12 Ru4"
_cell_length_a       5.03646
_cell_length_b       5.03646
_cell_length_c       9.82295
_cell_angle_alpha    94.7564
_cell_angle_beta     94.7564
_cell_angle_gamma    120.229

_space_group_name_H-M_alt    "P 1"
_space_group_IT_number       1

loop_
  _space_group_symop_operation_xyz
  'x, y, z'

loop_
  _atom_site_type_symbol
  _atom_site_label
  _atom_site_symmetry_multiplicity
  _atom_site_fract_x
  _atom_site_fract_y
  _atom_site_fract_z
  _atom_site_occupancy
  Li  Li1       1.0  0.50000  0.00000  0.00000  1.0000
  Li  Li2       1.0  0.90900  0.09110  0.25000  1.0000
  Li  Li3       1.0  0.59100  0.40900  0.25000  1.0000
  Li  Li4       1.0  0.25000  0.75000  0.25000  1.0000
  Li  Li5       1.0  1.00000  0.50000  0.50000  1.0000
  Li  Li6       1.0  0.75000  0.25000  0.75000  1.0000
  Li  Li7       1.0  0.40900  0.59100  0.75000  1.0000
  Li  Li8       1.0  0.09110  0.90900  0.75000  1.0000
  O   O1        1.0  0.88100  0.38100  0.11900  1.0000
  O   O2        1.0  0.54100  0.70100  0.12100  1.0000
  O   O3        1.0  0.20100  0.04140  0.12100  1.0000
  O   O4        1.0  0.95900  0.79900  0.37900  1.0000
  O   O5        1.0  0.29900  0.45900  0.37900  1.0000
  O   O6        1.0  0.61900  0.11900  0.38100  1.0000
  O   O7        1.0  0.38100  0.88100  0.61900  1.0000
  O   O8        1.0  0.70100  0.54100  0.62100  1.0000
  O   O9        1.0  0.04150  0.20100  0.62100  1.0000
  O   O10       1.0  0.79900  0.95900  0.87900  1.0000
  O   O11       1.0  0.45900  0.29900  0.87900  1.0000
  O   O12       1.0  0.11900  0.61900  0.88100  1.0000
  Ru  Ru1       1.0  0.17000  0.33000  0.00000  1.0000
  Ru  Ru2       1.0  0.83000  0.67000  0.00000  1.0000
  Ru  Ru3       1.0  0.33000  0.17000  0.50000  1.0000
  Ru  Ru4       1.0  0.67000  0.83000  0.50000  1.0000
