data_image0
_chemical_formula_structural       H18Li10Pt4
_chemical_formula_sum              "H18 Li10 Pt4"
_cell_length_a       7.1006
_cell_length_b       7.1006
_cell_length_c       7.1006
_cell_angle_alpha    109.92
_cell_angle_beta     108.578
_cell_angle_gamma    109.92

_space_group_name_H-M_alt    "P 1"
_space_group_IT_number       1

loop_
  _space_group_symop_operation_xyz
  'x, y, z'

loop_
  _atom_site_type_symbol
  _atom_site_label
  _atom_site_symmetry_multiplicity
  _atom_site_fract_x
  _atom_site_fract_y
  _atom_site_fract_z
  _atom_site_occupancy
  H   H1        1.0  0.50000  0.50000  0.00000  1.0000
  H   H2        1.0  0.91700  0.70400  0.06560  1.0000
  H   H3        1.0  0.78700  0.14900  0.08330  1.0000
  H   H4        1.0  0.28700  0.70400  0.13800  1.0000
  H   H5        1.0  0.36200  0.29600  0.21300  1.0000
  H   H6        1.0  0.58300  0.14900  0.28700  1.0000
  H   H7        1.0  0.06560  0.14900  0.36200  1.0000
  H   H8        1.0  0.56600  0.70400  0.41700  1.0000
  H   H9        1.0  0.13800  0.85100  0.43400  1.0000
  H   H10       1.0  0.00000  0.50000  0.50000  1.0000
  H   H11       1.0  0.86200  0.14900  0.56600  1.0000
  H   H12       1.0  0.43400  0.29600  0.58300  1.0000
  H   H13       1.0  0.93400  0.85100  0.63800  1.0000
  H   H14       1.0  0.41700  0.85100  0.71300  1.0000
  H   H15       1.0  0.63800  0.70400  0.78700  1.0000
  H   H16       1.0  0.71300  0.29600  0.86200  1.0000
  H   H17       1.0  0.21300  0.85100  0.91700  1.0000
  H   H18       1.0  0.08330  0.29600  0.93400  1.0000
  Li  Li1       1.0  0.00000  0.00000  0.00000  1.0000
  Li  Li2       1.0  0.51300  0.20500  0.01270  1.0000
  Li  Li3       1.0  0.98700  0.50000  0.19200  1.0000
  Li  Li4       1.0  0.80800  0.79500  0.30800  1.0000
  Li  Li5       1.0  0.69200  0.50000  0.48700  1.0000
  Li  Li6       1.0  0.50000  0.00000  0.50000  1.0000
  Li  Li7       1.0  0.30800  0.50000  0.51300  1.0000
  Li  Li8       1.0  0.19200  0.20500  0.69200  1.0000
  Li  Li9       1.0  0.01270  0.50000  0.80800  1.0000
  Li  Li10      1.0  0.48700  0.79500  0.98700  1.0000
  Pt  Pt1       1.0  0.34100  0.50000  0.15900  1.0000
  Pt  Pt2       1.0  0.84100  0.18200  0.34100  1.0000
  Pt  Pt3       1.0  0.15900  0.81800  0.65900  1.0000
  Pt  Pt4       1.0  0.65900  0.50000  0.84100  1.0000
