data_image0
_chemical_formula_structural       Li6O8V2
_chemical_formula_sum              "Li6 O8 V2"
_cell_length_a       6.29649
_cell_length_b       5.42054
_cell_length_c       4.90206
_cell_angle_alpha    90
_cell_angle_beta     90
_cell_angle_gamma    90

_space_group_name_H-M_alt    "P 1"
_space_group_IT_number       1

loop_
  _space_group_symop_operation_xyz
  'x, y, z'

loop_
  _atom_site_type_symbol
  _atom_site_label
  _atom_site_symmetry_multiplicity
  _atom_site_fract_x
  _atom_site_fract_y
  _atom_site_fract_z
  _atom_site_occupancy
  Li  Li1       1.0  0.00000  0.16800  0.48700  1.0000
  Li  Li2       1.0  0.25300  0.66800  0.48900  1.0000
  Li  Li3       1.0  0.74700  0.66800  0.48900  1.0000
  Li  Li4       1.0  0.50000  0.83200  0.98700  1.0000
  Li  Li5       1.0  0.24700  0.33200  0.98900  1.0000
  Li  Li6       1.0  0.75300  0.33200  0.98900  1.0000
  O   O1        1.0  0.00000  0.82700  0.35200  1.0000
  O   O2        1.0  0.27200  0.32200  0.38900  1.0000
  O   O3        1.0  0.72800  0.32200  0.38900  1.0000
  O   O4        1.0  0.50000  0.86600  0.39100  1.0000
  O   O5        1.0  0.50000  0.17300  0.85200  1.0000
  O   O6        1.0  0.22800  0.67800  0.88900  1.0000
  O   O7        1.0  0.77200  0.67800  0.88900  1.0000
  O   O8        1.0  0.00000  0.13400  0.89100  1.0000
  V   V1        1.0  0.00000  0.83000  0.99900  1.0000
  V   V2        1.0  0.50000  0.17000  0.49900  1.0000
