data_image0
_chemical_formula_structural       Li12O16Ta4
_chemical_formula_sum              "Li12 O16 Ta4"
_cell_length_a       5.98167
_cell_length_b       5.98167
_cell_length_c       9.29169
_cell_angle_alpha    108.757
_cell_angle_beta     108.757
_cell_angle_gamma    90.0802

_space_group_name_H-M_alt    "P 1"
_space_group_IT_number       1

loop_
  _space_group_symop_operation_xyz
  'x, y, z'

loop_
  _atom_site_type_symbol
  _atom_site_label
  _atom_site_symmetry_multiplicity
  _atom_site_fract_x
  _atom_site_fract_y
  _atom_site_fract_z
  _atom_site_occupancy
  Li  Li1       1.0  0.43200  0.19600  0.11600  1.0000
  Li  Li2       1.0  0.43900  0.65000  0.12500  1.0000
  Li  Li3       1.0  0.94100  0.69500  0.13400  1.0000
  Li  Li4       1.0  0.30500  0.05870  0.36600  1.0000
  Li  Li5       1.0  0.35000  0.56100  0.37500  1.0000
  Li  Li6       1.0  0.80400  0.56800  0.38400  1.0000
  Li  Li7       1.0  0.19600  0.43200  0.61600  1.0000
  Li  Li8       1.0  0.65000  0.43900  0.62500  1.0000
  Li  Li9       1.0  0.69500  0.94100  0.63400  1.0000
  Li  Li10      1.0  0.05870  0.30500  0.86600  1.0000
  Li  Li11      1.0  0.56100  0.35000  0.87500  1.0000
  Li  Li12      1.0  0.56800  0.80400  0.88400  1.0000
  O   O1        1.0  0.17000  0.94800  0.11400  1.0000
  O   O2        1.0  0.69600  0.42600  0.11900  1.0000
  O   O3        1.0  0.17900  0.43200  0.13100  1.0000
  O   O4        1.0  0.70800  0.95600  0.13600  1.0000
  O   O5        1.0  0.04430  0.29200  0.36400  1.0000
  O   O6        1.0  0.56800  0.82100  0.36900  1.0000
  O   O7        1.0  0.57400  0.30400  0.38100  1.0000
  O   O8        1.0  0.05230  0.83000  0.38600  1.0000
  O   O9        1.0  0.94800  0.17000  0.61400  1.0000
  O   O10       1.0  0.42600  0.69600  0.61900  1.0000
  O   O11       1.0  0.43200  0.17900  0.63100  1.0000
  O   O12       1.0  0.95600  0.70800  0.63600  1.0000
  O   O13       1.0  0.29200  0.04430  0.86400  1.0000
  O   O14       1.0  0.82100  0.56800  0.86900  1.0000
  O   O15       1.0  0.30400  0.57400  0.88100  1.0000
  O   O16       1.0  0.83000  0.05230  0.88600  1.0000
  Ta  Ta1       1.0  0.93700  0.22100  0.12500  1.0000
  Ta  Ta2       1.0  0.77900  0.06260  0.37500  1.0000
  Ta  Ta3       1.0  0.22100  0.93700  0.62500  1.0000
  Ta  Ta4       1.0  0.06260  0.77900  0.87500  1.0000
