data_image0
_chemical_formula_structural       Al6Li24Si8
_chemical_formula_sum              "Al6 Li24 Si8"
_cell_length_a       8.96842
_cell_length_b       8.96842
_cell_length_c       8.96842
_cell_angle_alpha    109.471
_cell_angle_beta     109.471
_cell_angle_gamma    109.471

_space_group_name_H-M_alt    "P 1"
_space_group_IT_number       1

loop_
  _space_group_symop_operation_xyz
  'x, y, z'

loop_
  _atom_site_type_symbol
  _atom_site_label
  _atom_site_symmetry_multiplicity
  _atom_site_fract_x
  _atom_site_fract_y
  _atom_site_fract_z
  _atom_site_occupancy
  Al  Al1       1.0  0.87500  0.75000  0.12500  1.0000
  Al  Al2       1.0  0.12500  0.37500  0.25000  1.0000
  Al  Al3       1.0  0.62500  0.25000  0.37500  1.0000
  Al  Al4       1.0  0.75000  0.87500  0.62500  1.0000
  Al  Al5       1.0  0.37500  0.12500  0.75000  1.0000
  Al  Al6       1.0  0.25000  0.62500  0.87500  1.0000
  Li  Li1       1.0  0.61600  0.84700  0.03780  1.0000
  Li  Li2       1.0  0.30900  0.46200  0.07780  1.0000
  Li  Li3       1.0  0.53800  0.34700  0.11600  1.0000
  Li  Li4       1.0  0.76800  0.19100  0.15300  1.0000
  Li  Li5       1.0  0.26800  0.15300  0.19100  1.0000
  Li  Li6       1.0  0.42200  0.88400  0.23200  1.0000
  Li  Li7       1.0  0.65300  0.69100  0.26800  1.0000
  Li  Li8       1.0  0.96200  0.57800  0.30900  1.0000
  Li  Li9       1.0  0.03780  0.11600  0.34700  1.0000
  Li  Li10      1.0  0.23200  0.92200  0.38400  1.0000
  Li  Li11      1.0  0.38400  0.73200  0.42200  1.0000
  Li  Li12      1.0  0.80900  0.07780  0.46200  1.0000
  Li  Li13      1.0  0.84700  0.61600  0.53800  1.0000
  Li  Li14      1.0  0.46200  0.30900  0.57800  1.0000
  Li  Li15      1.0  0.34700  0.53800  0.61600  1.0000
  Li  Li16      1.0  0.19100  0.76800  0.65300  1.0000
  Li  Li17      1.0  0.15300  0.26800  0.69100  1.0000
  Li  Li18      1.0  0.88400  0.42200  0.73200  1.0000
  Li  Li19      1.0  0.69100  0.65300  0.76800  1.0000
  Li  Li20      1.0  0.57800  0.96200  0.80900  1.0000
  Li  Li21      1.0  0.11600  0.03780  0.84700  1.0000
  Li  Li22      1.0  0.92200  0.23200  0.88400  1.0000
  Li  Li23      1.0  0.73200  0.38400  0.92200  1.0000
  Li  Li24      1.0  0.07780  0.80900  0.96200  1.0000
  Si  Si1       1.0  0.40800  0.00000  0.00000  1.0000
  Si  Si2       1.0  0.90800  0.00000  0.00000  1.0000
  Si  Si3       1.0  0.09190  0.59200  0.09190  1.0000
  Si  Si4       1.0  0.50000  0.50000  0.40800  1.0000
  Si  Si5       1.0  0.00000  0.90800  0.50000  1.0000
  Si  Si6       1.0  0.00000  0.40800  0.50000  1.0000
  Si  Si7       1.0  0.59200  0.09190  0.59200  1.0000
  Si  Si8       1.0  0.50000  0.50000  0.90800  1.0000
