data_image0
_chemical_formula_structural       Li5O6Re
_chemical_formula_sum              "Li5 O6 Re1"
_cell_length_a       4.99756
_cell_length_b       5.01792
_cell_length_c       5.01792
_cell_angle_alpha    119.823
_cell_angle_beta     99.8944
_cell_angle_gamma    99.8944

_space_group_name_H-M_alt    "P 1"
_space_group_IT_number       1

loop_
  _space_group_symop_operation_xyz
  'x, y, z'

loop_
  _atom_site_type_symbol
  _atom_site_label
  _atom_site_symmetry_multiplicity
  _atom_site_fract_x
  _atom_site_fract_y
  _atom_site_fract_z
  _atom_site_occupancy
  Li  Li1       1.0  0.50000  0.82300  0.17700  1.0000
  Li  Li2       1.0  0.00000  0.66700  0.33300  1.0000
  Li  Li3       1.0  0.50000  0.50000  0.50000  1.0000
  Li  Li4       1.0  0.00000  0.33300  0.66700  1.0000
  Li  Li5       1.0  0.50000  0.17700  0.82300  1.0000
  O   O1        1.0  0.23700  0.38800  0.07810  1.0000
  O   O2        1.0  0.77000  0.23000  0.23000  1.0000
  O   O3        1.0  0.23700  0.07810  0.38800  1.0000
  O   O4        1.0  0.76300  0.92200  0.61200  1.0000
  O   O5        1.0  0.23000  0.77000  0.77000  1.0000
  O   O6        1.0  0.76300  0.61200  0.92200  1.0000
  Re  Re1       1.0  0.00000  0.00000  0.00000  1.0000
