data_image0
_chemical_formula_structural       Li12Mo6O24
_chemical_formula_sum              "Li12 Mo6 O24"
_cell_length_a       8.81526
_cell_length_b       8.81526
_cell_length_c       8.81526
_cell_angle_alpha    107.798
_cell_angle_beta     107.798
_cell_angle_gamma    107.798

_space_group_name_H-M_alt    "P 1"
_space_group_IT_number       1

loop_
  _space_group_symop_operation_xyz
  'x, y, z'

loop_
  _atom_site_type_symbol
  _atom_site_label
  _atom_site_symmetry_multiplicity
  _atom_site_fract_x
  _atom_site_fract_y
  _atom_site_fract_z
  _atom_site_occupancy
  Li  Li1       1.0  0.87100  0.27400  0.10900  1.0000
  Li  Li2       1.0  0.72600  0.89100  0.12900  1.0000
  Li  Li3       1.0  0.60600  0.43400  0.20200  1.0000
  Li  Li4       1.0  0.10900  0.87100  0.27400  1.0000
  Li  Li5       1.0  0.56600  0.79800  0.39400  1.0000
  Li  Li6       1.0  0.20200  0.60600  0.43400  1.0000
  Li  Li7       1.0  0.79800  0.39400  0.56600  1.0000
  Li  Li8       1.0  0.43400  0.20200  0.60600  1.0000
  Li  Li9       1.0  0.89100  0.12900  0.72600  1.0000
  Li  Li10      1.0  0.39400  0.56600  0.79800  1.0000
  Li  Li11      1.0  0.27400  0.10900  0.87100  1.0000
  Li  Li12      1.0  0.12900  0.72600  0.89100  1.0000
  Mo  Mo1       1.0  0.23100  0.46600  0.05530  1.0000
  Mo  Mo2       1.0  0.46600  0.05530  0.23100  1.0000
  Mo  Mo3       1.0  0.05530  0.23100  0.46600  1.0000
  Mo  Mo4       1.0  0.94500  0.76900  0.53400  1.0000
  Mo  Mo5       1.0  0.53400  0.94500  0.76900  1.0000
  Mo  Mo6       1.0  0.76900  0.53400  0.94500  1.0000
  O   O1        1.0  0.30900  0.97100  0.00540  1.0000
  O   O2        1.0  0.99500  0.69100  0.02880  1.0000
  O   O3        1.0  0.36300  0.34800  0.04060  1.0000
  O   O4        1.0  0.75000  0.41800  0.07720  1.0000
  O   O5        1.0  0.58200  0.92300  0.25000  1.0000
  O   O6        1.0  0.31800  0.62000  0.28100  1.0000
  O   O7        1.0  0.97100  0.00540  0.30900  1.0000
  O   O8        1.0  0.62000  0.28100  0.31800  1.0000
  O   O9        1.0  0.04060  0.36300  0.34800  1.0000
  O   O10       1.0  0.34800  0.04060  0.36300  1.0000
  O   O11       1.0  0.71900  0.68200  0.38000  1.0000
  O   O12       1.0  0.07720  0.75000  0.41800  1.0000
  O   O13       1.0  0.92300  0.25000  0.58200  1.0000
  O   O14       1.0  0.28100  0.31800  0.62000  1.0000
  O   O15       1.0  0.65200  0.95900  0.63700  1.0000
  O   O16       1.0  0.95900  0.63700  0.65200  1.0000
  O   O17       1.0  0.38000  0.71900  0.68200  1.0000
  O   O18       1.0  0.02880  0.99500  0.69100  1.0000
  O   O19       1.0  0.68200  0.38000  0.71900  1.0000
  O   O20       1.0  0.41800  0.07720  0.75000  1.0000
  O   O21       1.0  0.25000  0.58200  0.92300  1.0000
  O   O22       1.0  0.63700  0.65200  0.95900  1.0000
  O   O23       1.0  0.00540  0.30900  0.97100  1.0000
  O   O24       1.0  0.69100  0.02880  0.99500  1.0000
