data_image0
_chemical_formula_structural       Li12O24W6
_chemical_formula_sum              "Li12 O24 W6"
_cell_length_a       8.82703
_cell_length_b       8.82703
_cell_length_c       8.82703
_cell_angle_alpha    107.793
_cell_angle_beta     107.793
_cell_angle_gamma    107.793

_space_group_name_H-M_alt    "P 1"
_space_group_IT_number       1

loop_
  _space_group_symop_operation_xyz
  'x, y, z'

loop_
  _atom_site_type_symbol
  _atom_site_label
  _atom_site_symmetry_multiplicity
  _atom_site_fract_x
  _atom_site_fract_y
  _atom_site_fract_z
  _atom_site_occupancy
  Li  Li1       1.0  0.27300  0.87100  0.11100  1.0000
  Li  Li2       1.0  0.88900  0.72700  0.12900  1.0000
  Li  Li3       1.0  0.43400  0.60700  0.20300  1.0000
  Li  Li4       1.0  0.87100  0.11100  0.27300  1.0000
  Li  Li5       1.0  0.79700  0.56600  0.39300  1.0000
  Li  Li6       1.0  0.60700  0.20300  0.43400  1.0000
  Li  Li7       1.0  0.39300  0.79700  0.56600  1.0000
  Li  Li8       1.0  0.20300  0.43400  0.60700  1.0000
  Li  Li9       1.0  0.12900  0.88900  0.72700  1.0000
  Li  Li10      1.0  0.56600  0.39300  0.79700  1.0000
  Li  Li11      1.0  0.11100  0.27300  0.87100  1.0000
  Li  Li12      1.0  0.72700  0.12900  0.88900  1.0000
  O   O1        1.0  0.97200  0.31100  0.00249  1.0000
  O   O2        1.0  0.68900  0.99800  0.02790  1.0000
  O   O3        1.0  0.34900  0.36100  0.04370  1.0000
  O   O4        1.0  0.41900  0.75200  0.07990  1.0000
  O   O5        1.0  0.92000  0.58100  0.24800  1.0000
  O   O6        1.0  0.62400  0.31800  0.28200  1.0000
  O   O7        1.0  0.00249  0.97200  0.31100  1.0000
  O   O8        1.0  0.28200  0.62400  0.31800  1.0000
  O   O9        1.0  0.36100  0.04370  0.34900  1.0000
  O   O10       1.0  0.04370  0.34900  0.36100  1.0000
  O   O11       1.0  0.68200  0.71800  0.37600  1.0000
  O   O12       1.0  0.75200  0.07990  0.41900  1.0000
  O   O13       1.0  0.24800  0.92000  0.58100  1.0000
  O   O14       1.0  0.31800  0.28200  0.62400  1.0000
  O   O15       1.0  0.95600  0.65100  0.63900  1.0000
  O   O16       1.0  0.63900  0.95600  0.65100  1.0000
  O   O17       1.0  0.71800  0.37600  0.68200  1.0000
  O   O18       1.0  0.99800  0.02790  0.68900  1.0000
  O   O19       1.0  0.37600  0.68200  0.71800  1.0000
  O   O20       1.0  0.07990  0.41900  0.75200  1.0000
  O   O21       1.0  0.58100  0.24800  0.92000  1.0000
  O   O22       1.0  0.65100  0.63900  0.95600  1.0000
  O   O23       1.0  0.31100  0.00249  0.97200  1.0000
  O   O24       1.0  0.02790  0.68900  0.99800  1.0000
  W   W1        1.0  0.46700  0.22900  0.05560  1.0000
  W   W2        1.0  0.05560  0.46700  0.22900  1.0000
  W   W3        1.0  0.22900  0.05560  0.46700  1.0000
  W   W4        1.0  0.77100  0.94400  0.53300  1.0000
  W   W5        1.0  0.94400  0.53300  0.77100  1.0000
  W   W6        1.0  0.53300  0.77100  0.94400  1.0000
