data_image0
_chemical_formula_structural       F28Li12Th4
_chemical_formula_sum              "F28 Li12 Th4"
_cell_length_a       6.37131
_cell_length_b       6.37131
_cell_length_c       12.1671
_cell_angle_alpha    90
_cell_angle_beta     90
_cell_angle_gamma    90

_space_group_name_H-M_alt    "P 1"
_space_group_IT_number       1

loop_
  _space_group_symop_operation_xyz
  'x, y, z'

loop_
  _atom_site_type_symbol
  _atom_site_label
  _atom_site_symmetry_multiplicity
  _atom_site_fract_x
  _atom_site_fract_y
  _atom_site_fract_z
  _atom_site_occupancy
  F   F1        1.0  0.56100  0.12300  0.08600  1.0000
  F   F2        1.0  0.93900  0.37700  0.08600  1.0000
  F   F3        1.0  0.37700  0.56100  0.08600  1.0000
  F   F4        1.0  0.12300  0.93900  0.08600  1.0000
  F   F5        1.0  0.75000  0.75000  0.18800  1.0000
  F   F6        1.0  0.90700  0.09280  0.25000  1.0000
  F   F7        1.0  0.59300  0.40700  0.25000  1.0000
  F   F8        1.0  0.09280  0.59300  0.25000  1.0000
  F   F9        1.0  0.40700  0.90700  0.25000  1.0000
  F   F10       1.0  0.25000  0.25000  0.31200  1.0000
  F   F11       1.0  0.62300  0.06110  0.41400  1.0000
  F   F12       1.0  0.87700  0.43900  0.41400  1.0000
  F   F13       1.0  0.43900  0.62300  0.41400  1.0000
  F   F14       1.0  0.06110  0.87700  0.41400  1.0000
  F   F15       1.0  0.93900  0.12300  0.58600  1.0000
  F   F16       1.0  0.56100  0.37700  0.58600  1.0000
  F   F17       1.0  0.12300  0.56100  0.58600  1.0000
  F   F18       1.0  0.37700  0.93900  0.58600  1.0000
  F   F19       1.0  0.75000  0.75000  0.68800  1.0000
  F   F20       1.0  0.59300  0.09280  0.75000  1.0000
  F   F21       1.0  0.90700  0.40700  0.75000  1.0000
  F   F22       1.0  0.40700  0.59300  0.75000  1.0000
  F   F23       1.0  0.09280  0.90700  0.75000  1.0000
  F   F24       1.0  0.25000  0.25000  0.81200  1.0000
  F   F25       1.0  0.87700  0.06110  0.91400  1.0000
  F   F26       1.0  0.62300  0.43900  0.91400  1.0000
  F   F27       1.0  0.06110  0.62300  0.91400  1.0000
  F   F28       1.0  0.43900  0.87700  0.91400  1.0000
  Li  Li1       1.0  0.75000  0.25000  0.00000  1.0000
  Li  Li2       1.0  0.25000  0.75000  0.00000  1.0000
  Li  Li3       1.0  0.61800  0.11800  0.25000  1.0000
  Li  Li4       1.0  0.88200  0.38200  0.25000  1.0000
  Li  Li5       1.0  0.38200  0.61800  0.25000  1.0000
  Li  Li6       1.0  0.11800  0.88200  0.25000  1.0000
  Li  Li7       1.0  0.75000  0.25000  0.50000  1.0000
  Li  Li8       1.0  0.25000  0.75000  0.50000  1.0000
  Li  Li9       1.0  0.88200  0.11800  0.75000  1.0000
  Li  Li10      1.0  0.61800  0.38200  0.75000  1.0000
  Li  Li11      1.0  0.11800  0.61800  0.75000  1.0000
  Li  Li12      1.0  0.38200  0.88200  0.75000  1.0000
  Th  Th1       1.0  0.25000  0.25000  0.13500  1.0000
  Th  Th2       1.0  0.75000  0.75000  0.36500  1.0000
  Th  Th3       1.0  0.25000  0.25000  0.63500  1.0000
  Th  Th4       1.0  0.75000  0.75000  0.86500  1.0000
