data_image0
_chemical_formula_structural       H24Ir4Li12
_chemical_formula_sum              "H24 Ir4 Li12"
_cell_length_a       8.25397
_cell_length_b       4.6091
_cell_length_c       8.35167
_cell_angle_alpha    90
_cell_angle_beta     90
_cell_angle_gamma    90

_space_group_name_H-M_alt    "P 1"
_space_group_IT_number       1

loop_
  _space_group_symop_operation_xyz
  'x, y, z'

loop_
  _atom_site_type_symbol
  _atom_site_label
  _atom_site_symmetry_multiplicity
  _atom_site_fract_x
  _atom_site_fract_y
  _atom_site_fract_z
  _atom_site_occupancy
  H   H1        1.0  0.65100  0.00463  0.02840  1.0000
  H   H2        1.0  0.65100  0.49500  0.02840  1.0000
  H   H3        1.0  0.10800  0.25000  0.06260  1.0000
  H   H4        1.0  0.90000  0.50100  0.17800  1.0000
  H   H5        1.0  0.90000  0.99900  0.17800  1.0000
  H   H6        1.0  0.16400  0.75000  0.23500  1.0000
  H   H7        1.0  0.66400  0.75000  0.26500  1.0000
  H   H8        1.0  0.40000  0.50100  0.32200  1.0000
  H   H9        1.0  0.40000  0.99900  0.32200  1.0000
  H   H10       1.0  0.60800  0.25000  0.43700  1.0000
  H   H11       1.0  0.15100  0.00463  0.47200  1.0000
  H   H12       1.0  0.15100  0.49500  0.47200  1.0000
  H   H13       1.0  0.84900  0.50500  0.52800  1.0000
  H   H14       1.0  0.84900  0.99500  0.52800  1.0000
  H   H15       1.0  0.39200  0.75000  0.56300  1.0000
  H   H16       1.0  0.60000  0.00078  0.67800  1.0000
  H   H17       1.0  0.60000  0.49900  0.67800  1.0000
  H   H18       1.0  0.33600  0.25000  0.73500  1.0000
  H   H19       1.0  0.83600  0.25000  0.76500  1.0000
  H   H20       1.0  0.09960  0.00078  0.82200  1.0000
  H   H21       1.0  0.09960  0.49900  0.82200  1.0000
  H   H22       1.0  0.89200  0.75000  0.93700  1.0000
  H   H23       1.0  0.34900  0.50500  0.97200  1.0000
  H   H24       1.0  0.34900  0.99500  0.97200  1.0000
  Ir  Ir1       1.0  0.77500  0.75000  0.10100  1.0000
  Ir  Ir2       1.0  0.27500  0.75000  0.39900  1.0000
  Ir  Ir3       1.0  0.72500  0.25000  0.60100  1.0000
  Ir  Ir4       1.0  0.22500  0.25000  0.89900  1.0000
  Li  Li1       1.0  0.10400  0.75000  0.02570  1.0000
  Li  Li2       1.0  0.45600  0.75000  0.12900  1.0000
  Li  Li3       1.0  0.22500  0.25000  0.24400  1.0000
  Li  Li4       1.0  0.72500  0.25000  0.25600  1.0000
  Li  Li5       1.0  0.95600  0.75000  0.37100  1.0000
  Li  Li6       1.0  0.60400  0.75000  0.47400  1.0000
  Li  Li7       1.0  0.39600  0.25000  0.52600  1.0000
  Li  Li8       1.0  0.04450  0.25000  0.62900  1.0000
  Li  Li9       1.0  0.27500  0.75000  0.74400  1.0000
  Li  Li10      1.0  0.77500  0.75000  0.75600  1.0000
  Li  Li11      1.0  0.54400  0.25000  0.87100  1.0000
  Li  Li12      1.0  0.89600  0.25000  0.97400  1.0000
