data_image0
_chemical_formula_structural       Ga2H8Li2
_chemical_formula_sum              "Ga2 H8 Li2"
_cell_length_a       4.58941
_cell_length_b       4.58941
_cell_length_c       5.98301
_cell_angle_alpha    90
_cell_angle_beta     90
_cell_angle_gamma    93.2842

_space_group_name_H-M_alt    "P 1"
_space_group_IT_number       1

loop_
  _space_group_symop_operation_xyz
  'x, y, z'

loop_
  _atom_site_type_symbol
  _atom_site_label
  _atom_site_symmetry_multiplicity
  _atom_site_fract_x
  _atom_site_fract_y
  _atom_site_fract_z
  _atom_site_occupancy
  Ga  Ga1       1.0  0.82900  0.17100  0.25000  1.0000
  Ga  Ga2       1.0  0.17100  0.82900  0.75000  1.0000
  H   H1        1.0  0.67500  0.32500  0.04370  1.0000
  H   H2        1.0  0.16800  0.24000  0.25000  1.0000
  H   H3        1.0  0.76000  0.83200  0.25000  1.0000
  H   H4        1.0  0.67500  0.32500  0.45600  1.0000
  H   H5        1.0  0.32500  0.67500  0.54400  1.0000
  H   H6        1.0  0.24000  0.16800  0.75000  1.0000
  H   H7        1.0  0.83200  0.76000  0.75000  1.0000
  H   H8        1.0  0.32500  0.67500  0.95600  1.0000
  Li  Li1       1.0  0.42000  0.58000  0.25000  1.0000
  Li  Li2       1.0  0.58000  0.42000  0.75000  1.0000
