data_image0
_chemical_formula_structural       Li3Ni18Si18
_chemical_formula_sum              "Li3 Ni18 Si18"
_cell_length_a       8.43867
_cell_length_b       8.43867
_cell_length_c       7.57005
_cell_angle_alpha    89.9989
_cell_angle_beta     89.9989
_cell_angle_gamma    119.998

_space_group_name_H-M_alt    "P 1"
_space_group_IT_number       1

loop_
  _space_group_symop_operation_xyz
  'x, y, z'

loop_
  _atom_site_type_symbol
  _atom_site_label
  _atom_site_symmetry_multiplicity
  _atom_site_fract_x
  _atom_site_fract_y
  _atom_site_fract_z
  _atom_site_occupancy
  Li  Li1       1.0  0.33300  0.66700  0.00001  1.0000
  Li  Li2       1.0  0.66700  0.33300  0.00001  1.0000
  Li  Li3       1.0  0.00000  0.00000  0.50000  1.0000
  Ni  Ni1       1.0  0.66600  0.83300  0.24800  1.0000
  Ni  Ni2       1.0  0.83300  0.66600  0.24800  1.0000
  Ni  Ni3       1.0  0.83300  0.16700  0.24800  1.0000
  Ni  Ni4       1.0  0.16700  0.83300  0.24800  1.0000
  Ni  Ni5       1.0  0.16700  0.33400  0.24800  1.0000
  Ni  Ni6       1.0  0.33400  0.16700  0.24800  1.0000
  Ni  Ni7       1.0  0.00000  0.50000  0.25500  1.0000
  Ni  Ni8       1.0  0.50000  0.00000  0.25500  1.0000
  Ni  Ni9       1.0  0.50000  0.50000  0.25500  1.0000
  Ni  Ni10      1.0  0.50000  0.50000  0.74500  1.0000
  Ni  Ni11      1.0  0.50000  0.00000  0.74500  1.0000
  Ni  Ni12      1.0  0.00000  0.50000  0.74500  1.0000
  Ni  Ni13      1.0  0.83300  0.66600  0.75200  1.0000
  Ni  Ni14      1.0  0.66600  0.83300  0.75200  1.0000
  Ni  Ni15      1.0  0.83300  0.16700  0.75200  1.0000
  Ni  Ni16      1.0  0.16700  0.83300  0.75200  1.0000
  Ni  Ni17      1.0  0.16700  0.33400  0.75200  1.0000
  Ni  Ni18      1.0  0.33400  0.16700  0.75200  1.0000
  Si  Si1       1.0  0.33700  0.00000  0.00000  1.0000
  Si  Si2       1.0  0.00000  0.33700  0.00000  1.0000
  Si  Si3       1.0  0.33700  0.33700  0.00000  1.0000
  Si  Si4       1.0  0.66300  0.00001  0.00000  1.0000
  Si  Si5       1.0  0.00001  0.66300  1.00000  1.0000
  Si  Si6       1.0  0.66300  0.66300  0.00000  1.0000
  Si  Si7       1.0  0.00000  0.00000  0.15600  1.0000
  Si  Si8       1.0  0.33300  0.66700  0.34300  1.0000
  Si  Si9       1.0  0.66700  0.33300  0.34300  1.0000
  Si  Si10      1.0  0.66900  0.66900  0.50000  1.0000
  Si  Si11      1.0  0.00000  0.66900  0.50000  1.0000
  Si  Si12      1.0  0.66900  0.00000  0.50000  1.0000
  Si  Si13      1.0  0.00000  0.33100  0.50000  1.0000
  Si  Si14      1.0  0.33100  0.00000  0.50000  1.0000
  Si  Si15      1.0  0.33100  0.33100  0.50000  1.0000
  Si  Si16      1.0  0.66700  0.33300  0.65700  1.0000
  Si  Si17      1.0  0.33300  0.66700  0.65700  1.0000
  Si  Si18      1.0  0.00001  0.00001  0.84400  1.0000
