data_image0
_chemical_formula_structural       CrPr2S4
_chemical_formula_sum              "Cr1 Pr2 S4"
_cell_length_a       4.00895
_cell_length_b       7.26844
_cell_length_c       6.80489
_cell_angle_alpha    118.025
_cell_angle_beta     107.131
_cell_angle_gamma    90

_space_group_name_H-M_alt    "P 1"
_space_group_IT_number       1

loop_
  _space_group_symop_operation_xyz
  'x, y, z'

loop_
  _atom_site_type_symbol
  _atom_site_label
  _atom_site_symmetry_multiplicity
  _atom_site_fract_x
  _atom_site_fract_y
  _atom_site_fract_z
  _atom_site_occupancy
  Cr  Cr1       1.0  0.00000  0.00000  0.00000  1.0000
  Pr  Pr1       1.0  0.70300  0.70000  0.40600  1.0000
  Pr  Pr2       1.0  0.29700  0.30000  0.59400  1.0000
  S   S1        1.0  0.10100  0.38700  0.20300  1.0000
  S   S2        1.0  0.63400  0.01750  0.26900  1.0000
  S   S3        1.0  0.36600  0.98200  0.73100  1.0000
  S   S4        1.0  0.89900  0.61300  0.79700  1.0000
