data_image0
_chemical_formula_structural       Li8O20Te8
_chemical_formula_sum              "Li8 O20 Te8"
_cell_length_a       10.275
_cell_length_b       4.59171
_cell_length_c       10.7371
_cell_angle_alpha    90
_cell_angle_beta     109.176
_cell_angle_gamma    90

_space_group_name_H-M_alt    "P 1"
_space_group_IT_number       1

loop_
  _space_group_symop_operation_xyz
  'x, y, z'

loop_
  _atom_site_type_symbol
  _atom_site_label
  _atom_site_symmetry_multiplicity
  _atom_site_fract_x
  _atom_site_fract_y
  _atom_site_fract_z
  _atom_site_occupancy
  Li  Li1       1.0  0.08780  0.22300  0.01150  1.0000
  Li  Li2       1.0  0.25100  0.79700  0.17200  1.0000
  Li  Li3       1.0  0.24900  0.29700  0.32800  1.0000
  Li  Li4       1.0  0.41200  0.72300  0.48800  1.0000
  Li  Li5       1.0  0.58800  0.27700  0.51200  1.0000
  Li  Li6       1.0  0.75100  0.70300  0.67200  1.0000
  Li  Li7       1.0  0.74900  0.20300  0.82800  1.0000
  Li  Li8       1.0  0.91200  0.77700  0.98800  1.0000
  O   O1        1.0  0.89500  0.22400  0.00722  1.0000
  O   O2        1.0  0.65800  0.48400  0.05320  1.0000
  O   O3        1.0  0.26800  0.23200  0.15600  1.0000
  O   O4        1.0  0.92000  0.68700  0.17700  1.0000
  O   O5        1.0  0.45200  0.68300  0.20500  1.0000
  O   O6        1.0  0.04760  0.18300  0.29500  1.0000
  O   O7        1.0  0.58000  0.18700  0.32300  1.0000
  O   O8        1.0  0.23200  0.73200  0.34400  1.0000
  O   O9        1.0  0.84200  0.98400  0.44700  1.0000
  O   O10       1.0  0.60500  0.72400  0.49300  1.0000
  O   O11       1.0  0.39500  0.27600  0.50700  1.0000
  O   O12       1.0  0.15800  0.01580  0.55300  1.0000
  O   O13       1.0  0.76800  0.26800  0.65600  1.0000
  O   O14       1.0  0.42000  0.81300  0.67700  1.0000
  O   O15       1.0  0.95200  0.81700  0.70500  1.0000
  O   O16       1.0  0.54800  0.31700  0.79500  1.0000
  O   O17       1.0  0.07960  0.31300  0.82300  1.0000
  O   O18       1.0  0.73200  0.76800  0.84400  1.0000
  O   O19       1.0  0.34200  0.51600  0.94700  1.0000
  O   O20       1.0  0.10500  0.77600  0.99300  1.0000
  Te  Te1       1.0  0.43300  0.30700  0.11900  1.0000
  Te  Te2       1.0  0.84400  0.30200  0.15600  1.0000
  Te  Te3       1.0  0.65600  0.80200  0.34400  1.0000
  Te  Te4       1.0  0.06730  0.80700  0.38100  1.0000
  Te  Te5       1.0  0.93300  0.19300  0.61900  1.0000
  Te  Te6       1.0  0.34400  0.19800  0.65600  1.0000
  Te  Te7       1.0  0.15600  0.69800  0.84400  1.0000
  Te  Te8       1.0  0.56700  0.69300  0.88100  1.0000
