data_image0
_chemical_formula_structural       I2Ni
_chemical_formula_sum              "I2 Ni1"
_cell_length_a       3.94603
_cell_length_b       3.94603
_cell_length_c       6.9627
_cell_angle_alpha    73.5386
_cell_angle_beta     106.461
_cell_angle_gamma    120

_space_group_name_H-M_alt    "P 1"
_space_group_IT_number       1

loop_
  _space_group_symop_operation_xyz
  'x, y, z'

loop_
  _atom_site_type_symbol
  _atom_site_label
  _atom_site_symmetry_multiplicity
  _atom_site_fract_x
  _atom_site_fract_y
  _atom_site_fract_z
  _atom_site_occupancy
  I   I1        1.0  0.74200  0.25800  0.22700  1.0000
  I   I2        1.0  0.25800  0.74200  0.77300  1.0000
  Ni  Ni1       1.0  0.00000  0.00000  0.00000  1.0000
