data_image0
_chemical_formula_structural       N3W6
_chemical_formula_sum              "N3 W6"
_cell_length_a       2.82902
_cell_length_b       2.82911
_cell_length_c       17.6299
_cell_angle_alpha    89.9918
_cell_angle_beta     89.9398
_cell_angle_gamma    120.001

_space_group_name_H-M_alt    "P 1"
_space_group_IT_number       1

loop_
  _space_group_symop_operation_xyz
  'x, y, z'

loop_
  _atom_site_type_symbol
  _atom_site_label
  _atom_site_symmetry_multiplicity
  _atom_site_fract_x
  _atom_site_fract_y
  _atom_site_fract_z
  _atom_site_occupancy
  N   N1        1.0  0.33300  0.66700  0.15000  1.0000
  N   N2        1.0  0.00000  0.00000  0.50000  1.0000
  N   N3        1.0  0.66700  0.33300  0.85000  1.0000
  W   W1        1.0  0.00060  0.00034  0.07570  1.0000
  W   W2        1.0  0.33300  0.66700  0.26200  1.0000
  W   W3        1.0  0.33400  0.66700  0.41700  1.0000
  W   W4        1.0  0.66600  0.33300  0.58300  1.0000
  W   W5        1.0  0.66700  0.33300  0.73800  1.0000
  W   W6        1.0  0.99900  0.00000  0.92400  1.0000
