data_image0
_chemical_formula_structural       Dy4Ge4InNi2
_chemical_formula_sum              "Dy4 Ge4 In1 Ni2"
_cell_length_a       4.24383
_cell_length_b       7.05853
_cell_length_c       8.04257
_cell_angle_alpha    108.004
_cell_angle_beta     105.298
_cell_angle_gamma    90

_space_group_name_H-M_alt    "P 1"
_space_group_IT_number       1

loop_
  _space_group_symop_operation_xyz
  'x, y, z'

loop_
  _atom_site_type_symbol
  _atom_site_label
  _atom_site_symmetry_multiplicity
  _atom_site_fract_x
  _atom_site_fract_y
  _atom_site_fract_z
  _atom_site_occupancy
  Dy  Dy1       1.0  0.59100  0.39000  0.18300  1.0000
  Dy  Dy2       1.0  0.65600  0.93800  0.31200  1.0000
  Dy  Dy3       1.0  0.34400  0.06160  0.68800  1.0000
  Dy  Dy4       1.0  0.40900  0.61000  0.81700  1.0000
  Ge  Ge1       1.0  0.06560  0.66300  0.13100  1.0000
  Ge  Ge2       1.0  0.20400  0.27300  0.40800  1.0000
  Ge  Ge3       1.0  0.79600  0.72700  0.59200  1.0000
  Ge  Ge4       1.0  0.93400  0.33700  0.86900  1.0000
  In  In1       1.0  0.00000  0.00000  0.00000  1.0000
  Ni  Ni1       1.0  0.21700  0.64300  0.43300  1.0000
  Ni  Ni2       1.0  0.78300  0.35700  0.56700  1.0000
