data_image0
_chemical_formula_structural       AlAu2
_chemical_formula_sum              "Al1 Au2"
_cell_length_a       3.36066
_cell_length_b       3.36066
_cell_length_c       5.0641
_cell_angle_alpha    109.379
_cell_angle_beta     109.379
_cell_angle_gamma    90

_space_group_name_H-M_alt    "P 1"
_space_group_IT_number       1

loop_
  _space_group_symop_operation_xyz
  'x, y, z'

loop_
  _atom_site_type_symbol
  _atom_site_label
  _atom_site_symmetry_multiplicity
  _atom_site_fract_x
  _atom_site_fract_y
  _atom_site_fract_z
  _atom_site_occupancy
  Al  Al1       1.0  0.00000  0.00000  0.00000  1.0000
  Au  Au1       1.0  0.65600  0.65600  0.31100  1.0000
  Au  Au2       1.0  0.34400  0.34400  0.68900  1.0000
