data_image0
_chemical_formula_structural       In2Np4Pt4
_chemical_formula_sum              "In2 Np4 Pt4"
_cell_length_a       7.6847
_cell_length_b       7.68117
_cell_length_c       3.65928
_cell_angle_alpha    90
_cell_angle_beta     90
_cell_angle_gamma    90.1563

_space_group_name_H-M_alt    "P 1"
_space_group_IT_number       1

loop_
  _space_group_symop_operation_xyz
  'x, y, z'

loop_
  _atom_site_type_symbol
  _atom_site_label
  _atom_site_symmetry_multiplicity
  _atom_site_fract_x
  _atom_site_fract_y
  _atom_site_fract_z
  _atom_site_occupancy
  In  In1       1.0  0.00011  0.00000  0.00000  1.0000
  In  In2       1.0  0.50000  0.50000  0.00000  1.0000
  Np  Np1       1.0  0.33100  0.16900  0.50000  1.0000
  Np  Np2       1.0  0.83100  0.33100  0.50000  1.0000
  Np  Np3       1.0  0.16900  0.66900  0.50000  1.0000
  Np  Np4       1.0  0.66900  0.83100  0.50000  1.0000
  Pt  Pt1       1.0  0.63500  0.13400  0.00000  1.0000
  Pt  Pt2       1.0  0.13400  0.36600  0.00000  1.0000
  Pt  Pt3       1.0  0.86600  0.63400  0.00000  1.0000
  Pt  Pt4       1.0  0.36600  0.86600  0.00000  1.0000
