data_image0
_chemical_formula_structural       K12Li4Si16
_chemical_formula_sum              "K12 Li4 Si16"
_cell_length_a       7.62608
_cell_length_b       9.71762
_cell_length_c       12.2262
_cell_angle_alpha    90
_cell_angle_beta     90
_cell_angle_gamma    90

_space_group_name_H-M_alt    "P 1"
_space_group_IT_number       1

loop_
  _space_group_symop_operation_xyz
  'x, y, z'

loop_
  _atom_site_type_symbol
  _atom_site_label
  _atom_site_symmetry_multiplicity
  _atom_site_fract_x
  _atom_site_fract_y
  _atom_site_fract_z
  _atom_site_occupancy
  K   K1        1.0  0.15500  0.25000  0.10100  1.0000
  K   K2        1.0  0.84500  0.55400  0.19400  1.0000
  K   K3        1.0  0.84500  0.94600  0.19400  1.0000
  K   K4        1.0  0.34500  0.55400  0.30600  1.0000
  K   K5        1.0  0.34500  0.94600  0.30600  1.0000
  K   K6        1.0  0.65500  0.25000  0.39900  1.0000
  K   K7        1.0  0.34500  0.75000  0.60100  1.0000
  K   K8        1.0  0.65500  0.05450  0.69400  1.0000
  K   K9        1.0  0.65500  0.44600  0.69400  1.0000
  K   K10       1.0  0.15500  0.05450  0.80600  1.0000
  K   K11       1.0  0.15500  0.44600  0.80600  1.0000
  K   K12       1.0  0.84500  0.75000  0.89900  1.0000
  Li  Li1       1.0  0.50000  0.00000  0.00000  1.0000
  Li  Li2       1.0  0.50000  0.50000  0.00000  1.0000
  Li  Li3       1.0  0.00000  0.00000  0.50000  1.0000
  Li  Li4       1.0  0.00000  0.50000  0.50000  1.0000
  Si  Si1       1.0  0.21500  0.62800  0.04810  1.0000
  Si  Si2       1.0  0.21500  0.87200  0.04810  1.0000
  Si  Si3       1.0  0.48900  0.75000  0.08320  1.0000
  Si  Si4       1.0  0.63800  0.25000  0.10100  1.0000
  Si  Si5       1.0  0.13800  0.25000  0.39900  1.0000
  Si  Si6       1.0  0.98900  0.75000  0.41700  1.0000
  Si  Si7       1.0  0.71500  0.62800  0.45200  1.0000
  Si  Si8       1.0  0.71500  0.87200  0.45200  1.0000
  Si  Si9       1.0  0.28500  0.12800  0.54800  1.0000
  Si  Si10      1.0  0.28500  0.37200  0.54800  1.0000
  Si  Si11      1.0  0.01080  0.25000  0.58300  1.0000
  Si  Si12      1.0  0.86200  0.75000  0.60100  1.0000
  Si  Si13      1.0  0.36200  0.75000  0.89900  1.0000
  Si  Si14      1.0  0.51100  0.25000  0.91700  1.0000
  Si  Si15      1.0  0.78500  0.12800  0.95200  1.0000
  Si  Si16      1.0  0.78500  0.37200  0.95200  1.0000
