data_image0
_chemical_formula_structural       Li2Mo16O20
_chemical_formula_sum              "Li2 Mo16 O20"
_cell_length_a       5.86007
_cell_length_b       5.86007
_cell_length_c       13.1312
_cell_angle_alpha    102.893
_cell_angle_beta     102.893
_cell_angle_gamma    90

_space_group_name_H-M_alt    "P 1"
_space_group_IT_number       1

loop_
  _space_group_symop_operation_xyz
  'x, y, z'

loop_
  _atom_site_type_symbol
  _atom_site_label
  _atom_site_symmetry_multiplicity
  _atom_site_fract_x
  _atom_site_fract_y
  _atom_site_fract_z
  _atom_site_occupancy
  Li  Li1       1.0  0.62400  0.62400  0.24900  1.0000
  Li  Li2       1.0  0.87400  0.37400  0.74900  1.0000
  Mo  Mo1       1.0  0.49900  0.22400  0.99800  1.0000
  Mo  Mo2       1.0  0.49900  0.77400  0.99800  1.0000
  Mo  Mo3       1.0  0.00374  0.23900  0.00748  1.0000
  Mo  Mo4       1.0  0.00374  0.76800  0.00748  1.0000
  Mo  Mo5       1.0  0.33100  0.07740  0.15500  1.0000
  Mo  Mo6       1.0  0.82300  0.07740  0.15500  1.0000
  Mo  Mo7       1.0  0.17600  0.45200  0.35200  1.0000
  Mo  Mo8       1.0  0.17600  0.90000  0.35200  1.0000
  Mo  Mo9       1.0  0.02360  0.24900  0.49800  1.0000
  Mo  Mo10      1.0  0.47400  0.24900  0.49800  1.0000
  Mo  Mo11      1.0  0.01810  0.75400  0.50700  1.0000
  Mo  Mo12      1.0  0.48900  0.75400  0.50700  1.0000
  Mo  Mo13      1.0  0.32700  0.08130  0.65500  1.0000
  Mo  Mo14      1.0  0.32700  0.57300  0.65500  1.0000
  Mo  Mo15      1.0  0.15000  0.92600  0.85200  1.0000
  Mo  Mo16      1.0  0.70200  0.92600  0.85200  1.0000
  O   O1        1.0  0.25600  0.50200  0.00317  1.0000
  O   O2        1.0  0.74700  0.50200  0.00317  1.0000
  O   O3        1.0  0.58100  0.32800  0.16100  1.0000
  O   O4        1.0  0.58100  0.83300  0.16100  1.0000
  O   O5        1.0  0.08780  0.33700  0.17600  1.0000
  O   O6        1.0  0.08780  0.83800  0.17600  1.0000
  O   O7        1.0  0.39700  0.16500  0.33100  1.0000
  O   O8        1.0  0.93400  0.16500  0.33100  1.0000
  O   O9        1.0  0.43800  0.67300  0.34500  1.0000
  O   O10       1.0  0.90800  0.67300  0.34500  1.0000
  O   O11       1.0  0.75200  0.00581  0.50300  1.0000
  O   O12       1.0  0.75200  0.49700  0.50300  1.0000
  O   O13       1.0  0.08300  0.33100  0.66100  1.0000
  O   O14       1.0  0.57800  0.33100  0.66100  1.0000
  O   O15       1.0  0.08830  0.83800  0.67600  1.0000
  O   O16       1.0  0.58700  0.83800  0.67600  1.0000
  O   O17       1.0  0.41500  0.14700  0.83100  1.0000
  O   O18       1.0  0.41500  0.68400  0.83100  1.0000
  O   O19       1.0  0.92300  0.18800  0.84500  1.0000
  O   O20       1.0  0.92300  0.65800  0.84500  1.0000
