data_image0
_chemical_formula_structural       Fe12Ge10Li2
_chemical_formula_sum              "Fe12 Ge10 Li2"
_cell_length_a       5.00983
_cell_length_b       5.00823
_cell_length_c       14.7648
_cell_angle_alpha    99.754
_cell_angle_beta     99.7678
_cell_angle_gamma    59.9894

_space_group_name_H-M_alt    "P 1"
_space_group_IT_number       1

loop_
  _space_group_symop_operation_xyz
  'x, y, z'

loop_
  _atom_site_type_symbol
  _atom_site_label
  _atom_site_symmetry_multiplicity
  _atom_site_fract_x
  _atom_site_fract_y
  _atom_site_fract_z
  _atom_site_occupancy
  Fe  Fe1       1.0  0.04600  0.54600  0.13900  1.0000
  Fe  Fe2       1.0  0.54700  0.54600  0.13900  1.0000
  Fe  Fe3       1.0  0.54700  0.04530  0.13900  1.0000
  Fe  Fe4       1.0  0.14500  0.63800  0.41700  1.0000
  Fe  Fe5       1.0  0.63400  0.63800  0.41700  1.0000
  Fe  Fe6       1.0  0.63500  0.14800  0.41800  1.0000
  Fe  Fe7       1.0  0.36500  0.85200  0.58200  1.0000
  Fe  Fe8       1.0  0.36600  0.36200  0.58300  1.0000
  Fe  Fe9       1.0  0.85500  0.36200  0.58300  1.0000
  Fe  Fe10      1.0  0.45300  0.95500  0.86100  1.0000
  Fe  Fe11      1.0  0.45300  0.45400  0.86100  1.0000
  Fe  Fe12      1.0  0.95400  0.45400  0.86100  1.0000
  Ge  Ge1       1.0  0.66700  0.66700  0.00000  1.0000
  Ge  Ge2       1.0  0.33300  0.33300  0.00009  1.0000
  Ge  Ge3       1.0  0.02940  0.02960  0.08850  1.0000
  Ge  Ge4       1.0  0.42600  0.42500  0.27600  1.0000
  Ge  Ge5       1.0  0.75900  0.75900  0.27800  1.0000
  Ge  Ge6       1.0  0.14600  0.15000  0.44300  1.0000
  Ge  Ge7       1.0  0.85400  0.85000  0.55700  1.0000
  Ge  Ge8       1.0  0.24100  0.24100  0.72200  1.0000
  Ge  Ge9       1.0  0.57400  0.57500  0.72400  1.0000
  Ge  Ge10      1.0  0.97100  0.97000  0.91200  1.0000
  Li  Li1       1.0  0.09090  0.08130  0.26300  1.0000
  Li  Li2       1.0  0.90900  0.91900  0.73700  1.0000
