data_image0
_chemical_formula_structural       Ga8Li24N16
_chemical_formula_sum              "Ga8 Li24 N16"
_cell_length_a       8.31108
_cell_length_b       8.31108
_cell_length_c       8.31108
_cell_angle_alpha    109.471
_cell_angle_beta     109.471
_cell_angle_gamma    109.471

_space_group_name_H-M_alt    "P 1"
_space_group_IT_number       1

loop_
  _space_group_symop_operation_xyz
  'x, y, z'

loop_
  _atom_site_type_symbol
  _atom_site_label
  _atom_site_symmetry_multiplicity
  _atom_site_fract_x
  _atom_site_fract_y
  _atom_site_fract_z
  _atom_site_occupancy
  Ga  Ga1       1.0  0.26300  0.50000  0.00000  1.0000
  Ga  Ga2       1.0  0.73700  0.50000  0.00000  1.0000
  Ga  Ga3       1.0  0.23700  0.23700  0.23700  1.0000
  Ga  Ga4       1.0  0.50000  0.00000  0.26300  1.0000
  Ga  Ga5       1.0  1.00000  0.26300  0.50000  1.0000
  Ga  Ga6       1.0  0.00000  0.73700  0.50000  1.0000
  Ga  Ga7       1.0  0.50000  0.00000  0.73700  1.0000
  Ga  Ga8       1.0  0.76300  0.76300  0.76300  1.0000
  Li  Li1       1.0  0.53100  0.76800  0.00660  1.0000
  Li  Li2       1.0  0.76300  0.03140  0.02480  1.0000
  Li  Li3       1.0  0.02480  0.76300  0.03140  1.0000
  Li  Li4       1.0  0.99300  0.46900  0.23200  1.0000
  Li  Li5       1.0  0.96900  0.97500  0.23700  1.0000
  Li  Li6       1.0  0.73200  0.26300  0.23900  1.0000
  Li  Li7       1.0  0.52500  0.49300  0.26100  1.0000
  Li  Li8       1.0  0.23900  0.73200  0.26300  1.0000
  Li  Li9       1.0  0.73700  0.76100  0.26800  1.0000
  Li  Li10      1.0  0.23200  0.99300  0.46900  1.0000
  Li  Li11      1.0  0.50700  0.73900  0.47500  1.0000
  Li  Li12      1.0  0.26100  0.52500  0.49300  1.0000
  Li  Li13      1.0  0.73900  0.47500  0.50700  1.0000
  Li  Li14      1.0  0.49300  0.26100  0.52500  1.0000
  Li  Li15      1.0  0.76800  0.00660  0.53100  1.0000
  Li  Li16      1.0  0.26300  0.23900  0.73200  1.0000
  Li  Li17      1.0  0.76100  0.26800  0.73700  1.0000
  Li  Li18      1.0  0.47500  0.50700  0.73900  1.0000
  Li  Li19      1.0  0.26800  0.73700  0.76100  1.0000
  Li  Li20      1.0  0.03140  0.02480  0.76300  1.0000
  Li  Li21      1.0  0.00660  0.53100  0.76800  1.0000
  Li  Li22      1.0  0.97500  0.23700  0.96900  1.0000
  Li  Li23      1.0  0.23700  0.96900  0.97500  1.0000
  Li  Li24      1.0  0.46900  0.23200  0.99300  1.0000
  N   N1        1.0  0.00000  0.00000  0.00000  1.0000
  N   N2        1.0  0.50000  0.50000  0.00000  1.0000
  N   N3        1.0  0.27100  0.75000  0.02140  1.0000
  N   N4        1.0  0.25000  0.47900  0.22900  1.0000
  N   N5        1.0  0.47900  0.22900  0.25000  1.0000
  N   N6        1.0  0.97900  0.72900  0.25000  1.0000
  N   N7        1.0  0.75000  0.02140  0.27100  1.0000
  N   N8        1.0  0.22900  0.25000  0.47900  1.0000
  N   N9        1.0  0.50000  0.00000  0.50000  1.0000
  N   N10       1.0  0.00000  0.50000  0.50000  1.0000
  N   N11       1.0  0.77100  0.75000  0.52100  1.0000
  N   N12       1.0  0.25000  0.97900  0.72900  1.0000
  N   N13       1.0  0.02140  0.27100  0.75000  1.0000
  N   N14       1.0  0.52100  0.77100  0.75000  1.0000
  N   N15       1.0  0.75000  0.52100  0.77100  1.0000
  N   N16       1.0  0.72900  0.25000  0.97900  1.0000
