data_image0
_chemical_formula_structural       Li20O18Zn8
_chemical_formula_sum              "Li20 O18 Zn8"
_cell_length_a       9.70843
_cell_length_b       9.70843
_cell_length_c       4.64264
_cell_angle_alpha    90
_cell_angle_beta     90
_cell_angle_gamma    90

_space_group_name_H-M_alt    "P 1"
_space_group_IT_number       1

loop_
  _space_group_symop_operation_xyz
  'x, y, z'

loop_
  _atom_site_type_symbol
  _atom_site_label
  _atom_site_symmetry_multiplicity
  _atom_site_fract_x
  _atom_site_fract_y
  _atom_site_fract_z
  _atom_site_occupancy
  Li  Li1       1.0  0.60600  0.56300  0.03820  1.0000
  Li  Li2       1.0  0.89400  0.56300  0.03820  1.0000
  Li  Li3       1.0  0.60600  0.93700  0.03820  1.0000
  Li  Li4       1.0  0.89400  0.93700  0.03820  1.0000
  Li  Li5       1.0  0.75000  0.75000  0.07680  1.0000
  Li  Li6       1.0  0.25000  0.25000  0.42300  1.0000
  Li  Li7       1.0  0.06290  0.10600  0.46200  1.0000
  Li  Li8       1.0  0.43700  0.10600  0.46200  1.0000
  Li  Li9       1.0  0.06290  0.39400  0.46200  1.0000
  Li  Li10      1.0  0.43700  0.39400  0.46200  1.0000
  Li  Li11      1.0  0.56300  0.60600  0.53800  1.0000
  Li  Li12      1.0  0.93700  0.60600  0.53800  1.0000
  Li  Li13      1.0  0.56300  0.89400  0.53800  1.0000
  Li  Li14      1.0  0.93700  0.89400  0.53800  1.0000
  Li  Li15      1.0  0.75000  0.75000  0.57700  1.0000
  Li  Li16      1.0  0.25000  0.25000  0.92300  1.0000
  Li  Li17      1.0  0.10600  0.06290  0.96200  1.0000
  Li  Li18      1.0  0.39400  0.06290  0.96200  1.0000
  Li  Li19      1.0  0.10600  0.43700  0.96200  1.0000
  Li  Li20      1.0  0.39400  0.43700  0.96200  1.0000
  O   O1        1.0  0.09280  0.25000  0.18200  1.0000
  O   O2        1.0  0.40700  0.25000  0.18200  1.0000
  O   O3        1.0  0.75000  0.25000  0.25000  1.0000
  O   O4        1.0  0.07600  0.57600  0.25000  1.0000
  O   O5        1.0  0.42400  0.57600  0.25000  1.0000
  O   O6        1.0  0.07600  0.92400  0.25000  1.0000
  O   O7        1.0  0.42400  0.92400  0.25000  1.0000
  O   O8        1.0  0.75000  0.59300  0.31800  1.0000
  O   O9        1.0  0.75000  0.90700  0.31800  1.0000
  O   O10       1.0  0.25000  0.09280  0.68200  1.0000
  O   O11       1.0  0.25000  0.40700  0.68200  1.0000
  O   O12       1.0  0.57600  0.07600  0.75000  1.0000
  O   O13       1.0  0.92400  0.07600  0.75000  1.0000
  O   O14       1.0  0.57600  0.42400  0.75000  1.0000
  O   O15       1.0  0.92400  0.42400  0.75000  1.0000
  O   O16       1.0  0.25000  0.75000  0.75000  1.0000
  O   O17       1.0  0.59300  0.75000  0.81800  1.0000
  O   O18       1.0  0.90700  0.75000  0.81800  1.0000
  Zn  Zn1       1.0  0.08820  0.75000  0.01840  1.0000
  Zn  Zn2       1.0  0.41200  0.75000  0.01840  1.0000
  Zn  Zn3       1.0  0.25000  0.58800  0.48200  1.0000
  Zn  Zn4       1.0  0.25000  0.91200  0.48200  1.0000
  Zn  Zn5       1.0  0.75000  0.08820  0.51800  1.0000
  Zn  Zn6       1.0  0.75000  0.41200  0.51800  1.0000
  Zn  Zn7       1.0  0.58800  0.25000  0.98200  1.0000
  Zn  Zn8       1.0  0.91200  0.25000  0.98200  1.0000
