data_image0
_chemical_formula_structural       La2Rh2
_chemical_formula_sum              "La2 Rh2"
_cell_length_a       3.98055
_cell_length_b       4.22353
_cell_length_c       5.96838
_cell_angle_alpha    90
_cell_angle_beta     70.5205
_cell_angle_gamma    90

_space_group_name_H-M_alt    "P 1"
_space_group_IT_number       1

loop_
  _space_group_symop_operation_xyz
  'x, y, z'

loop_
  _atom_site_type_symbol
  _atom_site_label
  _atom_site_symmetry_multiplicity
  _atom_site_fract_x
  _atom_site_fract_y
  _atom_site_fract_z
  _atom_site_occupancy
  La  La1       1.0  0.86100  0.25000  0.27800  1.0000
  La  La2       1.0  0.13900  0.75000  0.72200  1.0000
  Rh  Rh1       1.0  0.41000  0.75000  0.18000  1.0000
  Rh  Rh2       1.0  0.59000  0.25000  0.82000  1.0000
