data_image0
_chemical_formula_structural       Ga20Li4O32
_chemical_formula_sum              "Ga20 Li4 O32"
_cell_length_a       8.22659
_cell_length_b       8.22659
_cell_length_c       8.22659
_cell_angle_alpha    90
_cell_angle_beta     90
_cell_angle_gamma    90

_space_group_name_H-M_alt    "P 1"
_space_group_IT_number       1

loop_
  _space_group_symop_operation_xyz
  'x, y, z'

loop_
  _atom_site_type_symbol
  _atom_site_label
  _atom_site_symmetry_multiplicity
  _atom_site_fract_x
  _atom_site_fract_y
  _atom_site_fract_z
  _atom_site_occupancy
  Ga  Ga1       1.0  0.99600  0.99600  0.99600  1.0000
  Ga  Ga2       1.0  0.49600  0.50400  0.00363  1.0000
  Ga  Ga3       1.0  0.62500  0.13500  0.11500  1.0000
  Ga  Ga4       1.0  0.36500  0.88500  0.12500  1.0000
  Ga  Ga5       1.0  0.11500  0.62500  0.13500  1.0000
  Ga  Ga6       1.0  0.74600  0.75400  0.24600  1.0000
  Ga  Ga7       1.0  0.25400  0.25400  0.25400  1.0000
  Ga  Ga8       1.0  0.88500  0.12500  0.36500  1.0000
  Ga  Ga9       1.0  0.63500  0.38500  0.37500  1.0000
  Ga  Ga10      1.0  0.37500  0.63500  0.38500  1.0000
  Ga  Ga11      1.0  0.50400  0.00363  0.49600  1.0000
  Ga  Ga12      1.0  0.00363  0.49600  0.50400  1.0000
  Ga  Ga13      1.0  0.87500  0.86500  0.61500  1.0000
  Ga  Ga14      1.0  0.13500  0.11500  0.62500  1.0000
  Ga  Ga15      1.0  0.38500  0.37500  0.63500  1.0000
  Ga  Ga16      1.0  0.75400  0.24600  0.74600  1.0000
  Ga  Ga17      1.0  0.24600  0.74600  0.75400  1.0000
  Ga  Ga18      1.0  0.61500  0.87500  0.86500  1.0000
  Ga  Ga19      1.0  0.86500  0.61500  0.87500  1.0000
  Ga  Ga20      1.0  0.12500  0.36500  0.88500  1.0000
  Li  Li1       1.0  0.87500  0.37500  0.12500  1.0000
  Li  Li2       1.0  0.12500  0.87500  0.37500  1.0000
  Li  Li3       1.0  0.62500  0.62500  0.62500  1.0000
  Li  Li4       1.0  0.37500  0.12500  0.87500  1.0000
  O   O1        1.0  0.61300  0.88700  0.11300  1.0000
  O   O2        1.0  0.88000  0.62600  0.11600  1.0000
  O   O3        1.0  0.12600  0.38400  0.12000  1.0000
  O   O4        1.0  0.13000  0.86600  0.12400  1.0000
  O   O5        1.0  0.38400  0.12000  0.12600  1.0000
  O   O6        1.0  0.86600  0.12400  0.13000  1.0000
  O   O7        1.0  0.62400  0.37000  0.13400  1.0000
  O   O8        1.0  0.36300  0.63700  0.13700  1.0000
  O   O9        1.0  0.63700  0.13700  0.36300  1.0000
  O   O10       1.0  0.37600  0.87000  0.36600  1.0000
  O   O11       1.0  0.13400  0.62400  0.37000  1.0000
  O   O12       1.0  0.61600  0.62000  0.37400  1.0000
  O   O13       1.0  0.87000  0.36600  0.37600  1.0000
  O   O14       1.0  0.87400  0.88400  0.38000  1.0000
  O   O15       1.0  0.12000  0.12600  0.38400  1.0000
  O   O16       1.0  0.38700  0.38700  0.38700  1.0000
  O   O17       1.0  0.88700  0.11300  0.61300  1.0000
  O   O18       1.0  0.62000  0.37400  0.61600  1.0000
  O   O19       1.0  0.37400  0.61600  0.62000  1.0000
  O   O20       1.0  0.37000  0.13400  0.62400  1.0000
  O   O21       1.0  0.11600  0.88000  0.62600  1.0000
  O   O22       1.0  0.63400  0.87600  0.63000  1.0000
  O   O23       1.0  0.87600  0.63000  0.63400  1.0000
  O   O24       1.0  0.13700  0.36300  0.63700  1.0000
  O   O25       1.0  0.86300  0.86300  0.86300  1.0000
  O   O26       1.0  0.12400  0.13000  0.86600  1.0000
  O   O27       1.0  0.36600  0.37600  0.87000  1.0000
  O   O28       1.0  0.88400  0.38000  0.87400  1.0000
  O   O29       1.0  0.63000  0.63400  0.87600  1.0000
  O   O30       1.0  0.62600  0.11600  0.88000  1.0000
  O   O31       1.0  0.38000  0.87400  0.88400  1.0000
  O   O32       1.0  0.11300  0.61300  0.88700  1.0000
