data_image0
_chemical_formula_structural       Al8Li39O32
_chemical_formula_sum              "Al8 Li39 O32"
_cell_length_a       8.99022
_cell_length_b       8.89155
_cell_length_c       9.04845
_cell_angle_alpha    89.8155
_cell_angle_beta     89.9913
_cell_angle_gamma    90.0488

_space_group_name_H-M_alt    "P 1"
_space_group_IT_number       1

loop_
  _space_group_symop_operation_xyz
  'x, y, z'

loop_
  _atom_site_type_symbol
  _atom_site_label
  _atom_site_symmetry_multiplicity
  _atom_site_fract_x
  _atom_site_fract_y
  _atom_site_fract_z
  _atom_site_occupancy
  Al  Al1       1.0  0.14500  0.11700  0.12300  1.0000
  Al  Al2       1.0  0.35600  0.61600  0.12300  1.0000
  Al  Al3       1.0  0.64600  0.11500  0.37500  1.0000
  Al  Al4       1.0  0.85600  0.61600  0.37700  1.0000
  Al  Al5       1.0  0.35700  0.88900  0.62200  1.0000
  Al  Al6       1.0  0.14400  0.38400  0.62400  1.0000
  Al  Al7       1.0  0.85700  0.88400  0.87600  1.0000
  Al  Al8       1.0  0.64400  0.38500  0.87700  1.0000
  Li  Li1       1.0  0.61200  0.13600  0.10000  1.0000
  Li  Li2       1.0  0.88700  0.63900  0.10200  1.0000
  Li  Li3       1.0  0.10600  0.83200  0.11900  1.0000
  Li  Li4       1.0  0.85400  0.36800  0.11900  1.0000
  Li  Li5       1.0  0.64600  0.86800  0.11900  1.0000
  Li  Li6       1.0  0.39500  0.33000  0.12200  1.0000
  Li  Li7       1.0  0.87300  0.09690  0.14200  1.0000
  Li  Li8       1.0  0.62800  0.59800  0.14300  1.0000
  Li  Li9       1.0  0.12000  0.39700  0.16200  1.0000
  Li  Li10      1.0  0.37900  0.89900  0.16200  1.0000
  Li  Li11      1.0  0.88100  0.89700  0.34000  1.0000
  Li  Li12      1.0  0.62100  0.40000  0.34100  1.0000
  Li  Li13      1.0  0.12800  0.59700  0.35700  1.0000
  Li  Li14      1.0  0.37300  0.10000  0.37000  1.0000
  Li  Li15      1.0  0.14400  0.86500  0.37700  1.0000
  Li  Li16      1.0  0.60600  0.83200  0.37900  1.0000
  Li  Li17      1.0  0.89500  0.33300  0.37900  1.0000
  Li  Li18      1.0  0.35400  0.36600  0.38500  1.0000
  Li  Li19      1.0  0.11100  0.13500  0.39900  1.0000
  Li  Li20      1.0  0.38700  0.63900  0.39900  1.0000
  Li  Li21      1.0  0.89000  0.86200  0.60200  1.0000
  Li  Li22      1.0  0.60000  0.35300  0.60600  1.0000
  Li  Li23      1.0  0.10800  0.67000  0.61900  1.0000
  Li  Li24      1.0  0.64700  0.63000  0.61900  1.0000
  Li  Li25      1.0  0.85600  0.13300  0.62000  1.0000
  Li  Li26      1.0  0.86900  0.40200  0.64300  1.0000
  Li  Li27      1.0  0.63000  0.90100  0.64300  1.0000
  Li  Li28      1.0  0.12600  0.10300  0.65900  1.0000
  Li  Li29      1.0  0.38100  0.60600  0.66100  1.0000
  Li  Li30      1.0  0.62000  0.10400  0.83900  1.0000
  Li  Li31      1.0  0.88000  0.60300  0.84100  1.0000
  Li  Li32      1.0  0.12800  0.90300  0.85500  1.0000
  Li  Li33      1.0  0.37000  0.40000  0.85600  1.0000
  Li  Li34      1.0  0.35500  0.13300  0.86600  1.0000
  Li  Li35      1.0  0.60500  0.66900  0.87800  1.0000
  Li  Li36      1.0  0.89600  0.16800  0.87800  1.0000
  Li  Li37      1.0  0.14700  0.63400  0.87900  1.0000
  Li  Li38      1.0  0.38500  0.86100  0.90100  1.0000
  Li  Li39      1.0  0.10900  0.36700  0.90200  1.0000
  O   O1        1.0  0.24900  0.99500  0.00944  1.0000
  O   O2        1.0  0.25000  0.49500  0.01140  1.0000
  O   O3        1.0  0.48700  0.73900  0.03850  1.0000
  O   O4        1.0  0.01320  0.24000  0.03890  1.0000
  O   O5        1.0  0.03550  0.99900  0.24000  1.0000
  O   O6        1.0  0.25100  0.73200  0.24300  1.0000
  O   O7        1.0  0.46400  0.50000  0.24400  1.0000
  O   O8        1.0  0.24700  0.23200  0.24600  1.0000
  O   O9        1.0  0.74900  0.23200  0.25400  1.0000
  O   O10       1.0  0.75300  0.73300  0.25500  1.0000
  O   O11       1.0  0.96400  0.50000  0.25700  1.0000
  O   O12       1.0  0.53600  0.99900  0.25700  1.0000
  O   O13       1.0  0.51800  0.24100  0.45400  1.0000
  O   O14       1.0  0.98600  0.73800  0.46200  1.0000
  O   O15       1.0  0.75100  0.99400  0.48900  1.0000
  O   O16       1.0  0.75100  0.49300  0.48900  1.0000
  O   O17       1.0  0.24300  0.99800  0.50800  1.0000
  O   O18       1.0  0.24900  0.50700  0.51300  1.0000
  O   O19       1.0  0.01400  0.26200  0.53600  1.0000
  O   O20       1.0  0.48700  0.76300  0.53700  1.0000
  O   O21       1.0  0.03460  0.50200  0.74200  1.0000
  O   O22       1.0  0.25400  0.76900  0.74500  1.0000
  O   O23       1.0  0.46900  0.99200  0.74800  1.0000
  O   O24       1.0  0.23600  0.27000  0.75400  1.0000
  O   O25       1.0  0.75400  0.76600  0.75500  1.0000
  O   O26       1.0  0.74800  0.26800  0.75600  1.0000
  O   O27       1.0  0.96500  0.00074  0.75700  1.0000
  O   O28       1.0  0.53500  0.50100  0.75800  1.0000
  O   O29       1.0  0.51300  0.26100  0.96200  1.0000
  O   O30       1.0  0.98700  0.76100  0.96200  1.0000
  O   O31       1.0  0.75200  0.00578  0.98900  1.0000
  O   O32       1.0  0.74900  0.50700  0.98900  1.0000
