data_image0
_chemical_formula_structural       Li8Mo6O16
_chemical_formula_sum              "Li8 Mo6 O16"
_cell_length_a       5.73749
_cell_length_b       5.73717
_cell_length_c       11.0076
_cell_angle_alpha    105.105
_cell_angle_beta     105.107
_cell_angle_gamma    59.9982

_space_group_name_H-M_alt    "P 1"
_space_group_IT_number       1

loop_
  _space_group_symop_operation_xyz
  'x, y, z'

loop_
  _atom_site_type_symbol
  _atom_site_label
  _atom_site_symmetry_multiplicity
  _atom_site_fract_x
  _atom_site_fract_y
  _atom_site_fract_z
  _atom_site_occupancy
  Li  Li1       1.0  0.00000  0.00000  0.00000  1.0000
  Li  Li2       1.0  0.68500  0.68500  0.05490  1.0000
  Li  Li3       1.0  0.75400  0.75400  0.26300  1.0000
  Li  Li4       1.0  0.82600  0.82600  0.47700  1.0000
  Li  Li5       1.0  0.50000  0.50000  0.50000  1.0000
  Li  Li6       1.0  0.17400  0.17400  0.52300  1.0000
  Li  Li7       1.0  0.24600  0.24600  0.73700  1.0000
  Li  Li8       1.0  0.31500  0.31500  0.94500  1.0000
  Mo  Mo1       1.0  0.71500  0.26800  0.25000  1.0000
  Mo  Mo2       1.0  0.26800  0.26800  0.25000  1.0000
  Mo  Mo3       1.0  0.26800  0.71500  0.25000  1.0000
  Mo  Mo4       1.0  0.73200  0.28500  0.75000  1.0000
  Mo  Mo5       1.0  0.28500  0.73200  0.75000  1.0000
  Mo  Mo6       1.0  0.73200  0.73200  0.75000  1.0000
  O   O1        1.0  0.37200  0.37200  0.11500  1.0000
  O   O2        1.0  0.88600  0.88600  0.14900  1.0000
  O   O3        1.0  0.37700  0.88600  0.14900  1.0000
  O   O4        1.0  0.88600  0.37700  0.14900  1.0000
  O   O5        1.0  0.11600  0.11600  0.34900  1.0000
  O   O6        1.0  0.62200  0.12800  0.37100  1.0000
  O   O7        1.0  0.12800  0.62200  0.37100  1.0000
  O   O8        1.0  0.62200  0.62200  0.37100  1.0000
  O   O9        1.0  0.37800  0.37800  0.62900  1.0000
  O   O10       1.0  0.87200  0.37800  0.62900  1.0000
  O   O11       1.0  0.37800  0.87200  0.62900  1.0000
  O   O12       1.0  0.88400  0.88400  0.65100  1.0000
  O   O13       1.0  0.11400  0.62300  0.85100  1.0000
  O   O14       1.0  0.62300  0.11400  0.85100  1.0000
  O   O15       1.0  0.11400  0.11400  0.85100  1.0000
  O   O16       1.0  0.62800  0.62800  0.88500  1.0000
