data_image0
_chemical_formula_structural       Li8O28Si12
_chemical_formula_sum              "Li8 O28 Si12"
_cell_length_a       19.6742
_cell_length_b       5.95501
_cell_length_c       4.83199
_cell_angle_alpha    90
_cell_angle_beta     90
_cell_angle_gamma    90

_space_group_name_H-M_alt    "P 1"
_space_group_IT_number       1

loop_
  _space_group_symop_operation_xyz
  'x, y, z'

loop_
  _atom_site_type_symbol
  _atom_site_label
  _atom_site_symmetry_multiplicity
  _atom_site_fract_x
  _atom_site_fract_y
  _atom_site_fract_z
  _atom_site_occupancy
  Li  Li1       1.0  0.04390  0.35400  0.05680  1.0000
  Li  Li2       1.0  0.45600  0.35400  0.05680  1.0000
  Li  Li3       1.0  0.54400  0.35400  0.44300  1.0000
  Li  Li4       1.0  0.95600  0.35400  0.44300  1.0000
  Li  Li5       1.0  0.04390  0.64600  0.55700  1.0000
  Li  Li6       1.0  0.45600  0.64600  0.55700  1.0000
  Li  Li7       1.0  0.54400  0.64600  0.94300  1.0000
  Li  Li8       1.0  0.95600  0.64600  0.94300  1.0000
  O   O1        1.0  0.18400  0.80000  0.00525  1.0000
  O   O2        1.0  0.31600  0.80000  0.00525  1.0000
  O   O3        1.0  0.55500  0.34000  0.04730  1.0000
  O   O4        1.0  0.94500  0.34000  0.04730  1.0000
  O   O5        1.0  0.75000  0.58500  0.09140  1.0000
  O   O6        1.0  0.59000  0.90700  0.11300  1.0000
  O   O7        1.0  0.91000  0.90700  0.11300  1.0000
  O   O8        1.0  0.09050  0.90700  0.38700  1.0000
  O   O9        1.0  0.41000  0.90700  0.38700  1.0000
  O   O10       1.0  0.25000  0.58500  0.40900  1.0000
  O   O11       1.0  0.05490  0.34000  0.45300  1.0000
  O   O12       1.0  0.44500  0.34000  0.45300  1.0000
  O   O13       1.0  0.68400  0.80000  0.49500  1.0000
  O   O14       1.0  0.81600  0.80000  0.49500  1.0000
  O   O15       1.0  0.18400  0.20000  0.50500  1.0000
  O   O16       1.0  0.31600  0.20000  0.50500  1.0000
  O   O17       1.0  0.55500  0.66000  0.54700  1.0000
  O   O18       1.0  0.94500  0.66000  0.54700  1.0000
  O   O19       1.0  0.75000  0.41500  0.59100  1.0000
  O   O20       1.0  0.59000  0.09300  0.61300  1.0000
  O   O21       1.0  0.91000  0.09300  0.61300  1.0000
  O   O22       1.0  0.09050  0.09300  0.88700  1.0000
  O   O23       1.0  0.41000  0.09300  0.88700  1.0000
  O   O24       1.0  0.25000  0.41500  0.90900  1.0000
  O   O25       1.0  0.05490  0.66000  0.95300  1.0000
  O   O26       1.0  0.44500  0.66000  0.95300  1.0000
  O   O27       1.0  0.68400  0.20000  0.99500  1.0000
  O   O28       1.0  0.81600  0.20000  0.99500  1.0000
  Si  Si1       1.0  0.10400  0.85300  0.05470  1.0000
  Si  Si2       1.0  0.39600  0.85300  0.05470  1.0000
  Si  Si3       1.0  0.25000  0.65100  0.08180  1.0000
  Si  Si4       1.0  0.75000  0.65100  0.41800  1.0000
  Si  Si5       1.0  0.60400  0.85300  0.44500  1.0000
  Si  Si6       1.0  0.89600  0.85300  0.44500  1.0000
  Si  Si7       1.0  0.10400  0.14700  0.55500  1.0000
  Si  Si8       1.0  0.39600  0.14700  0.55500  1.0000
  Si  Si9       1.0  0.25000  0.34900  0.58200  1.0000
  Si  Si10      1.0  0.75000  0.34900  0.91800  1.0000
  Si  Si11      1.0  0.60400  0.14700  0.94500  1.0000
  Si  Si12      1.0  0.89600  0.14700  0.94500  1.0000
