data_image0
_chemical_formula_structural       Ce2Ga2
_chemical_formula_sum              "Ce2 Ga2"
_cell_length_a       4.21446
_cell_length_b       4.52579
_cell_length_c       6.19562
_cell_angle_alpha    68.5776
_cell_angle_beta     90
_cell_angle_gamma    90

_space_group_name_H-M_alt    "P 1"
_space_group_IT_number       1

loop_
  _space_group_symop_operation_xyz
  'x, y, z'

loop_
  _atom_site_type_symbol
  _atom_site_label
  _atom_site_symmetry_multiplicity
  _atom_site_fract_x
  _atom_site_fract_y
  _atom_site_fract_z
  _atom_site_occupancy
  Ce  Ce1       1.0  0.25000  0.85800  0.28400  1.0000
  Ce  Ce2       1.0  0.75000  0.14200  0.71600  1.0000
  Ga  Ga1       1.0  0.75000  0.43100  0.13800  1.0000
  Ga  Ga2       1.0  0.25000  0.56900  0.86200  1.0000
