data_image0
_chemical_formula_structural       Cd2K4Pb2
_chemical_formula_sum              "Cd2 K4 Pb2"
_cell_length_a       6.53216
_cell_length_b       7.011
_cell_length_c       7.011
_cell_angle_alpha    103.962
_cell_angle_beta     90
_cell_angle_gamma    90

_space_group_name_H-M_alt    "P 1"
_space_group_IT_number       1

loop_
  _space_group_symop_operation_xyz
  'x, y, z'

loop_
  _atom_site_type_symbol
  _atom_site_label
  _atom_site_symmetry_multiplicity
  _atom_site_fract_x
  _atom_site_fract_y
  _atom_site_fract_z
  _atom_site_occupancy
  Cd  Cd1       1.0  0.00000  0.50800  0.49200  1.0000
  Cd  Cd2       1.0  0.50000  0.50800  0.49200  1.0000
  K   K1        1.0  0.25000  0.67900  0.02560  1.0000
  K   K2        1.0  0.75000  0.97400  0.32100  1.0000
  K   K3        1.0  0.25000  0.03450  0.67200  1.0000
  K   K4        1.0  0.75000  0.32800  0.96600  1.0000
  Pb  Pb1       1.0  0.25000  0.22600  0.21700  1.0000
  Pb  Pb2       1.0  0.75000  0.78300  0.77400  1.0000
