data_image0
_chemical_formula_structural       Li8O16V6
_chemical_formula_sum              "Li8 O16 V6"
_cell_length_a       6.15638
_cell_length_b       3.92916
_cell_length_c       12.1808
_cell_angle_alpha    90
_cell_angle_beta     108.735
_cell_angle_gamma    90

_space_group_name_H-M_alt    "P 1"
_space_group_IT_number       1

loop_
  _space_group_symop_operation_xyz
  'x, y, z'

loop_
  _atom_site_type_symbol
  _atom_site_label
  _atom_site_symmetry_multiplicity
  _atom_site_fract_x
  _atom_site_fract_y
  _atom_site_fract_z
  _atom_site_occupancy
  Li  Li1       1.0  0.62900  0.25000  0.06170  1.0000
  Li  Li2       1.0  0.75500  0.25000  0.30300  1.0000
  Li  Li3       1.0  0.31000  0.25000  0.31700  1.0000
  Li  Li4       1.0  0.59200  0.75000  0.40100  1.0000
  Li  Li5       1.0  0.40800  0.25000  0.59900  1.0000
  Li  Li6       1.0  0.69000  0.75000  0.68300  1.0000
  Li  Li7       1.0  0.24500  0.75000  0.69700  1.0000
  Li  Li8       1.0  0.37100  0.75000  0.93800  1.0000
  O   O1        1.0  0.69000  0.75000  0.05590  1.0000
  O   O2        1.0  0.12300  0.75000  0.06370  1.0000
  O   O3        1.0  0.98600  0.25000  0.18100  1.0000
  O   O4        1.0  0.45300  0.25000  0.18200  1.0000
  O   O5        1.0  0.82900  0.75000  0.30900  1.0000
  O   O6        1.0  0.25000  0.75000  0.32100  1.0000
  O   O7        1.0  0.61700  0.25000  0.43400  1.0000
  O   O8        1.0  0.08530  0.25000  0.45200  1.0000
  O   O9        1.0  0.91500  0.75000  0.54800  1.0000
  O   O10       1.0  0.38300  0.75000  0.56600  1.0000
  O   O11       1.0  0.75000  0.25000  0.67900  1.0000
  O   O12       1.0  0.17100  0.25000  0.69100  1.0000
  O   O13       1.0  0.54700  0.75000  0.81800  1.0000
  O   O14       1.0  0.01440  0.75000  0.81900  1.0000
  O   O15       1.0  0.87700  0.25000  0.93600  1.0000
  O   O16       1.0  0.31000  0.25000  0.94400  1.0000
  V   V1        1.0  0.19700  0.25000  0.07440  1.0000
  V   V2        1.0  0.96600  0.75000  0.19200  1.0000
  V   V3        1.0  0.12500  0.75000  0.44800  1.0000
  V   V4        1.0  0.87500  0.25000  0.55200  1.0000
  V   V5        1.0  0.03390  0.25000  0.80800  1.0000
  V   V6        1.0  0.80300  0.75000  0.92600  1.0000
