data_image0
_chemical_formula_structural       Au2K4Sb2
_chemical_formula_sum              "Au2 K4 Sb2"
_cell_length_a       6.59737
_cell_length_b       6.62184
_cell_length_c       6.62184
_cell_angle_alpha    105.937
_cell_angle_beta     90
_cell_angle_gamma    90

_space_group_name_H-M_alt    "P 1"
_space_group_IT_number       1

loop_
  _space_group_symop_operation_xyz
  'x, y, z'

loop_
  _atom_site_type_symbol
  _atom_site_label
  _atom_site_symmetry_multiplicity
  _atom_site_fract_x
  _atom_site_fract_y
  _atom_site_fract_z
  _atom_site_occupancy
  Au  Au1       1.0  0.00000  0.00000  0.00000  1.0000
  Au  Au2       1.0  0.50000  0.00000  0.00000  1.0000
  K   K1        1.0  0.75000  0.50700  0.16600  1.0000
  K   K2        1.0  0.25000  0.83400  0.49300  1.0000
  K   K3        1.0  0.75000  0.16600  0.50700  1.0000
  K   K4        1.0  0.25000  0.49300  0.83400  1.0000
  Sb  Sb1       1.0  0.25000  0.26700  0.26700  1.0000
  Sb  Sb2       1.0  0.75000  0.73300  0.73300  1.0000
