data_image0
_chemical_formula_structural       Li20Ni8O18
_chemical_formula_sum              "Li20 Ni8 O18"
_cell_length_a       9.67469
_cell_length_b       9.67478
_cell_length_c       4.63217
_cell_angle_alpha    89.9999
_cell_angle_beta     90
_cell_angle_gamma    90.0001

_space_group_name_H-M_alt    "P 1"
_space_group_IT_number       1

loop_
  _space_group_symop_operation_xyz
  'x, y, z'

loop_
  _atom_site_type_symbol
  _atom_site_label
  _atom_site_symmetry_multiplicity
  _atom_site_fract_x
  _atom_site_fract_y
  _atom_site_fract_z
  _atom_site_occupancy
  Li  Li1       1.0  0.89400  0.56300  0.04410  1.0000
  Li  Li2       1.0  0.60600  0.56300  0.04410  1.0000
  Li  Li3       1.0  0.89400  0.93700  0.04410  1.0000
  Li  Li4       1.0  0.60600  0.93700  0.04410  1.0000
  Li  Li5       1.0  0.75000  0.75000  0.09870  1.0000
  Li  Li6       1.0  0.25000  0.25000  0.40100  1.0000
  Li  Li7       1.0  0.43700  0.39400  0.45600  1.0000
  Li  Li8       1.0  0.06300  0.39400  0.45600  1.0000
  Li  Li9       1.0  0.43700  0.10600  0.45600  1.0000
  Li  Li10      1.0  0.06300  0.10600  0.45600  1.0000
  Li  Li11      1.0  0.56300  0.89400  0.54400  1.0000
  Li  Li12      1.0  0.56300  0.60600  0.54400  1.0000
  Li  Li13      1.0  0.93700  0.89400  0.54400  1.0000
  Li  Li14      1.0  0.93700  0.60600  0.54400  1.0000
  Li  Li15      1.0  0.75000  0.75000  0.59900  1.0000
  Li  Li16      1.0  0.25000  0.25000  0.90100  1.0000
  Li  Li17      1.0  0.39400  0.43700  0.95600  1.0000
  Li  Li18      1.0  0.39400  0.06300  0.95600  1.0000
  Li  Li19      1.0  0.10600  0.06300  0.95600  1.0000
  Li  Li20      1.0  0.10600  0.43700  0.95600  1.0000
  Ni  Ni1       1.0  0.41000  0.75000  0.02140  1.0000
  Ni  Ni2       1.0  0.09010  0.75000  0.02140  1.0000
  Ni  Ni3       1.0  0.25000  0.91000  0.47900  1.0000
  Ni  Ni4       1.0  0.25000  0.59000  0.47900  1.0000
  Ni  Ni5       1.0  0.75000  0.41000  0.52100  1.0000
  Ni  Ni6       1.0  0.75000  0.09010  0.52100  1.0000
  Ni  Ni7       1.0  0.91000  0.25000  0.97900  1.0000
  Ni  Ni8       1.0  0.59000  0.25000  0.97900  1.0000
  O   O1        1.0  0.40800  0.25000  0.16500  1.0000
  O   O2        1.0  0.09190  0.25000  0.16500  1.0000
  O   O3        1.0  0.42300  0.57700  0.25000  1.0000
  O   O4        1.0  0.07720  0.57700  0.25000  1.0000
  O   O5        1.0  0.42300  0.92300  0.25000  1.0000
  O   O6        1.0  0.07720  0.92300  0.25000  1.0000
  O   O7        1.0  0.75000  0.25000  0.25000  1.0000
  O   O8        1.0  0.75000  0.90800  0.33500  1.0000
  O   O9        1.0  0.75000  0.59200  0.33500  1.0000
  O   O10       1.0  0.25000  0.40800  0.66500  1.0000
  O   O11       1.0  0.25000  0.09190  0.66500  1.0000
  O   O12       1.0  0.25000  0.75000  0.75000  1.0000
  O   O13       1.0  0.57700  0.42300  0.75000  1.0000
  O   O14       1.0  0.92300  0.07720  0.75000  1.0000
  O   O15       1.0  0.57700  0.07720  0.75000  1.0000
  O   O16       1.0  0.92300  0.42300  0.75000  1.0000
  O   O17       1.0  0.90800  0.75000  0.83500  1.0000
  O   O18       1.0  0.59200  0.75000  0.83500  1.0000
