data_image0
_chemical_formula_structural       Ni4Y4
_chemical_formula_sum              "Ni4 Y4"
_cell_length_a       7.1467
_cell_length_b       4.1189
_cell_length_c       5.5071
_cell_angle_alpha    90
_cell_angle_beta     90
_cell_angle_gamma    90

_space_group_name_H-M_alt    "P 1"
_space_group_IT_number       1

loop_
  _space_group_symop_operation_xyz
  'x, y, z'

loop_
  _atom_site_type_symbol
  _atom_site_label
  _atom_site_symmetry_multiplicity
  _atom_site_fract_x
  _atom_site_fract_y
  _atom_site_fract_z
  _atom_site_occupancy
  Ni  Ni1       1.0  0.46400  0.75000  0.12300  1.0000
  Ni  Ni2       1.0  0.96400  0.75000  0.37700  1.0000
  Ni  Ni3       1.0  0.03570  0.25000  0.62300  1.0000
  Ni  Ni4       1.0  0.53600  0.25000  0.87700  1.0000
  Y   Y1        1.0  0.18000  0.25000  0.13300  1.0000
  Y   Y2        1.0  0.68000  0.25000  0.36700  1.0000
  Y   Y3        1.0  0.32000  0.75000  0.63300  1.0000
  Y   Y4        1.0  0.82000  0.75000  0.86700  1.0000
