data_image0
_chemical_formula_structural       Ge9Li4O20
_chemical_formula_sum              "Ge9 Li4 O20"
_cell_length_a       7.26922
_cell_length_b       7.26922
_cell_length_c       7.54392
_cell_angle_alpha    89.8795
_cell_angle_beta     89.8795
_cell_angle_gamma    64.9367

_space_group_name_H-M_alt    "P 1"
_space_group_IT_number       1

loop_
  _space_group_symop_operation_xyz
  'x, y, z'

loop_
  _atom_site_type_symbol
  _atom_site_label
  _atom_site_symmetry_multiplicity
  _atom_site_fract_x
  _atom_site_fract_y
  _atom_site_fract_z
  _atom_site_occupancy
  Ge  Ge1       1.0  0.59800  0.92000  0.04210  1.0000
  Ge  Ge2       1.0  0.12100  0.07730  0.23900  1.0000
  Ge  Ge3       1.0  0.34000  0.35100  0.29700  1.0000
  Ge  Ge4       1.0  0.52600  0.66700  0.33100  1.0000
  Ge  Ge5       1.0  0.77700  0.22300  0.50000  1.0000
  Ge  Ge6       1.0  0.33300  0.47400  0.66900  1.0000
  Ge  Ge7       1.0  0.64900  0.66000  0.70300  1.0000
  Ge  Ge8       1.0  0.92300  0.87900  0.76100  1.0000
  Ge  Ge9       1.0  0.07990  0.40200  0.95800  1.0000
  Li  Li1       1.0  0.71400  0.28600  0.00000  1.0000
  Li  Li2       1.0  0.34500  0.65500  0.00000  1.0000
  Li  Li3       1.0  0.94200  0.72200  0.35900  1.0000
  Li  Li4       1.0  0.27800  0.05830  0.64100  1.0000
  O   O1        1.0  0.01650  0.20500  0.03750  1.0000
  O   O2        1.0  0.42500  0.15900  0.11800  1.0000
  O   O3        1.0  0.14100  0.52100  0.13600  1.0000
  O   O4        1.0  0.30200  0.83200  0.19500  1.0000
  O   O5        1.0  0.53400  0.44800  0.21300  1.0000
  O   O6        1.0  0.69800  0.75100  0.22400  1.0000
  O   O7        1.0  0.90000  0.05360  0.32300  1.0000
  O   O8        1.0  0.19200  0.21200  0.39700  1.0000
  O   O9        1.0  0.21800  0.56400  0.45900  1.0000
  O   O10       1.0  0.76300  0.47400  0.49000  1.0000
  O   O11       1.0  0.52600  0.23700  0.51000  1.0000
  O   O12       1.0  0.43600  0.78200  0.54100  1.0000
  O   O13       1.0  0.78800  0.80800  0.60300  1.0000
  O   O14       1.0  0.94600  0.09970  0.67700  1.0000
  O   O15       1.0  0.24900  0.30200  0.77600  1.0000
  O   O16       1.0  0.55200  0.46600  0.78700  1.0000
  O   O17       1.0  0.16800  0.69800  0.80500  1.0000
  O   O18       1.0  0.47900  0.85900  0.86400  1.0000
  O   O19       1.0  0.84100  0.57500  0.88200  1.0000
  O   O20       1.0  0.79500  0.98300  0.96200  1.0000
