data_image0
_chemical_formula_structural       Ge16Li4Yb16
_chemical_formula_sum              "Ge16 Li4 Yb16"
_cell_length_a       7.23888
_cell_length_b       15.2561
_cell_length_c       7.82166
_cell_angle_alpha    90
_cell_angle_beta     90
_cell_angle_gamma    90

_space_group_name_H-M_alt    "P 1"
_space_group_IT_number       1

loop_
  _space_group_symop_operation_xyz
  'x, y, z'

loop_
  _atom_site_type_symbol
  _atom_site_label
  _atom_site_symmetry_multiplicity
  _atom_site_fract_x
  _atom_site_fract_y
  _atom_site_fract_z
  _atom_site_occupancy
  Ge  Ge1       1.0  0.65700  0.03250  0.02890  1.0000
  Ge  Ge2       1.0  0.65700  0.46800  0.02890  1.0000
  Ge  Ge3       1.0  0.02140  0.25000  0.07990  1.0000
  Ge  Ge4       1.0  0.72700  0.75000  0.13700  1.0000
  Ge  Ge5       1.0  0.22700  0.75000  0.36300  1.0000
  Ge  Ge6       1.0  0.52100  0.25000  0.42000  1.0000
  Ge  Ge7       1.0  0.15700  0.03250  0.47100  1.0000
  Ge  Ge8       1.0  0.15700  0.46800  0.47100  1.0000
  Ge  Ge9       1.0  0.84300  0.53200  0.52900  1.0000
  Ge  Ge10      1.0  0.84300  0.96800  0.52900  1.0000
  Ge  Ge11      1.0  0.47900  0.75000  0.58000  1.0000
  Ge  Ge12      1.0  0.77300  0.25000  0.63700  1.0000
  Ge  Ge13      1.0  0.27300  0.25000  0.86300  1.0000
  Ge  Ge14      1.0  0.97900  0.75000  0.92000  1.0000
  Ge  Ge15      1.0  0.34300  0.53200  0.97100  1.0000
  Ge  Ge16      1.0  0.34300  0.96800  0.97100  1.0000
  Li  Li1       1.0  0.34300  0.75000  0.02630  1.0000
  Li  Li2       1.0  0.84300  0.75000  0.47400  1.0000
  Li  Li3       1.0  0.15700  0.25000  0.52600  1.0000
  Li  Li4       1.0  0.65700  0.25000  0.97400  1.0000
  Yb  Yb1       1.0  0.01400  0.59800  0.18100  1.0000
  Yb  Yb2       1.0  0.01400  0.90200  0.18100  1.0000
  Yb  Yb3       1.0  0.32900  0.13000  0.18200  1.0000
  Yb  Yb4       1.0  0.32900  0.37000  0.18200  1.0000
  Yb  Yb5       1.0  0.82900  0.13000  0.31800  1.0000
  Yb  Yb6       1.0  0.82900  0.37000  0.31800  1.0000
  Yb  Yb7       1.0  0.51400  0.59800  0.31900  1.0000
  Yb  Yb8       1.0  0.51400  0.90200  0.31900  1.0000
  Yb  Yb9       1.0  0.48600  0.09760  0.68100  1.0000
  Yb  Yb10      1.0  0.48600  0.40200  0.68100  1.0000
  Yb  Yb11      1.0  0.17100  0.63000  0.68200  1.0000
  Yb  Yb12      1.0  0.17100  0.87000  0.68200  1.0000
  Yb  Yb13      1.0  0.67100  0.63000  0.81800  1.0000
  Yb  Yb14      1.0  0.67100  0.87000  0.81800  1.0000
  Yb  Yb15      1.0  0.98600  0.09760  0.81900  1.0000
  Yb  Yb16      1.0  0.98600  0.40200  0.81900  1.0000
