data_image0
_chemical_formula_structural       K4O4
_chemical_formula_sum              "K4 O4"
_cell_length_a       4.80983
_cell_length_b       4.80983
_cell_length_c       6.42761
_cell_angle_alpha    90
_cell_angle_beta     90
_cell_angle_gamma    87.5198

_space_group_name_H-M_alt    "P 1"
_space_group_IT_number       1

loop_
  _space_group_symop_operation_xyz
  'x, y, z'

loop_
  _atom_site_type_symbol
  _atom_site_label
  _atom_site_symmetry_multiplicity
  _atom_site_fract_x
  _atom_site_fract_y
  _atom_site_fract_z
  _atom_site_occupancy
  K   K1        1.0  0.91000  0.41000  0.25000  1.0000
  K   K2        1.0  0.41000  0.91000  0.25000  1.0000
  K   K3        1.0  0.59000  0.09010  0.75000  1.0000
  K   K4        1.0  0.09010  0.59000  0.75000  1.0000
  O   O1        1.0  0.91100  0.91100  0.06810  1.0000
  O   O2        1.0  0.41100  0.41100  0.43200  1.0000
  O   O3        1.0  0.58900  0.58900  0.56800  1.0000
  O   O4        1.0  0.08910  0.08910  0.93200  1.0000
