data_image0
_chemical_formula_structural       H20Li28N16
_chemical_formula_sum              "H20 Li28 N16"
_cell_length_a       7.04734
_cell_length_b       10.4027
_cell_length_c       7.058
_cell_angle_alpha    90
_cell_angle_beta     90
_cell_angle_gamma    90

_space_group_name_H-M_alt    "P 1"
_space_group_IT_number       1

loop_
  _space_group_symop_operation_xyz
  'x, y, z'

loop_
  _atom_site_type_symbol
  _atom_site_label
  _atom_site_symmetry_multiplicity
  _atom_site_fract_x
  _atom_site_fract_y
  _atom_site_fract_z
  _atom_site_occupancy
  H   H1        1.0  0.00296  0.70400  0.99900  1.0000
  H   H2        1.0  0.50300  0.79600  0.99900  1.0000
  H   H3        1.0  0.37300  0.23800  0.04240  1.0000
  H   H4        1.0  0.87300  0.26200  0.04240  1.0000
  H   H5        1.0  0.51800  0.20500  0.21300  1.0000
  H   H6        1.0  0.01830  0.29500  0.21300  1.0000
  H   H7        1.0  0.62700  0.02420  0.36500  1.0000
  H   H8        1.0  0.12700  0.47600  0.36500  1.0000
  H   H9        1.0  0.34800  0.04980  0.37600  1.0000
  H   H10       1.0  0.84800  0.45000  0.37600  1.0000
  H   H11       1.0  0.49700  0.20400  0.49900  1.0000
  H   H12       1.0  0.99700  0.29600  0.49900  1.0000
  H   H13       1.0  0.12700  0.73800  0.54200  1.0000
  H   H14       1.0  0.62700  0.76200  0.54200  1.0000
  H   H15       1.0  0.98200  0.70500  0.71300  1.0000
  H   H16       1.0  0.48200  0.79500  0.71300  1.0000
  H   H17       1.0  0.87300  0.52400  0.86500  1.0000
  H   H18       1.0  0.37300  0.97600  0.86500  1.0000
  H   H19       1.0  0.15200  0.55000  0.87600  1.0000
  H   H20       1.0  0.65200  0.95000  0.87600  1.0000
  Li  Li1       1.0  0.75400  0.63000  0.10000  1.0000
  Li  Li2       1.0  0.25400  0.87000  0.10000  1.0000
  Li  Li3       1.0  0.19900  0.09220  0.11300  1.0000
  Li  Li4       1.0  0.69900  0.40800  0.11300  1.0000
  Li  Li5       1.0  0.79500  0.08660  0.12100  1.0000
  Li  Li6       1.0  0.29500  0.41300  0.12100  1.0000
  Li  Li7       1.0  0.23500  0.64400  0.15000  1.0000
  Li  Li8       1.0  0.73500  0.85600  0.15000  1.0000
  Li  Li9       1.0  0.50100  0.61500  0.32900  1.0000
  Li  Li10      1.0  0.00137  0.88500  0.32900  1.0000
  Li  Li11      1.0  0.95000  0.64400  0.36100  1.0000
  Li  Li12      1.0  0.45000  0.85600  0.36100  1.0000
  Li  Li13      1.0  0.00650  0.10800  0.40300  1.0000
  Li  Li14      1.0  0.50700  0.39200  0.40300  1.0000
  Li  Li15      1.0  0.74600  0.13000  0.60000  1.0000
  Li  Li16      1.0  0.24600  0.37000  0.60000  1.0000
  Li  Li17      1.0  0.30100  0.59200  0.61300  1.0000
  Li  Li18      1.0  0.80100  0.90800  0.61300  1.0000
  Li  Li19      1.0  0.70500  0.58700  0.62100  1.0000
  Li  Li20      1.0  0.20500  0.91300  0.62100  1.0000
  Li  Li21      1.0  0.26500  0.14400  0.65000  1.0000
  Li  Li22      1.0  0.76500  0.35600  0.65000  1.0000
  Li  Li23      1.0  0.99900  0.11500  0.82900  1.0000
  Li  Li24      1.0  0.49900  0.38500  0.82900  1.0000
  Li  Li25      1.0  0.55000  0.14400  0.86100  1.0000
  Li  Li26      1.0  0.04970  0.35600  0.86100  1.0000
  Li  Li27      1.0  0.49300  0.60800  0.90300  1.0000
  Li  Li28      1.0  0.99300  0.89200  0.90300  1.0000
  N   N1        1.0  0.00107  0.23300  0.09970  1.0000
  N   N2        1.0  0.50100  0.26700  0.09970  1.0000
  N   N3        1.0  0.49200  0.74300  0.12300  1.0000
  N   N4        1.0  0.99200  0.75700  0.12300  1.0000
  N   N5        1.0  0.73400  0.51200  0.35700  1.0000
  N   N6        1.0  0.23400  0.98800  0.35700  1.0000
  N   N7        1.0  0.26700  0.50700  0.36600  1.0000
  N   N8        1.0  0.76700  0.99300  0.36600  1.0000
  N   N9        1.0  0.49900  0.73300  0.60000  1.0000
  N   N10       1.0  0.99900  0.76700  0.60000  1.0000
  N   N11       1.0  0.00793  0.24300  0.62300  1.0000
  N   N12       1.0  0.50800  0.25700  0.62300  1.0000
  N   N13       1.0  0.76600  0.01170  0.85700  1.0000
  N   N14       1.0  0.26600  0.48800  0.85700  1.0000
  N   N15       1.0  0.23300  0.00680  0.86600  1.0000
  N   N16       1.0  0.73300  0.49300  0.86600  1.0000
