data_image0
_chemical_formula_structural       Li12O14Tb4
_chemical_formula_sum              "Li12 O14 Tb4"
_cell_length_a       10.7114
_cell_length_b       6.05781
_cell_length_c       5.54702
_cell_angle_alpha    90
_cell_angle_beta     110.833
_cell_angle_gamma    90

_space_group_name_H-M_alt    "P 1"
_space_group_IT_number       1

loop_
  _space_group_symop_operation_xyz
  'x, y, z'

loop_
  _atom_site_type_symbol
  _atom_site_label
  _atom_site_symmetry_multiplicity
  _atom_site_fract_x
  _atom_site_fract_y
  _atom_site_fract_z
  _atom_site_occupancy
  Li  Li1       1.0  0.61200  0.00444  0.15400  1.0000
  Li  Li2       1.0  0.11200  0.49600  0.15400  1.0000
  Li  Li3       1.0  0.36900  0.28900  0.18200  1.0000
  Li  Li4       1.0  0.86900  0.21100  0.18200  1.0000
  Li  Li5       1.0  0.88000  0.74500  0.23500  1.0000
  Li  Li6       1.0  0.38000  0.75500  0.23500  1.0000
  Li  Li7       1.0  0.62000  0.24500  0.76500  1.0000
  Li  Li8       1.0  0.12000  0.25500  0.76500  1.0000
  Li  Li9       1.0  0.13100  0.78900  0.81800  1.0000
  Li  Li10      1.0  0.63100  0.71100  0.81800  1.0000
  Li  Li11      1.0  0.38800  0.99600  0.84600  1.0000
  Li  Li12      1.0  0.88800  0.50400  0.84600  1.0000
  O   O1        1.0  0.75700  0.47100  0.01300  1.0000
  O   O2        1.0  0.25700  0.02940  0.01300  1.0000
  O   O3        1.0  0.00596  0.75500  0.03280  1.0000
  O   O4        1.0  0.50600  0.74500  0.03280  1.0000
  O   O5        1.0  0.68100  0.15300  0.47700  1.0000
  O   O6        1.0  0.18100  0.34700  0.47700  1.0000
  O   O7        1.0  0.50000  0.50000  0.50000  1.0000
  O   O8        1.0  0.00000  0.00000  0.50000  1.0000
  O   O9        1.0  0.81900  0.65300  0.52300  1.0000
  O   O10       1.0  0.31900  0.84700  0.52300  1.0000
  O   O11       1.0  0.99400  0.24500  0.96700  1.0000
  O   O12       1.0  0.49400  0.25500  0.96700  1.0000
  O   O13       1.0  0.74300  0.97100  0.98700  1.0000
  O   O14       1.0  0.24300  0.52900  0.98700  1.0000
  Tb  Tb1       1.0  0.13900  0.02200  0.28300  1.0000
  Tb  Tb2       1.0  0.63900  0.47800  0.28300  1.0000
  Tb  Tb3       1.0  0.36100  0.52200  0.71700  1.0000
  Tb  Tb4       1.0  0.86100  0.97800  0.71700  1.0000
