data_image0
_chemical_formula_structural       Hg18Li12Sr34
_chemical_formula_sum              "Hg18 Li12 Sr34"
_cell_length_a       14.3405
_cell_length_b       14.3405
_cell_length_c       14.3405
_cell_angle_alpha    109.471
_cell_angle_beta     109.471
_cell_angle_gamma    109.471

_space_group_name_H-M_alt    "P 1"
_space_group_IT_number       1

loop_
  _space_group_symop_operation_xyz
  'x, y, z'

loop_
  _atom_site_type_symbol
  _atom_site_label
  _atom_site_symmetry_multiplicity
  _atom_site_fract_x
  _atom_site_fract_y
  _atom_site_fract_z
  _atom_site_occupancy
  Hg  Hg1       1.0  0.23100  0.23100  0.00000  1.0000
  Hg  Hg2       1.0  0.70500  0.29500  0.00000  1.0000
  Hg  Hg3       1.0  0.29500  0.70500  0.00000  1.0000
  Hg  Hg4       1.0  0.76900  0.76900  0.00000  1.0000
  Hg  Hg5       1.0  0.23100  0.00000  0.23100  1.0000
  Hg  Hg6       1.0  0.00000  0.23100  0.23100  1.0000
  Hg  Hg7       1.0  0.70500  0.00000  0.29500  1.0000
  Hg  Hg8       1.0  0.59100  0.29500  0.29500  1.0000
  Hg  Hg9       1.0  0.29500  0.59100  0.29500  1.0000
  Hg  Hg10      1.0  0.00000  0.70500  0.29500  1.0000
  Hg  Hg11      1.0  0.70500  0.70500  0.40900  1.0000
  Hg  Hg12      1.0  0.29500  0.29500  0.59100  1.0000
  Hg  Hg13      1.0  0.29500  0.00000  0.70500  1.0000
  Hg  Hg14      1.0  0.00000  0.29500  0.70500  1.0000
  Hg  Hg15      1.0  0.70500  0.40900  0.70500  1.0000
  Hg  Hg16      1.0  0.40900  0.70500  0.70500  1.0000
  Hg  Hg17      1.0  0.76900  0.00000  0.76900  1.0000
  Hg  Hg18      1.0  0.00000  0.76900  0.76900  1.0000
  Li  Li1       1.0  0.85200  0.14800  0.00000  1.0000
  Li  Li2       1.0  0.14800  0.85200  0.00000  1.0000
  Li  Li3       1.0  0.85200  0.00000  0.14800  1.0000
  Li  Li4       1.0  0.00000  0.85200  0.14800  1.0000
  Li  Li5       1.0  0.29600  0.14800  0.14800  1.0000
  Li  Li6       1.0  0.14800  0.29600  0.14800  1.0000
  Li  Li7       1.0  0.14800  0.14800  0.29600  1.0000
  Li  Li8       1.0  0.85200  0.85200  0.70400  1.0000
  Li  Li9       1.0  0.14800  0.00000  0.85200  1.0000
  Li  Li10      1.0  0.00000  0.14800  0.85200  1.0000
  Li  Li11      1.0  0.85200  0.70400  0.85200  1.0000
  Li  Li12      1.0  0.70400  0.85200  0.85200  1.0000
  Sr  Sr1       1.0  0.00000  0.00000  0.00000  1.0000
  Sr  Sr2       1.0  0.44900  0.18800  0.00000  1.0000
  Sr  Sr3       1.0  0.18800  0.44900  0.00000  1.0000
  Sr  Sr4       1.0  0.50000  0.50000  0.00000  1.0000
  Sr  Sr5       1.0  0.81200  0.55100  0.00000  1.0000
  Sr  Sr6       1.0  0.55100  0.81200  0.00000  1.0000
  Sr  Sr7       1.0  0.44900  0.00000  0.18800  1.0000
  Sr  Sr8       1.0  0.73900  0.18800  0.18800  1.0000
  Sr  Sr9       1.0  0.00000  0.44900  0.18800  1.0000
  Sr  Sr10      1.0  0.18800  0.73900  0.18800  1.0000
  Sr  Sr11      1.0  0.75000  0.50000  0.25000  1.0000
  Sr  Sr12      1.0  0.50000  0.75000  0.25000  1.0000
  Sr  Sr13      1.0  0.44900  0.44900  0.26100  1.0000
  Sr  Sr14      1.0  0.81200  0.81200  0.26100  1.0000
  Sr  Sr15      1.0  0.18800  0.00000  0.44900  1.0000
  Sr  Sr16      1.0  0.00000  0.18800  0.44900  1.0000
  Sr  Sr17      1.0  0.44900  0.26100  0.44900  1.0000
  Sr  Sr18      1.0  0.26100  0.44900  0.44900  1.0000
  Sr  Sr19      1.0  0.50000  0.00000  0.50000  1.0000
  Sr  Sr20      1.0  0.75000  0.25000  0.50000  1.0000
  Sr  Sr21      1.0  0.00000  0.50000  0.50000  1.0000
  Sr  Sr22      1.0  0.25000  0.75000  0.50000  1.0000
  Sr  Sr23      1.0  0.81200  0.00000  0.55100  1.0000
  Sr  Sr24      1.0  0.00000  0.81200  0.55100  1.0000
  Sr  Sr25      1.0  0.73900  0.55100  0.55100  1.0000
  Sr  Sr26      1.0  0.55100  0.73900  0.55100  1.0000
  Sr  Sr27      1.0  0.18800  0.18800  0.73900  1.0000
  Sr  Sr28      1.0  0.55100  0.55100  0.73900  1.0000
  Sr  Sr29      1.0  0.50000  0.25000  0.75000  1.0000
  Sr  Sr30      1.0  0.25000  0.50000  0.75000  1.0000
  Sr  Sr31      1.0  0.55100  0.00000  0.81200  1.0000
  Sr  Sr32      1.0  0.81200  0.26100  0.81200  1.0000
  Sr  Sr33      1.0  0.00000  0.55100  0.81200  1.0000
  Sr  Sr34      1.0  0.26100  0.81200  0.81200  1.0000
