data_image0
_chemical_formula_structural       Bi2CaMn2
_chemical_formula_sum              "Bi2 Ca1 Mn2"
_cell_length_a       4.62726
_cell_length_b       4.60562
_cell_length_c       7.63924
_cell_angle_alpha    90
_cell_angle_beta     90.0196
_cell_angle_gamma    119.845

_space_group_name_H-M_alt    "P 1"
_space_group_IT_number       1

loop_
  _space_group_symop_operation_xyz
  'x, y, z'

loop_
  _atom_site_type_symbol
  _atom_site_label
  _atom_site_symmetry_multiplicity
  _atom_site_fract_x
  _atom_site_fract_y
  _atom_site_fract_z
  _atom_site_occupancy
  Bi  Bi1       1.0  0.33300  0.66600  0.25600  1.0000
  Bi  Bi2       1.0  0.66600  0.33300  0.74400  1.0000
  Ca  Ca1       1.0  0.00180  0.00090  0.00000  1.0000
  Mn  Mn1       1.0  0.66600  0.33300  0.37900  1.0000
  Mn  Mn2       1.0  0.33300  0.66600  0.62100  1.0000
