data_image0
_chemical_formula_structural       B48H48Li8
_chemical_formula_sum              "B48 H48 Li8"
_cell_length_a       9.32311
_cell_length_b       9.32311
_cell_length_c       9.32311
_cell_angle_alpha    90
_cell_angle_beta     90
_cell_angle_gamma    90

_space_group_name_H-M_alt    "P 1"
_space_group_IT_number       1

loop_
  _space_group_symop_operation_xyz
  'x, y, z'

loop_
  _atom_site_type_symbol
  _atom_site_label
  _atom_site_symmetry_multiplicity
  _atom_site_fract_x
  _atom_site_fract_y
  _atom_site_fract_z
  _atom_site_occupancy
  B   B1        1.0  0.03920  0.17300  0.03800  1.0000
  B   B2        1.0  0.46100  0.67300  0.03800  1.0000
  B   B3        1.0  0.17300  0.03800  0.03920  1.0000
  B   B4        1.0  0.32700  0.53800  0.03920  1.0000
  B   B5        1.0  0.87500  0.09260  0.09070  1.0000
  B   B6        1.0  0.62500  0.59300  0.09070  1.0000
  B   B7        1.0  0.40900  0.37500  0.09260  1.0000
  B   B8        1.0  0.09070  0.87500  0.09260  1.0000
  B   B9        1.0  0.59300  0.40900  0.12500  1.0000
  B   B10       1.0  0.90700  0.90900  0.12500  1.0000
  B   B11       1.0  0.03800  0.03920  0.17300  1.0000
  B   B12       1.0  0.46200  0.53900  0.17300  1.0000
  B   B13       1.0  0.53800  0.03920  0.32700  1.0000
  B   B14       1.0  0.96200  0.53900  0.32700  1.0000
  B   B15       1.0  0.09260  0.40900  0.37500  1.0000
  B   B16       1.0  0.40700  0.90900  0.37500  1.0000
  B   B17       1.0  0.90900  0.37500  0.40700  1.0000
  B   B18       1.0  0.59100  0.87500  0.40700  1.0000
  B   B19       1.0  0.37500  0.09260  0.40900  1.0000
  B   B20       1.0  0.12500  0.59300  0.40900  1.0000
  B   B21       1.0  0.67300  0.03800  0.46100  1.0000
  B   B22       1.0  0.82700  0.53800  0.46100  1.0000
  B   B23       1.0  0.53900  0.17300  0.46200  1.0000
  B   B24       1.0  0.96100  0.67300  0.46200  1.0000
  B   B25       1.0  0.03920  0.32700  0.53800  1.0000
  B   B26       1.0  0.46100  0.82700  0.53800  1.0000
  B   B27       1.0  0.17300  0.46200  0.53900  1.0000
  B   B28       1.0  0.32700  0.96200  0.53900  1.0000
  B   B29       1.0  0.87500  0.40700  0.59100  1.0000
  B   B30       1.0  0.62500  0.90700  0.59100  1.0000
  B   B31       1.0  0.40900  0.12500  0.59300  1.0000
  B   B32       1.0  0.09070  0.62500  0.59300  1.0000
  B   B33       1.0  0.59300  0.09070  0.62500  1.0000
  B   B34       1.0  0.90700  0.59100  0.62500  1.0000
  B   B35       1.0  0.03800  0.46100  0.67300  1.0000
  B   B36       1.0  0.46200  0.96100  0.67300  1.0000
  B   B37       1.0  0.53800  0.46100  0.82700  1.0000
  B   B38       1.0  0.96200  0.96100  0.82700  1.0000
  B   B39       1.0  0.09260  0.09070  0.87500  1.0000
  B   B40       1.0  0.40700  0.59100  0.87500  1.0000
  B   B41       1.0  0.90900  0.12500  0.90700  1.0000
  B   B42       1.0  0.59100  0.62500  0.90700  1.0000
  B   B43       1.0  0.37500  0.40700  0.90900  1.0000
  B   B44       1.0  0.12500  0.90700  0.90900  1.0000
  B   B45       1.0  0.67300  0.46200  0.96100  1.0000
  B   B46       1.0  0.82700  0.96200  0.96100  1.0000
  B   B47       1.0  0.53900  0.32700  0.96200  1.0000
  B   B48       1.0  0.96100  0.82700  0.96200  1.0000
  H   H1        1.0  0.06510  0.29800  0.06150  1.0000
  H   H2        1.0  0.43500  0.79800  0.06150  1.0000
  H   H3        1.0  0.29800  0.06150  0.06510  1.0000
  H   H4        1.0  0.20200  0.56100  0.06510  1.0000
  H   H5        1.0  0.78400  0.15600  0.15500  1.0000
  H   H6        1.0  0.71600  0.65600  0.15500  1.0000
  H   H7        1.0  0.34500  0.28400  0.15600  1.0000
  H   H8        1.0  0.15500  0.78400  0.15600  1.0000
  H   H9        1.0  0.56100  0.06510  0.20200  1.0000
  H   H10       1.0  0.93900  0.56500  0.20200  1.0000
  H   H11       1.0  0.65600  0.34500  0.21600  1.0000
  H   H12       1.0  0.84400  0.84500  0.21600  1.0000
  H   H13       1.0  0.15600  0.34500  0.28400  1.0000
  H   H14       1.0  0.34400  0.84500  0.28400  1.0000
  H   H15       1.0  0.06150  0.06510  0.29800  1.0000
  H   H16       1.0  0.43900  0.56500  0.29800  1.0000
  H   H17       1.0  0.84500  0.28400  0.34400  1.0000
  H   H18       1.0  0.65500  0.78400  0.34400  1.0000
  H   H19       1.0  0.28400  0.15600  0.34500  1.0000
  H   H20       1.0  0.21600  0.65600  0.34500  1.0000
  H   H21       1.0  0.79800  0.06150  0.43500  1.0000
  H   H22       1.0  0.70200  0.56100  0.43500  1.0000
  H   H23       1.0  0.56500  0.29800  0.43900  1.0000
  H   H24       1.0  0.93500  0.79800  0.43900  1.0000
  H   H25       1.0  0.06510  0.20200  0.56100  1.0000
  H   H26       1.0  0.43500  0.70200  0.56100  1.0000
  H   H27       1.0  0.29800  0.43900  0.56500  1.0000
  H   H28       1.0  0.20200  0.93900  0.56500  1.0000
  H   H29       1.0  0.78400  0.34400  0.65500  1.0000
  H   H30       1.0  0.71600  0.84400  0.65500  1.0000
  H   H31       1.0  0.34500  0.21600  0.65600  1.0000
  H   H32       1.0  0.15500  0.71600  0.65600  1.0000
  H   H33       1.0  0.56100  0.43500  0.70200  1.0000
  H   H34       1.0  0.93900  0.93500  0.70200  1.0000
  H   H35       1.0  0.65600  0.15500  0.71600  1.0000
  H   H36       1.0  0.84400  0.65500  0.71600  1.0000
  H   H37       1.0  0.15600  0.15500  0.78400  1.0000
  H   H38       1.0  0.34400  0.65500  0.78400  1.0000
  H   H39       1.0  0.06150  0.43500  0.79800  1.0000
  H   H40       1.0  0.43900  0.93500  0.79800  1.0000
  H   H41       1.0  0.84500  0.21600  0.84400  1.0000
  H   H42       1.0  0.65500  0.71600  0.84400  1.0000
  H   H43       1.0  0.28400  0.34400  0.84500  1.0000
  H   H44       1.0  0.21600  0.84400  0.84500  1.0000
  H   H45       1.0  0.79800  0.43900  0.93500  1.0000
  H   H46       1.0  0.70200  0.93900  0.93500  1.0000
  H   H47       1.0  0.56500  0.20200  0.93900  1.0000
  H   H48       1.0  0.93500  0.70200  0.93900  1.0000
  Li  Li1       1.0  0.85700  0.35700  0.14300  1.0000
  Li  Li2       1.0  0.64300  0.85700  0.14300  1.0000
  Li  Li3       1.0  0.35700  0.35700  0.35700  1.0000
  Li  Li4       1.0  0.14300  0.85700  0.35700  1.0000
  Li  Li5       1.0  0.85700  0.14300  0.64300  1.0000
  Li  Li6       1.0  0.64300  0.64300  0.64300  1.0000
  Li  Li7       1.0  0.35700  0.14300  0.85700  1.0000
  Li  Li8       1.0  0.14300  0.64300  0.85700  1.0000
