data_image0
_chemical_formula_structural       Li40O32Tl8
_chemical_formula_sum              "Li40 O32 Tl8"
_cell_length_a       13.2142
_cell_length_b       13.2142
_cell_length_c       4.72196
_cell_angle_alpha    90
_cell_angle_beta     90
_cell_angle_gamma    90

_space_group_name_H-M_alt    "P 1"
_space_group_IT_number       1

loop_
  _space_group_symop_operation_xyz
  'x, y, z'

loop_
  _atom_site_type_symbol
  _atom_site_label
  _atom_site_symmetry_multiplicity
  _atom_site_fract_x
  _atom_site_fract_y
  _atom_site_fract_z
  _atom_site_occupancy
  Li  Li1       1.0  0.75000  0.75000  0.15500  1.0000
  Li  Li2       1.0  0.61000  0.64100  0.18500  1.0000
  Li  Li3       1.0  0.89000  0.64100  0.18500  1.0000
  Li  Li4       1.0  0.61000  0.85900  0.18500  1.0000
  Li  Li5       1.0  0.89000  0.85900  0.18500  1.0000
  Li  Li6       1.0  0.98800  0.01190  0.25000  1.0000
  Li  Li7       1.0  0.51200  0.01190  0.25000  1.0000
  Li  Li8       1.0  0.75000  0.25000  0.25000  1.0000
  Li  Li9       1.0  0.98800  0.48800  0.25000  1.0000
  Li  Li10      1.0  0.51200  0.48800  0.25000  1.0000
  Li  Li11      1.0  0.12000  0.62000  0.25000  1.0000
  Li  Li12      1.0  0.38000  0.62000  0.25000  1.0000
  Li  Li13      1.0  0.25000  0.75000  0.25000  1.0000
  Li  Li14      1.0  0.12000  0.88000  0.25000  1.0000
  Li  Li15      1.0  0.38000  0.88000  0.25000  1.0000
  Li  Li16      1.0  0.14100  0.11000  0.31500  1.0000
  Li  Li17      1.0  0.35900  0.11000  0.31500  1.0000
  Li  Li18      1.0  0.14100  0.39000  0.31500  1.0000
  Li  Li19      1.0  0.35900  0.39000  0.31500  1.0000
  Li  Li20      1.0  0.25000  0.25000  0.34500  1.0000
  Li  Li21      1.0  0.75000  0.75000  0.65500  1.0000
  Li  Li22      1.0  0.64100  0.61000  0.68500  1.0000
  Li  Li23      1.0  0.85900  0.61000  0.68500  1.0000
  Li  Li24      1.0  0.64100  0.89000  0.68500  1.0000
  Li  Li25      1.0  0.85900  0.89000  0.68500  1.0000
  Li  Li26      1.0  0.01190  0.98800  0.75000  1.0000
  Li  Li27      1.0  0.48800  0.98800  0.75000  1.0000
  Li  Li28      1.0  0.62000  0.12000  0.75000  1.0000
  Li  Li29      1.0  0.88000  0.12000  0.75000  1.0000
  Li  Li30      1.0  0.75000  0.25000  0.75000  1.0000
  Li  Li31      1.0  0.62000  0.38000  0.75000  1.0000
  Li  Li32      1.0  0.88000  0.38000  0.75000  1.0000
  Li  Li33      1.0  0.01190  0.51200  0.75000  1.0000
  Li  Li34      1.0  0.48800  0.51200  0.75000  1.0000
  Li  Li35      1.0  0.25000  0.75000  0.75000  1.0000
  Li  Li36      1.0  0.11000  0.14100  0.81500  1.0000
  Li  Li37      1.0  0.39000  0.14100  0.81500  1.0000
  Li  Li38      1.0  0.11000  0.35900  0.81500  1.0000
  Li  Li39      1.0  0.39000  0.35900  0.81500  1.0000
  Li  Li40      1.0  0.25000  0.25000  0.84500  1.0000
  O   O1        1.0  0.13600  0.75000  0.02550  1.0000
  O   O2        1.0  0.36400  0.75000  0.02550  1.0000
  O   O3        1.0  0.11400  0.00982  0.03150  1.0000
  O   O4        1.0  0.38600  0.00982  0.03150  1.0000
  O   O5        1.0  0.11400  0.49000  0.03150  1.0000
  O   O6        1.0  0.38600  0.49000  0.03150  1.0000
  O   O7        1.0  0.13400  0.25000  0.08900  1.0000
  O   O8        1.0  0.36600  0.25000  0.08900  1.0000
  O   O9        1.0  0.75000  0.63400  0.41100  1.0000
  O   O10       1.0  0.75000  0.86600  0.41100  1.0000
  O   O11       1.0  0.51000  0.61400  0.46800  1.0000
  O   O12       1.0  0.99000  0.61400  0.46800  1.0000
  O   O13       1.0  0.51000  0.88600  0.46800  1.0000
  O   O14       1.0  0.99000  0.88600  0.46800  1.0000
  O   O15       1.0  0.25000  0.63600  0.47400  1.0000
  O   O16       1.0  0.25000  0.86400  0.47400  1.0000
  O   O17       1.0  0.75000  0.13600  0.52600  1.0000
  O   O18       1.0  0.75000  0.36400  0.52600  1.0000
  O   O19       1.0  0.00982  0.11400  0.53200  1.0000
  O   O20       1.0  0.49000  0.11400  0.53200  1.0000
  O   O21       1.0  0.00982  0.38600  0.53200  1.0000
  O   O22       1.0  0.49000  0.38600  0.53200  1.0000
  O   O23       1.0  0.25000  0.13400  0.58900  1.0000
  O   O24       1.0  0.25000  0.36600  0.58900  1.0000
  O   O25       1.0  0.63400  0.75000  0.91100  1.0000
  O   O26       1.0  0.86600  0.75000  0.91100  1.0000
  O   O27       1.0  0.61400  0.51000  0.96800  1.0000
  O   O28       1.0  0.88600  0.51000  0.96800  1.0000
  O   O29       1.0  0.61400  0.99000  0.96800  1.0000
  O   O30       1.0  0.88600  0.99000  0.96800  1.0000
  O   O31       1.0  0.63600  0.25000  0.97400  1.0000
  O   O32       1.0  0.86400  0.25000  0.97400  1.0000
  Tl  Tl1       1.0  0.75000  0.02360  0.21000  1.0000
  Tl  Tl2       1.0  0.75000  0.47600  0.21000  1.0000
  Tl  Tl3       1.0  0.52400  0.25000  0.29000  1.0000
  Tl  Tl4       1.0  0.97600  0.25000  0.29000  1.0000
  Tl  Tl5       1.0  0.02360  0.75000  0.71000  1.0000
  Tl  Tl6       1.0  0.47600  0.75000  0.71000  1.0000
  Tl  Tl7       1.0  0.25000  0.52400  0.79000  1.0000
  Tl  Tl8       1.0  0.25000  0.97600  0.79000  1.0000
