data_image0
_chemical_formula_structural       Ba16Li8N8
_chemical_formula_sum              "Ba16 Li8 N8"
_cell_length_a       8.15237
_cell_length_b       8.15237
_cell_length_c       15.6681
_cell_angle_alpha    90
_cell_angle_beta     90
_cell_angle_gamma    90

_space_group_name_H-M_alt    "P 1"
_space_group_IT_number       1

loop_
  _space_group_symop_operation_xyz
  'x, y, z'

loop_
  _atom_site_type_symbol
  _atom_site_label
  _atom_site_symmetry_multiplicity
  _atom_site_fract_x
  _atom_site_fract_y
  _atom_site_fract_z
  _atom_site_occupancy
  Ba  Ba1       1.0  0.02670  0.25000  0.14000  1.0000
  Ba  Ba2       1.0  0.47300  0.25000  0.14000  1.0000
  Ba  Ba3       1.0  0.01680  0.75000  0.16200  1.0000
  Ba  Ba4       1.0  0.48300  0.75000  0.16200  1.0000
  Ba  Ba5       1.0  0.25000  0.51700  0.33800  1.0000
  Ba  Ba6       1.0  0.25000  0.98300  0.33800  1.0000
  Ba  Ba7       1.0  0.75000  0.52700  0.36000  1.0000
  Ba  Ba8       1.0  0.75000  0.97300  0.36000  1.0000
  Ba  Ba9       1.0  0.25000  0.02670  0.64000  1.0000
  Ba  Ba10      1.0  0.25000  0.47300  0.64000  1.0000
  Ba  Ba11      1.0  0.75000  0.01680  0.66200  1.0000
  Ba  Ba12      1.0  0.75000  0.48300  0.66200  1.0000
  Ba  Ba13      1.0  0.51700  0.25000  0.83800  1.0000
  Ba  Ba14      1.0  0.98300  0.25000  0.83800  1.0000
  Ba  Ba15      1.0  0.52700  0.75000  0.86000  1.0000
  Ba  Ba16      1.0  0.97300  0.75000  0.86000  1.0000
  Li  Li1       1.0  0.25000  0.51500  0.03300  1.0000
  Li  Li2       1.0  0.25000  0.98500  0.03300  1.0000
  Li  Li3       1.0  0.01500  0.75000  0.46700  1.0000
  Li  Li4       1.0  0.48500  0.75000  0.46700  1.0000
  Li  Li5       1.0  0.51500  0.25000  0.53300  1.0000
  Li  Li6       1.0  0.98500  0.25000  0.53300  1.0000
  Li  Li7       1.0  0.75000  0.01500  0.96700  1.0000
  Li  Li8       1.0  0.75000  0.48500  0.96700  1.0000
  N   N1        1.0  0.25000  0.00454  0.16200  1.0000
  N   N2        1.0  0.25000  0.49500  0.16200  1.0000
  N   N3        1.0  0.50500  0.75000  0.33800  1.0000
  N   N4        1.0  0.99500  0.75000  0.33800  1.0000
  N   N5        1.0  0.00454  0.25000  0.66200  1.0000
  N   N6        1.0  0.49500  0.25000  0.66200  1.0000
  N   N7        1.0  0.75000  0.50500  0.83800  1.0000
  N   N8        1.0  0.75000  0.99500  0.83800  1.0000
