data_image0
_chemical_formula_structural       Ge8Li24O28
_chemical_formula_sum              "Ge8 Li24 O28"
_cell_length_a       8.05686
_cell_length_b       5.27001
_cell_length_c       14.1793
_cell_angle_alpha    90
_cell_angle_beta     93.1722
_cell_angle_gamma    90

_space_group_name_H-M_alt    "P 1"
_space_group_IT_number       1

loop_
  _space_group_symop_operation_xyz
  'x, y, z'

loop_
  _atom_site_type_symbol
  _atom_site_label
  _atom_site_symmetry_multiplicity
  _atom_site_fract_x
  _atom_site_fract_y
  _atom_site_fract_z
  _atom_site_occupancy
  Ge  Ge1       1.0  0.64700  0.35200  0.08650  1.0000
  Ge  Ge2       1.0  0.01340  0.17100  0.17000  1.0000
  Ge  Ge3       1.0  0.48700  0.67100  0.33000  1.0000
  Ge  Ge4       1.0  0.85300  0.85200  0.41300  1.0000
  Ge  Ge5       1.0  0.14700  0.14800  0.58700  1.0000
  Ge  Ge6       1.0  0.51300  0.32900  0.67000  1.0000
  Ge  Ge7       1.0  0.98700  0.82900  0.83000  1.0000
  Ge  Ge8       1.0  0.35300  0.64800  0.91300  1.0000
  Li  Li1       1.0  0.27500  0.14700  0.01640  1.0000
  Li  Li2       1.0  0.05090  0.69400  0.04280  1.0000
  Li  Li3       1.0  0.46100  0.87100  0.11600  1.0000
  Li  Li4       1.0  0.29700  0.51600  0.12300  1.0000
  Li  Li5       1.0  0.79700  0.70700  0.19600  1.0000
  Li  Li6       1.0  0.37000  0.16400  0.24300  1.0000
  Li  Li7       1.0  0.13000  0.66400  0.25700  1.0000
  Li  Li8       1.0  0.70300  0.20700  0.30400  1.0000
  Li  Li9       1.0  0.20300  0.01590  0.37700  1.0000
  Li  Li10      1.0  0.03920  0.37100  0.38400  1.0000
  Li  Li11      1.0  0.44900  0.19400  0.45700  1.0000
  Li  Li12      1.0  0.22500  0.64700  0.48400  1.0000
  Li  Li13      1.0  0.77500  0.35300  0.51600  1.0000
  Li  Li14      1.0  0.55100  0.80600  0.54300  1.0000
  Li  Li15      1.0  0.96100  0.62900  0.61600  1.0000
  Li  Li16      1.0  0.79700  0.98400  0.62300  1.0000
  Li  Li17      1.0  0.29700  0.79300  0.69600  1.0000
  Li  Li18      1.0  0.87000  0.33600  0.74300  1.0000
  Li  Li19      1.0  0.63000  0.83600  0.75700  1.0000
  Li  Li20      1.0  0.20300  0.29300  0.80400  1.0000
  Li  Li21      1.0  0.70300  0.48400  0.87700  1.0000
  Li  Li22      1.0  0.53900  0.12900  0.88400  1.0000
  Li  Li23      1.0  0.94900  0.30600  0.95700  1.0000
  Li  Li24      1.0  0.72500  0.85300  0.98400  1.0000
  O   O1        1.0  0.28400  0.78000  0.01810  1.0000
  O   O2        1.0  0.09140  0.32400  0.07110  1.0000
  O   O3        1.0  0.64600  0.68400  0.08880  1.0000
  O   O4        1.0  0.45500  0.23200  0.12000  1.0000
  O   O5        1.0  0.99900  0.84200  0.16000  1.0000
  O   O6        1.0  0.80300  0.29300  0.18600  1.0000
  O   O7        1.0  0.35900  0.77200  0.23200  1.0000
  O   O8        1.0  0.14100  0.27200  0.26800  1.0000
  O   O9        1.0  0.69700  0.79300  0.31400  1.0000
  O   O10       1.0  0.50100  0.34200  0.34000  1.0000
  O   O11       1.0  0.04500  0.73200  0.38000  1.0000
  O   O12       1.0  0.85400  0.18400  0.41100  1.0000
  O   O13       1.0  0.40900  0.82400  0.42900  1.0000
  O   O14       1.0  0.21600  0.28000  0.48200  1.0000
  O   O15       1.0  0.78400  0.72000  0.51800  1.0000
  O   O16       1.0  0.59100  0.17600  0.57100  1.0000
  O   O17       1.0  0.14600  0.81600  0.58900  1.0000
  O   O18       1.0  0.95500  0.26800  0.62000  1.0000
  O   O19       1.0  0.49900  0.65800  0.66000  1.0000
  O   O20       1.0  0.30300  0.20700  0.68600  1.0000
  O   O21       1.0  0.85900  0.72800  0.73200  1.0000
  O   O22       1.0  0.64100  0.22800  0.76800  1.0000
  O   O23       1.0  0.19700  0.70700  0.81400  1.0000
  O   O24       1.0  0.00116  0.15800  0.84000  1.0000
  O   O25       1.0  0.54500  0.76800  0.88000  1.0000
  O   O26       1.0  0.35400  0.31600  0.91100  1.0000
  O   O27       1.0  0.90900  0.67600  0.92900  1.0000
  O   O28       1.0  0.71600  0.22000  0.98200  1.0000
