data_image0
_chemical_formula_structural       Li2O8Ti4
_chemical_formula_sum              "Li2 O8 Ti4"
_cell_length_a       3.97202
_cell_length_b       6.48947
_cell_length_c       6.3317
_cell_angle_alpha    106.419
_cell_angle_beta     108.28
_cell_angle_gamma    90

_space_group_name_H-M_alt    "P 1"
_space_group_IT_number       1

loop_
  _space_group_symop_operation_xyz
  'x, y, z'

loop_
  _atom_site_type_symbol
  _atom_site_label
  _atom_site_symmetry_multiplicity
  _atom_site_fract_x
  _atom_site_fract_y
  _atom_site_fract_z
  _atom_site_occupancy
  Li  Li1       1.0  0.05500  0.34000  0.11000  1.0000
  Li  Li2       1.0  0.94500  0.66000  0.89000  1.0000
  O   O1        1.0  0.56000  0.35800  0.12100  1.0000
  O   O2        1.0  0.11300  0.67400  0.22600  1.0000
  O   O3        1.0  0.64800  0.00028  0.29700  1.0000
  O   O4        1.0  0.22500  0.34500  0.45000  1.0000
  O   O5        1.0  0.77500  0.65500  0.55000  1.0000
  O   O6        1.0  0.35200  0.00000  0.70300  1.0000
  O   O7        1.0  0.88700  0.32600  0.77400  1.0000
  O   O8        1.0  0.44000  0.64200  0.87900  1.0000
  Ti  Ti1       1.0  0.61300  0.70200  0.22600  1.0000
  Ti  Ti2       1.0  0.71200  0.28900  0.42500  1.0000
  Ti  Ti3       1.0  0.28800  0.71100  0.57500  1.0000
  Ti  Ti4       1.0  0.38700  0.29800  0.77400  1.0000
