data_image0
_chemical_formula_structural       Li6O24Re6
_chemical_formula_sum              "Li6 O24 Re6"
_cell_length_a       9.51797
_cell_length_b       8.35477
_cell_length_c       6.86237
_cell_angle_alpha    101.4
_cell_angle_beta     106.843
_cell_angle_gamma    96.9058

_space_group_name_H-M_alt    "P 1"
_space_group_IT_number       1

loop_
  _space_group_symop_operation_xyz
  'x, y, z'

loop_
  _atom_site_type_symbol
  _atom_site_label
  _atom_site_symmetry_multiplicity
  _atom_site_fract_x
  _atom_site_fract_y
  _atom_site_fract_z
  _atom_site_occupancy
  Li  Li1       1.0  0.99300  0.18800  0.04230  1.0000
  Li  Li2       1.0  0.59300  0.80100  0.24900  1.0000
  Li  Li3       1.0  0.21900  0.38700  0.46800  1.0000
  Li  Li4       1.0  0.78100  0.61300  0.53200  1.0000
  Li  Li5       1.0  0.40700  0.19900  0.75100  1.0000
  Li  Li6       1.0  0.00674  0.81200  0.95800  1.0000
  O   O1        1.0  0.84900  0.35400  0.04670  1.0000
  O   O2        1.0  0.15600  0.02600  0.04950  1.0000
  O   O3        1.0  0.44000  0.20600  0.07080  1.0000
  O   O4        1.0  0.18000  0.37200  0.14700  1.0000
  O   O5        1.0  0.43700  0.59100  0.16600  1.0000
  O   O6        1.0  0.74200  0.62800  0.23100  1.0000
  O   O7        1.0  0.42500  0.92900  0.25500  1.0000
  O   O8        1.0  0.04270  0.80800  0.26400  1.0000
  O   O9        1.0  0.74600  0.01930  0.34000  1.0000
  O   O10       1.0  0.01870  0.22700  0.36600  1.0000
  O   O11       1.0  0.36000  0.23000  0.44600  1.0000
  O   O12       1.0  0.78300  0.37300  0.47900  1.0000
  O   O13       1.0  0.21700  0.62700  0.52100  1.0000
  O   O14       1.0  0.64000  0.77000  0.55400  1.0000
  O   O15       1.0  0.98100  0.77300  0.63400  1.0000
  O   O16       1.0  0.25400  0.98100  0.66000  1.0000
  O   O17       1.0  0.95700  0.19200  0.73600  1.0000
  O   O18       1.0  0.57500  0.07080  0.74500  1.0000
  O   O19       1.0  0.25800  0.37200  0.76900  1.0000
  O   O20       1.0  0.56300  0.40900  0.83400  1.0000
  O   O21       1.0  0.82000  0.62800  0.85300  1.0000
  O   O22       1.0  0.56000  0.79400  0.92900  1.0000
  O   O23       1.0  0.84400  0.97400  0.95100  1.0000
  O   O24       1.0  0.15100  0.64600  0.95300  1.0000
  Re  Re1       1.0  0.25700  0.49500  0.00754  1.0000
  Re  Re2       1.0  0.34500  0.09870  0.20400  1.0000
  Re  Re3       1.0  0.87500  0.20300  0.47800  1.0000
  Re  Re4       1.0  0.12500  0.79700  0.52200  1.0000
  Re  Re5       1.0  0.65500  0.90100  0.79600  1.0000
  Re  Re6       1.0  0.74300  0.50500  0.99200  1.0000
