data_image0
_chemical_formula_structural       Ga8Li40O32
_chemical_formula_sum              "Ga8 Li40 O32"
_cell_length_a       9.12457
_cell_length_b       9.06611
_cell_length_c       9.14979
_cell_angle_alpha    90
_cell_angle_beta     90
_cell_angle_gamma    90

_space_group_name_H-M_alt    "P 1"
_space_group_IT_number       1

loop_
  _space_group_symop_operation_xyz
  'x, y, z'

loop_
  _atom_site_type_symbol
  _atom_site_label
  _atom_site_symmetry_multiplicity
  _atom_site_fract_x
  _atom_site_fract_y
  _atom_site_fract_z
  _atom_site_occupancy
  Ga  Ga1       1.0  0.14500  0.11800  0.11600  1.0000
  Ga  Ga2       1.0  0.35500  0.61800  0.11600  1.0000
  Ga  Ga3       1.0  0.64500  0.11800  0.38400  1.0000
  Ga  Ga4       1.0  0.85500  0.61800  0.38400  1.0000
  Ga  Ga5       1.0  0.14500  0.38200  0.61600  1.0000
  Ga  Ga6       1.0  0.35500  0.88200  0.61600  1.0000
  Ga  Ga7       1.0  0.64500  0.38200  0.88400  1.0000
  Ga  Ga8       1.0  0.85500  0.88200  0.88400  1.0000
  Li  Li1       1.0  0.61000  0.14100  0.10800  1.0000
  Li  Li2       1.0  0.89000  0.64100  0.10800  1.0000
  Li  Li3       1.0  0.39200  0.33600  0.12000  1.0000
  Li  Li4       1.0  0.10800  0.83600  0.12000  1.0000
  Li  Li5       1.0  0.85400  0.37300  0.12100  1.0000
  Li  Li6       1.0  0.64600  0.87300  0.12100  1.0000
  Li  Li7       1.0  0.87200  0.10500  0.14700  1.0000
  Li  Li8       1.0  0.62800  0.60500  0.14700  1.0000
  Li  Li9       1.0  0.11900  0.39700  0.15700  1.0000
  Li  Li10      1.0  0.38100  0.89700  0.15700  1.0000
  Li  Li11      1.0  0.61900  0.39700  0.34300  1.0000
  Li  Li12      1.0  0.88100  0.89700  0.34300  1.0000
  Li  Li13      1.0  0.37200  0.10500  0.35300  1.0000
  Li  Li14      1.0  0.12800  0.60500  0.35300  1.0000
  Li  Li15      1.0  0.35400  0.37300  0.37900  1.0000
  Li  Li16      1.0  0.14600  0.87300  0.37900  1.0000
  Li  Li17      1.0  0.89200  0.33600  0.38000  1.0000
  Li  Li18      1.0  0.60800  0.83600  0.38000  1.0000
  Li  Li19      1.0  0.11000  0.14100  0.39200  1.0000
  Li  Li20      1.0  0.39000  0.64100  0.39200  1.0000
  Li  Li21      1.0  0.61000  0.35900  0.60800  1.0000
  Li  Li22      1.0  0.89000  0.85900  0.60800  1.0000
  Li  Li23      1.0  0.39200  0.16400  0.62000  1.0000
  Li  Li24      1.0  0.10800  0.66400  0.62000  1.0000
  Li  Li25      1.0  0.85400  0.12700  0.62100  1.0000
  Li  Li26      1.0  0.64600  0.62700  0.62100  1.0000
  Li  Li27      1.0  0.87200  0.39500  0.64700  1.0000
  Li  Li28      1.0  0.62800  0.89500  0.64700  1.0000
  Li  Li29      1.0  0.11900  0.10300  0.65700  1.0000
  Li  Li30      1.0  0.38100  0.60300  0.65700  1.0000
  Li  Li31      1.0  0.61900  0.10300  0.84300  1.0000
  Li  Li32      1.0  0.88100  0.60300  0.84300  1.0000
  Li  Li33      1.0  0.37200  0.39500  0.85300  1.0000
  Li  Li34      1.0  0.12800  0.89500  0.85300  1.0000
  Li  Li35      1.0  0.35400  0.12700  0.87900  1.0000
  Li  Li36      1.0  0.14600  0.62700  0.87900  1.0000
  Li  Li37      1.0  0.89200  0.16400  0.88000  1.0000
  Li  Li38      1.0  0.60800  0.66400  0.88000  1.0000
  Li  Li39      1.0  0.11000  0.35900  0.89200  1.0000
  Li  Li40      1.0  0.39000  0.85900  0.89200  1.0000
  O   O1        1.0  0.24900  0.48600  0.00462  1.0000
  O   O2        1.0  0.25100  0.98600  0.00462  1.0000
  O   O3        1.0  0.00668  0.24600  0.03320  1.0000
  O   O4        1.0  0.49300  0.74600  0.03320  1.0000
  O   O5        1.0  0.03160  0.00000  0.24400  1.0000
  O   O6        1.0  0.46800  0.50000  0.24400  1.0000
  O   O7        1.0  0.24800  0.24000  0.24600  1.0000
  O   O8        1.0  0.25200  0.74000  0.24600  1.0000
  O   O9        1.0  0.74800  0.24000  0.25400  1.0000
  O   O10       1.0  0.75200  0.74000  0.25400  1.0000
  O   O11       1.0  0.53200  0.00000  0.25600  1.0000
  O   O12       1.0  0.96800  0.50000  0.25600  1.0000
  O   O13       1.0  0.50700  0.24600  0.46700  1.0000
  O   O14       1.0  0.99300  0.74600  0.46700  1.0000
  O   O15       1.0  0.74900  0.48600  0.49500  1.0000
  O   O16       1.0  0.75100  0.98600  0.49500  1.0000
  O   O17       1.0  0.24900  0.01360  0.50500  1.0000
  O   O18       1.0  0.25100  0.51400  0.50500  1.0000
  O   O19       1.0  0.00668  0.25400  0.53300  1.0000
  O   O20       1.0  0.49300  0.75400  0.53300  1.0000
  O   O21       1.0  0.46800  0.00050  0.74400  1.0000
  O   O22       1.0  0.03160  0.50000  0.74400  1.0000
  O   O23       1.0  0.24800  0.26000  0.74600  1.0000
  O   O24       1.0  0.25200  0.76000  0.74600  1.0000
  O   O25       1.0  0.74800  0.26000  0.75400  1.0000
  O   O26       1.0  0.75200  0.76000  0.75400  1.0000
  O   O27       1.0  0.96800  0.00050  0.75600  1.0000
  O   O28       1.0  0.53200  0.50000  0.75600  1.0000
  O   O29       1.0  0.50700  0.25400  0.96700  1.0000
  O   O30       1.0  0.99300  0.75400  0.96700  1.0000
  O   O31       1.0  0.74900  0.01360  0.99500  1.0000
  O   O32       1.0  0.75100  0.51400  0.99500  1.0000
