data_image0
_chemical_formula_structural       Bi8Li24O24
_chemical_formula_sum              "Bi8 Li24 O24"
_cell_length_a       8.93113
_cell_length_b       9.67141
_cell_length_c       9.12342
_cell_angle_alpha    114.119
_cell_angle_beta     88.8808
_cell_angle_gamma    107.437

_space_group_name_H-M_alt    "P 1"
_space_group_IT_number       1

loop_
  _space_group_symop_operation_xyz
  'x, y, z'

loop_
  _atom_site_type_symbol
  _atom_site_label
  _atom_site_symmetry_multiplicity
  _atom_site_fract_x
  _atom_site_fract_y
  _atom_site_fract_z
  _atom_site_occupancy
  Bi  Bi1       1.0  0.71500  0.77200  0.13300  1.0000
  Bi  Bi2       1.0  0.14500  0.86300  0.16000  1.0000
  Bi  Bi3       1.0  0.83500  0.19800  0.25000  1.0000
  Bi  Bi4       1.0  0.24200  0.30500  0.29300  1.0000
  Bi  Bi5       1.0  0.75800  0.69500  0.70700  1.0000
  Bi  Bi6       1.0  0.16500  0.80200  0.75000  1.0000
  Bi  Bi7       1.0  0.85500  0.13700  0.84000  1.0000
  Bi  Bi8       1.0  0.28500  0.22800  0.86700  1.0000
  Li  Li1       1.0  0.89700  0.50200  0.08410  1.0000
  Li  Li2       1.0  0.65100  0.34000  0.10400  1.0000
  Li  Li3       1.0  0.49100  0.11000  0.12500  1.0000
  Li  Li4       1.0  0.31100  0.59700  0.15000  1.0000
  Li  Li5       1.0  0.52100  0.55000  0.26900  1.0000
  Li  Li6       1.0  0.47000  0.94700  0.27300  1.0000
  Li  Li7       1.0  0.07540  0.56700  0.33500  1.0000
  Li  Li8       1.0  0.83800  0.64100  0.37200  1.0000
  Li  Li9       1.0  0.57700  0.37700  0.42600  1.0000
  Li  Li10      1.0  0.34600  0.79000  0.43600  1.0000
  Li  Li11      1.0  0.67700  0.83900  0.46400  1.0000
  Li  Li12      1.0  0.07830  0.91500  0.49300  1.0000
  Li  Li13      1.0  0.92200  0.08530  0.50700  1.0000
  Li  Li14      1.0  0.32300  0.16100  0.53600  1.0000
  Li  Li15      1.0  0.65400  0.21000  0.56400  1.0000
  Li  Li16      1.0  0.42300  0.62300  0.57400  1.0000
  Li  Li17      1.0  0.16200  0.35900  0.62800  1.0000
  Li  Li18      1.0  0.92500  0.43300  0.66500  1.0000
  Li  Li19      1.0  0.53000  0.05320  0.72700  1.0000
  Li  Li20      1.0  0.47900  0.45000  0.73100  1.0000
  Li  Li21      1.0  0.68900  0.40300  0.85000  1.0000
  Li  Li22      1.0  0.50900  0.89000  0.87500  1.0000
  Li  Li23      1.0  0.34900  0.66000  0.89600  1.0000
  Li  Li24      1.0  0.10300  0.49800  0.91600  1.0000
  O   O1        1.0  0.36300  0.88500  0.04810  1.0000
  O   O2        1.0  0.69400  0.53800  0.07970  1.0000
  O   O3        1.0  0.11000  0.63400  0.14000  1.0000
  O   O4        1.0  0.45700  0.31300  0.19300  1.0000
  O   O5        1.0  0.85700  0.41700  0.24500  1.0000
  O   O6        1.0  0.52300  0.76500  0.27000  1.0000
  O   O7        1.0  0.61400  0.15900  0.33500  1.0000
  O   O8        1.0  0.28500  0.54300  0.34000  1.0000
  O   O9        1.0  0.88000  0.85900  0.34300  1.0000
  O   O10       1.0  0.27700  0.94900  0.38300  1.0000
  O   O11       1.0  0.97200  0.27600  0.47100  1.0000
  O   O12       1.0  0.64500  0.63600  0.48200  1.0000
  O   O13       1.0  0.35500  0.36400  0.51800  1.0000
  O   O14       1.0  0.02790  0.72400  0.52900  1.0000
  O   O15       1.0  0.72300  0.05120  0.61700  1.0000
  O   O16       1.0  0.12000  0.14100  0.65700  1.0000
  O   O17       1.0  0.71500  0.45700  0.66000  1.0000
  O   O18       1.0  0.38600  0.84100  0.66500  1.0000
  O   O19       1.0  0.47700  0.23500  0.73000  1.0000
  O   O20       1.0  0.14300  0.58300  0.75500  1.0000
  O   O21       1.0  0.54300  0.68700  0.80700  1.0000
  O   O22       1.0  0.89000  0.36600  0.86000  1.0000
  O   O23       1.0  0.30600  0.46200  0.92000  1.0000
  O   O24       1.0  0.63700  0.11500  0.95200  1.0000
