data_image0
_chemical_formula_structural       Cl7Cs3Mg2
_chemical_formula_sum              "Cl7 Cs3 Mg2"
_cell_length_a       5.10219
_cell_length_b       5.10219
_cell_length_c       13.9289
_cell_angle_alpha    100.553
_cell_angle_beta     100.553
_cell_angle_gamma    90

_space_group_name_H-M_alt    "P 1"
_space_group_IT_number       1

loop_
  _space_group_symop_operation_xyz
  'x, y, z'

loop_
  _atom_site_type_symbol
  _atom_site_label
  _atom_site_symmetry_multiplicity
  _atom_site_fract_x
  _atom_site_fract_y
  _atom_site_fract_z
  _atom_site_occupancy
  Cl  Cl1       1.0  0.50000  0.50000  0.00000  1.0000
  Cl  Cl2       1.0  0.59300  0.09300  0.18600  1.0000
  Cl  Cl3       1.0  0.09300  0.59300  0.18600  1.0000
  Cl  Cl4       1.0  0.68700  0.68700  0.37400  1.0000
  Cl  Cl5       1.0  0.31300  0.31300  0.62600  1.0000
  Cl  Cl6       1.0  0.90700  0.40700  0.81400  1.0000
  Cl  Cl7       1.0  0.40700  0.90700  0.81400  1.0000
  Cs  Cs1       1.0  0.00000  0.00000  0.00000  1.0000
  Cs  Cs2       1.0  0.18300  0.18300  0.36700  1.0000
  Cs  Cs3       1.0  0.81700  0.81700  0.63300  1.0000
  Mg  Mg1       1.0  0.59500  0.59500  0.19000  1.0000
  Mg  Mg2       1.0  0.40500  0.40500  0.81000  1.0000
