data_image0
_chemical_formula_structural       Li14P6S22
_chemical_formula_sum              "Li14 P6 S22"
_cell_length_a       12.4401
_cell_length_b       6.18906
_cell_length_c       12.4329
_cell_angle_alpha    103.033
_cell_angle_beta     113.393
_cell_angle_gamma    73.5289

_space_group_name_H-M_alt    "P 1"
_space_group_IT_number       1

loop_
  _space_group_symop_operation_xyz
  'x, y, z'

loop_
  _atom_site_type_symbol
  _atom_site_label
  _atom_site_symmetry_multiplicity
  _atom_site_fract_x
  _atom_site_fract_y
  _atom_site_fract_z
  _atom_site_occupancy
  Li  Li1       1.0  0.66900  0.07440  0.10100  1.0000
  Li  Li2       1.0  0.38900  0.46100  0.11500  1.0000
  Li  Li3       1.0  0.14100  0.27300  0.12400  1.0000
  Li  Li4       1.0  0.97300  0.82800  0.24400  1.0000
  Li  Li5       1.0  0.82400  0.48600  0.29700  1.0000
  Li  Li6       1.0  0.30000  0.79800  0.30400  1.0000
  Li  Li7       1.0  0.67300  0.61700  0.49800  1.0000
  Li  Li8       1.0  0.32700  0.38300  0.50200  1.0000
  Li  Li9       1.0  0.70000  0.20200  0.69600  1.0000
  Li  Li10      1.0  0.17600  0.51400  0.70300  1.0000
  Li  Li11      1.0  0.02670  0.17200  0.75600  1.0000
  Li  Li12      1.0  0.85900  0.72700  0.87600  1.0000
  Li  Li13      1.0  0.61100  0.53900  0.88500  1.0000
  Li  Li14      1.0  0.33100  0.92600  0.89900  1.0000
  P   P1        1.0  0.83400  0.30600  0.05580  1.0000
  P   P2        1.0  0.47500  0.00587  0.27500  1.0000
  P   P3        1.0  0.78300  0.04000  0.45200  1.0000
  P   P4        1.0  0.21700  0.96000  0.54800  1.0000
  P   P5        1.0  0.52500  0.99400  0.72500  1.0000
  P   P6        1.0  0.16600  0.69400  0.94400  1.0000
  S   S1        1.0  0.85500  0.96300  0.05240  1.0000
  S   S2        1.0  0.67900  0.47400  0.08820  1.0000
  S   S3        1.0  0.17800  0.63100  0.10400  1.0000
  S   S4        1.0  0.47900  0.05830  0.12300  1.0000
  S   S5        1.0  0.97400  0.40900  0.19800  1.0000
  S   S6        1.0  0.51200  0.67200  0.29700  1.0000
  S   S7        1.0  0.31900  0.17800  0.30300  1.0000
  S   S8        1.0  0.81800  0.09450  0.31600  1.0000
  S   S9        1.0  0.17400  0.72700  0.40000  1.0000
  S   S10       1.0  0.59400  0.17000  0.42700  1.0000
  S   S11       1.0  0.84400  0.71700  0.48600  1.0000
  S   S12       1.0  0.15600  0.28300  0.51400  1.0000
  S   S13       1.0  0.40600  0.83000  0.57300  1.0000
  S   S14       1.0  0.82600  0.27300  0.60000  1.0000
  S   S15       1.0  0.18200  0.90500  0.68400  1.0000
  S   S16       1.0  0.68100  0.82200  0.69700  1.0000
  S   S17       1.0  0.48800  0.32800  0.70300  1.0000
  S   S18       1.0  0.02570  0.59100  0.80200  1.0000
  S   S19       1.0  0.52100  0.94200  0.87700  1.0000
  S   S20       1.0  0.82200  0.36900  0.89600  1.0000
  S   S21       1.0  0.32100  0.52600  0.91200  1.0000
  S   S22       1.0  0.14500  0.03690  0.94800  1.0000
