data_image0
_chemical_formula_structural       Pd4Si4Sr4
_chemical_formula_sum              "Pd4 Si4 Sr4"
_cell_length_a       6.53725
_cell_length_b       6.53725
_cell_length_c       6.53725
_cell_angle_alpha    90
_cell_angle_beta     90
_cell_angle_gamma    90

_space_group_name_H-M_alt    "P 1"
_space_group_IT_number       1

loop_
  _space_group_symop_operation_xyz
  'x, y, z'

loop_
  _atom_site_type_symbol
  _atom_site_label
  _atom_site_symmetry_multiplicity
  _atom_site_fract_x
  _atom_site_fract_y
  _atom_site_fract_z
  _atom_site_occupancy
  Pd  Pd1       1.0  0.59000  0.91000  0.08950  1.0000
  Pd  Pd2       1.0  0.41000  0.41000  0.41000  1.0000
  Pd  Pd3       1.0  0.91000  0.08950  0.59000  1.0000
  Pd  Pd4       1.0  0.08950  0.59000  0.91000  1.0000
  Si  Si1       1.0  0.33700  0.66300  0.16300  1.0000
  Si  Si2       1.0  0.66300  0.16300  0.33700  1.0000
  Si  Si3       1.0  0.16300  0.33700  0.66300  1.0000
  Si  Si4       1.0  0.83700  0.83700  0.83700  1.0000
  Sr  Sr1       1.0  0.13100  0.13100  0.13100  1.0000
  Sr  Sr2       1.0  0.86900  0.63100  0.36900  1.0000
  Sr  Sr3       1.0  0.36900  0.86900  0.63100  1.0000
  Sr  Sr4       1.0  0.63100  0.36900  0.86900  1.0000
