data_image0
_chemical_formula_structural       F6Li2Zr
_chemical_formula_sum              "F6 Li2 Zr1"
_cell_length_a       4.88578
_cell_length_b       4.88573
_cell_length_c       4.59195
_cell_angle_alpha    89.9994
_cell_angle_beta     90.0003
_cell_angle_gamma    120

_space_group_name_H-M_alt    "P 1"
_space_group_IT_number       1

loop_
  _space_group_symop_operation_xyz
  'x, y, z'

loop_
  _atom_site_type_symbol
  _atom_site_label
  _atom_site_symmetry_multiplicity
  _atom_site_fract_x
  _atom_site_fract_y
  _atom_site_fract_z
  _atom_site_occupancy
  F   F1        1.0  0.33700  0.33700  0.25800  1.0000
  F   F2        1.0  0.66300  0.00000  0.25800  1.0000
  F   F3        1.0  0.00000  0.66300  0.25800  1.0000
  F   F4        1.0  0.00000  0.33700  0.74200  1.0000
  F   F5        1.0  0.66300  0.66300  0.74200  1.0000
  F   F6        1.0  0.33700  1.00000  0.74200  1.0000
  Li  Li1       1.0  0.33300  0.66700  0.50000  1.0000
  Li  Li2       1.0  0.66700  0.33300  0.50000  1.0000
  Zr  Zr1       1.0  0.00000  0.00000  0.00000  1.0000
