data_image0
_chemical_formula_structural       Pt2U2
_chemical_formula_sum              "Pt2 U2"
_cell_length_a       3.97369
_cell_length_b       4.26494
_cell_length_c       5.59986
_cell_angle_alpha    90
_cell_angle_beta     69.2187
_cell_angle_gamma    90

_space_group_name_H-M_alt    "P 1"
_space_group_IT_number       1

loop_
  _space_group_symop_operation_xyz
  'x, y, z'

loop_
  _atom_site_type_symbol
  _atom_site_label
  _atom_site_symmetry_multiplicity
  _atom_site_fract_x
  _atom_site_fract_y
  _atom_site_fract_z
  _atom_site_occupancy
  Pt  Pt1       1.0  0.39700  0.75000  0.20600  1.0000
  Pt  Pt2       1.0  0.60300  0.25000  0.79400  1.0000
  U   U1        1.0  0.87100  0.25000  0.25800  1.0000
  U   U2        1.0  0.12900  0.75000  0.74200  1.0000
