data_image0
_chemical_formula_structural       K4O6Te2
_chemical_formula_sum              "K4 O6 Te2"
_cell_length_a       6.26036
_cell_length_b       6.26023
_cell_length_c       6.97021
_cell_angle_alpha    90.0001
_cell_angle_beta     89.9947
_cell_angle_gamma    119.996

_space_group_name_H-M_alt    "P 1"
_space_group_IT_number       1

loop_
  _space_group_symop_operation_xyz
  'x, y, z'

loop_
  _atom_site_type_symbol
  _atom_site_label
  _atom_site_symmetry_multiplicity
  _atom_site_fract_x
  _atom_site_fract_y
  _atom_site_fract_z
  _atom_site_occupancy
  K   K1        1.0  0.00000  0.00000  0.00000  1.0000
  K   K2        1.0  0.66700  0.33300  0.38300  1.0000
  K   K3        1.0  0.00000  0.00000  0.50000  1.0000
  K   K4        1.0  0.33300  0.66700  0.61700  1.0000
  O   O1        1.0  0.09580  0.71900  0.25900  1.0000
  O   O2        1.0  0.28100  0.37700  0.25900  1.0000
  O   O3        1.0  0.62300  0.90400  0.25900  1.0000
  O   O4        1.0  0.37700  0.09570  0.74100  1.0000
  O   O5        1.0  0.71900  0.62300  0.74100  1.0000
  O   O6        1.0  0.90400  0.28100  0.74100  1.0000
  Te  Te1       1.0  0.33300  0.66700  0.13500  1.0000
  Te  Te2       1.0  0.66700  0.33300  0.86500  1.0000
