data_image0
_chemical_formula_structural       Li3O6SbZn2
_chemical_formula_sum              "Li3 O6 Sb1 Zn2"
_cell_length_a       5.17293
_cell_length_b       5.23633
_cell_length_c       5.23633
_cell_angle_alpha    119.668
_cell_angle_beta     100.093
_cell_angle_gamma    100.093

_space_group_name_H-M_alt    "P 1"
_space_group_IT_number       1

loop_
  _space_group_symop_operation_xyz
  'x, y, z'

loop_
  _atom_site_type_symbol
  _atom_site_label
  _atom_site_symmetry_multiplicity
  _atom_site_fract_x
  _atom_site_fract_y
  _atom_site_fract_z
  _atom_site_occupancy
  Li  Li1       1.0  0.50000  0.82900  0.17100  1.0000
  Li  Li2       1.0  0.50000  0.50000  0.50000  1.0000
  Li  Li3       1.0  0.50000  0.17100  0.82900  1.0000
  O   O1        1.0  0.24000  0.39500  0.07940  1.0000
  O   O2        1.0  0.76700  0.23600  0.23600  1.0000
  O   O3        1.0  0.24000  0.07940  0.39500  1.0000
  O   O4        1.0  0.76000  0.92100  0.60500  1.0000
  O   O5        1.0  0.23300  0.76400  0.76400  1.0000
  O   O6        1.0  0.76000  0.60500  0.92100  1.0000
  Sb  Sb1       1.0  0.00000  0.00000  0.00000  1.0000
  Zn  Zn1       1.0  0.00000  0.66600  0.33400  1.0000
  Zn  Zn2       1.0  0.00000  0.33400  0.66600  1.0000
