data_image0
_chemical_formula_structural       Er4P4Pd4
_chemical_formula_sum              "Er4 P4 Pd4"
_cell_length_a       6.8679
_cell_length_b       3.98882
_cell_length_c       7.74003
_cell_angle_alpha    90
_cell_angle_beta     90
_cell_angle_gamma    90

_space_group_name_H-M_alt    "P 1"
_space_group_IT_number       1

loop_
  _space_group_symop_operation_xyz
  'x, y, z'

loop_
  _atom_site_type_symbol
  _atom_site_label
  _atom_site_symmetry_multiplicity
  _atom_site_fract_x
  _atom_site_fract_y
  _atom_site_fract_z
  _atom_site_occupancy
  Er  Er1       1.0  0.96900  0.75000  0.18800  1.0000
  Er  Er2       1.0  0.46900  0.75000  0.31200  1.0000
  Er  Er3       1.0  0.53100  0.25000  0.68800  1.0000
  Er  Er4       1.0  0.03130  0.25000  0.81200  1.0000
  P   P1        1.0  0.24900  0.25000  0.12300  1.0000
  P   P2        1.0  0.74900  0.25000  0.37700  1.0000
  P   P3        1.0  0.25100  0.75000  0.62300  1.0000
  P   P4        1.0  0.75100  0.75000  0.87700  1.0000
  Pd  Pd1       1.0  0.64700  0.25000  0.06180  1.0000
  Pd  Pd2       1.0  0.14700  0.25000  0.43800  1.0000
  Pd  Pd3       1.0  0.85300  0.75000  0.56200  1.0000
  Pd  Pd4       1.0  0.35300  0.75000  0.93800  1.0000
