data_image0
_chemical_formula_structural       HgO2Sr
_chemical_formula_sum              "Hg1 O2 Sr1"
_cell_length_a       3.81602
_cell_length_b       3.81602
_cell_length_c       6.77762
_cell_angle_alpha    73.6493
_cell_angle_beta     106.351
_cell_angle_gamma    120

_space_group_name_H-M_alt    "P 1"
_space_group_IT_number       1

loop_
  _space_group_symop_operation_xyz
  'x, y, z'

loop_
  _atom_site_type_symbol
  _atom_site_label
  _atom_site_symmetry_multiplicity
  _atom_site_fract_x
  _atom_site_fract_y
  _atom_site_fract_z
  _atom_site_occupancy
  Hg  Hg1       1.0  0.00000  0.00000  0.00000  1.0000
  O   O1        1.0  0.10400  0.89600  0.31100  1.0000
  O   O2        1.0  0.89600  0.10400  0.68900  1.0000
  Sr  Sr1       1.0  0.50000  0.50000  0.50000  1.0000
