data_image0
_chemical_formula_structural       Au2Bi2K4
_chemical_formula_sum              "Au2 Bi2 K4"
_cell_length_a       6.74731
_cell_length_b       6.71247
_cell_length_c       6.71247
_cell_angle_alpha    73.1941
_cell_angle_beta     90
_cell_angle_gamma    90

_space_group_name_H-M_alt    "P 1"
_space_group_IT_number       1

loop_
  _space_group_symop_operation_xyz
  'x, y, z'

loop_
  _atom_site_type_symbol
  _atom_site_label
  _atom_site_symmetry_multiplicity
  _atom_site_fract_x
  _atom_site_fract_y
  _atom_site_fract_z
  _atom_site_occupancy
  Au  Au1       1.0  0.00000  0.00000  0.00000  1.0000
  Au  Au2       1.0  0.50000  0.00000  0.00000  1.0000
  Bi  Bi1       1.0  0.75000  0.72400  0.27600  1.0000
  Bi  Bi2       1.0  0.25000  0.27600  0.72400  1.0000
  K   K1        1.0  0.25000  0.50200  0.15400  1.0000
  K   K2        1.0  0.25000  0.84600  0.49800  1.0000
  K   K3        1.0  0.75000  0.15400  0.50200  1.0000
  K   K4        1.0  0.75000  0.49800  0.84600  1.0000
