data_image0
_chemical_formula_structural       K2PaZn
_chemical_formula_sum              "K2 Pa1 Zn1"
_cell_length_a       6.0931
_cell_length_b       6.0931
_cell_length_c       6.0931
_cell_angle_alpha    59.4348
_cell_angle_beta     59.4348
_cell_angle_gamma    59.4348

_space_group_name_H-M_alt    "P 1"
_space_group_IT_number       1

loop_
  _space_group_symop_operation_xyz
  'x, y, z'

loop_
  _atom_site_type_symbol
  _atom_site_label
  _atom_site_symmetry_multiplicity
  _atom_site_fract_x
  _atom_site_fract_y
  _atom_site_fract_z
  _atom_site_occupancy
  K   K1        1.0  0.00139  0.00139  0.00139  1.0000
  K   K2        1.0  0.49900  0.49900  0.49900  1.0000
  Pa  Pa1       1.0  0.25000  0.25000  0.25000  1.0000
  Zn  Zn1       1.0  0.75000  0.75000  0.75000  1.0000
