data_image0
_chemical_formula_structural       Mn4Nb4P4
_chemical_formula_sum              "Mn4 Nb4 P4"
_cell_length_a       6.17654
_cell_length_b       3.57146
_cell_length_c       7.16196
_cell_angle_alpha    90
_cell_angle_beta     90
_cell_angle_gamma    90

_space_group_name_H-M_alt    "P 1"
_space_group_IT_number       1

loop_
  _space_group_symop_operation_xyz
  'x, y, z'

loop_
  _atom_site_type_symbol
  _atom_site_label
  _atom_site_symmetry_multiplicity
  _atom_site_fract_x
  _atom_site_fract_y
  _atom_site_fract_z
  _atom_site_occupancy
  Mn  Mn1       1.0  0.36000  0.75000  0.05860  1.0000
  Mn  Mn2       1.0  0.86000  0.75000  0.44100  1.0000
  Mn  Mn3       1.0  0.14000  0.25000  0.55900  1.0000
  Mn  Mn4       1.0  0.64000  0.25000  0.94100  1.0000
  Nb  Nb1       1.0  0.02810  0.25000  0.17400  1.0000
  Nb  Nb2       1.0  0.52800  0.25000  0.32600  1.0000
  Nb  Nb3       1.0  0.47200  0.75000  0.67400  1.0000
  Nb  Nb4       1.0  0.97200  0.75000  0.82600  1.0000
  P   P1        1.0  0.72800  0.75000  0.12800  1.0000
  P   P2        1.0  0.22800  0.75000  0.37200  1.0000
  P   P3        1.0  0.77200  0.25000  0.62800  1.0000
  P   P4        1.0  0.27200  0.25000  0.87200  1.0000
