data_image0
_chemical_formula_structural       Pt4Rb2Se6
_chemical_formula_sum              "Pt4 Rb2 Se6"
_cell_length_a       7.47565
_cell_length_b       7.47565
_cell_length_c       7.95486
_cell_angle_alpha    118.026
_cell_angle_beta     61.9735
_cell_angle_gamma    120

_space_group_name_H-M_alt    "P 1"
_space_group_IT_number       1

loop_
  _space_group_symop_operation_xyz
  'x, y, z'

loop_
  _atom_site_type_symbol
  _atom_site_label
  _atom_site_symmetry_multiplicity
  _atom_site_fract_x
  _atom_site_fract_y
  _atom_site_fract_z
  _atom_site_occupancy
  Pt  Pt1       1.0  0.00000  0.00000  0.00000  1.0000
  Pt  Pt2       1.0  0.00000  0.50000  0.00000  1.0000
  Pt  Pt3       1.0  0.50000  0.00000  0.00000  1.0000
  Pt  Pt4       1.0  0.50000  0.50000  0.00000  1.0000
  Rb  Rb1       1.0  0.19900  0.80100  0.40200  1.0000
  Rb  Rb2       1.0  0.80100  0.19900  0.59800  1.0000
  Se  Se1       1.0  0.28000  0.23300  0.18700  1.0000
  Se  Se2       1.0  0.76700  0.23300  0.18700  1.0000
  Se  Se3       1.0  0.76700  0.72000  0.18700  1.0000
  Se  Se4       1.0  0.23300  0.28000  0.81300  1.0000
  Se  Se5       1.0  0.23300  0.76700  0.81300  1.0000
  Se  Se6       1.0  0.72000  0.76700  0.81300  1.0000
