data_image0
_chemical_formula_structural       Nd2O8Ta2
_chemical_formula_sum              "Nd2 O8 Ta2"
_cell_length_a       5.11832
_cell_length_b       5.50293
_cell_length_c       6.65565
_cell_angle_alpha    112.034
_cell_angle_beta     110.083
_cell_angle_gamma    95.7095

_space_group_name_H-M_alt    "P 1"
_space_group_IT_number       1

loop_
  _space_group_symop_operation_xyz
  'x, y, z'

loop_
  _atom_site_type_symbol
  _atom_site_label
  _atom_site_symmetry_multiplicity
  _atom_site_fract_x
  _atom_site_fract_y
  _atom_site_fract_z
  _atom_site_occupancy
  Nd  Nd1       1.0  0.11800  0.36800  0.23600  1.0000
  Nd  Nd2       1.0  0.88200  0.63200  0.76400  1.0000
  O   O1        1.0  0.30200  0.64100  0.08510  1.0000
  O   O2        1.0  0.78300  0.94400  0.08510  1.0000
  O   O3        1.0  0.50100  0.20600  0.43800  1.0000
  O   O4        1.0  0.93700  0.73200  0.43800  1.0000
  O   O5        1.0  0.06310  0.26800  0.56200  1.0000
  O   O6        1.0  0.49900  0.79400  0.56200  1.0000
  O   O7        1.0  0.21700  0.05570  0.91500  1.0000
  O   O8        1.0  0.69800  0.35900  0.91500  1.0000
  Ta  Ta1       1.0  0.65200  0.90200  0.30300  1.0000
  Ta  Ta2       1.0  0.34800  0.09850  0.69700  1.0000
