data_image0
_chemical_formula_structural       As4Ho4Pd4
_chemical_formula_sum              "As4 Ho4 Pd4"
_cell_length_a       7.01906
_cell_length_b       4.12491
_cell_length_c       7.91844
_cell_angle_alpha    90
_cell_angle_beta     90
_cell_angle_gamma    90

_space_group_name_H-M_alt    "P 1"
_space_group_IT_number       1

loop_
  _space_group_symop_operation_xyz
  'x, y, z'

loop_
  _atom_site_type_symbol
  _atom_site_label
  _atom_site_symmetry_multiplicity
  _atom_site_fract_x
  _atom_site_fract_y
  _atom_site_fract_z
  _atom_site_occupancy
  As  As1       1.0  0.25000  0.25000  0.12000  1.0000
  As  As2       1.0  0.75000  0.25000  0.38000  1.0000
  As  As3       1.0  0.25000  0.75000  0.62000  1.0000
  As  As4       1.0  0.75000  0.75000  0.88000  1.0000
  Ho  Ho1       1.0  0.97000  0.75000  0.19200  1.0000
  Ho  Ho2       1.0  0.47000  0.75000  0.30800  1.0000
  Ho  Ho3       1.0  0.53000  0.25000  0.69200  1.0000
  Ho  Ho4       1.0  0.03010  0.25000  0.80800  1.0000
  Pd  Pd1       1.0  0.64500  0.25000  0.06310  1.0000
  Pd  Pd2       1.0  0.14500  0.25000  0.43700  1.0000
  Pd  Pd3       1.0  0.85500  0.75000  0.56300  1.0000
  Pd  Pd4       1.0  0.35500  0.75000  0.93700  1.0000
