data_image0
_chemical_formula_structural       K4S6Ti2
_chemical_formula_sum              "K4 S6 Ti2"
_cell_length_a       6.51711
_cell_length_b       7.21982
_cell_length_c       7.21982
_cell_angle_alpha    70.9461
_cell_angle_beta     91.3872
_cell_angle_gamma    91.3872

_space_group_name_H-M_alt    "P 1"
_space_group_IT_number       1

loop_
  _space_group_symop_operation_xyz
  'x, y, z'

loop_
  _atom_site_type_symbol
  _atom_site_label
  _atom_site_symmetry_multiplicity
  _atom_site_fract_x
  _atom_site_fract_y
  _atom_site_fract_z
  _atom_site_occupancy
  K   K1        1.0  0.76300  0.50600  0.17600  1.0000
  K   K2        1.0  0.73700  0.82400  0.49400  1.0000
  K   K3        1.0  0.26300  0.17600  0.50600  1.0000
  K   K4        1.0  0.23700  0.49400  0.82400  1.0000
  S   S1        1.0  0.50000  0.14500  0.13200  1.0000
  S   S2        1.0  0.00002  0.13200  0.14500  1.0000
  S   S3        1.0  0.25000  0.65100  0.34900  1.0000
  S   S4        1.0  0.75000  0.34900  0.65100  1.0000
  S   S5        1.0  0.00000  0.86800  0.85500  1.0000
  S   S6        1.0  0.50000  0.85500  0.86800  1.0000
  Ti  Ti1       1.0  0.25000  0.91500  0.08460  1.0000
  Ti  Ti2       1.0  0.75000  0.08460  0.91500  1.0000
