data_image0
_chemical_formula_structural       N6Na2Si4
_chemical_formula_sum              "N6 Na2 Si4"
_cell_length_a       4.87873
_cell_length_b       5.47744
_cell_length_c       5.47744
_cell_angle_alpha    60.2389
_cell_angle_beta     90
_cell_angle_gamma    90

_space_group_name_H-M_alt    "P 1"
_space_group_IT_number       1

loop_
  _space_group_symop_operation_xyz
  'x, y, z'

loop_
  _atom_site_type_symbol
  _atom_site_label
  _atom_site_symmetry_multiplicity
  _atom_site_fract_x
  _atom_site_fract_y
  _atom_site_fract_z
  _atom_site_occupancy
  N   N1        1.0  0.36000  0.34400  0.09290  1.0000
  N   N2        1.0  0.46800  0.77200  0.22800  1.0000
  N   N3        1.0  0.86000  0.09290  0.34400  1.0000
  N   N4        1.0  0.36000  0.90700  0.65600  1.0000
  N   N5        1.0  0.96800  0.22800  0.77200  1.0000
  N   N6        1.0  0.86000  0.65600  0.90700  1.0000
  Na  Na1       1.0  0.98500  0.66200  0.33800  1.0000
  Na  Na2       1.0  0.48500  0.33800  0.66200  1.0000
  Si  Si1       1.0  0.01200  0.32400  0.01660  1.0000
  Si  Si2       1.0  0.51200  0.01660  0.32400  1.0000
  Si  Si3       1.0  0.01200  0.98300  0.67600  1.0000
  Si  Si4       1.0  0.51200  0.67600  0.98300  1.0000
