data_image0
_chemical_formula_structural       Ba3Cl2In2O5
_chemical_formula_sum              "Ba3 Cl2 In2 O5"
_cell_length_a       4.26588
_cell_length_b       4.26588
_cell_length_c       12.9113
_cell_angle_alpha    99.5089
_cell_angle_beta     99.5089
_cell_angle_gamma    90

_space_group_name_H-M_alt    "P 1"
_space_group_IT_number       1

loop_
  _space_group_symop_operation_xyz
  'x, y, z'

loop_
  _atom_site_type_symbol
  _atom_site_label
  _atom_site_symmetry_multiplicity
  _atom_site_fract_x
  _atom_site_fract_y
  _atom_site_fract_z
  _atom_site_occupancy
  Ba  Ba1       1.0  0.50000  0.50000  0.00000  1.0000
  Ba  Ba2       1.0  0.66200  0.66200  0.32300  1.0000
  Ba  Ba3       1.0  0.33800  0.33800  0.67700  1.0000
  Cl  Cl1       1.0  0.20500  0.20500  0.41100  1.0000
  Cl  Cl2       1.0  0.79500  0.79500  0.58900  1.0000
  In  In1       1.0  0.08270  0.08270  0.16500  1.0000
  In  In2       1.0  0.91700  0.91700  0.83500  1.0000
  O   O1        1.0  0.00000  0.00000  0.00000  1.0000
  O   O2        1.0  0.59400  0.09390  0.18800  1.0000
  O   O3        1.0  0.09390  0.59400  0.18800  1.0000
  O   O4        1.0  0.90600  0.40600  0.81200  1.0000
  O   O5        1.0  0.40600  0.90600  0.81200  1.0000
