data_image0
_chemical_formula_structural       Br2Mn
_chemical_formula_sum              "Br2 Mn1"
_cell_length_a       3.88576
_cell_length_b       3.88576
_cell_length_c       6.73726
_cell_angle_alpha    106.761
_cell_angle_beta     73.2391
_cell_angle_gamma    120

_space_group_name_H-M_alt    "P 1"
_space_group_IT_number       1

loop_
  _space_group_symop_operation_xyz
  'x, y, z'

loop_
  _atom_site_type_symbol
  _atom_site_label
  _atom_site_symmetry_multiplicity
  _atom_site_fract_x
  _atom_site_fract_y
  _atom_site_fract_z
  _atom_site_occupancy
  Br  Br1       1.0  0.25400  0.74600  0.23700  1.0000
  Br  Br2       1.0  0.74600  0.25400  0.76300  1.0000
  Mn  Mn1       1.0  0.00000  0.00000  0.00000  1.0000
