data_image0
_chemical_formula_structural       Er2O8V2
_chemical_formula_sum              "Er2 O8 V2"
_cell_length_a       5.89282
_cell_length_b       5.89282
_cell_length_c       5.89282
_cell_angle_alpha    106.396
_cell_angle_beta     115.814
_cell_angle_gamma    106.396

_space_group_name_H-M_alt    "P 1"
_space_group_IT_number       1

loop_
  _space_group_symop_operation_xyz
  'x, y, z'

loop_
  _atom_site_type_symbol
  _atom_site_label
  _atom_site_symmetry_multiplicity
  _atom_site_fract_x
  _atom_site_fract_y
  _atom_site_fract_z
  _atom_site_occupancy
  Er  Er1       1.0  0.00000  0.00000  0.00000  1.0000
  Er  Er2       1.0  0.75000  0.50000  0.25000  1.0000
  O   O1        1.0  0.50900  0.18700  0.32200  1.0000
  O   O2        1.0  0.13600  0.81300  0.32200  1.0000
  O   O3        1.0  0.07220  0.31300  0.38600  1.0000
  O   O4        1.0  0.67800  0.81300  0.49100  1.0000
  O   O5        1.0  0.07220  0.68700  0.75900  1.0000
  O   O6        1.0  0.67800  0.18700  0.86400  1.0000
  O   O7        1.0  0.24100  0.31300  0.92800  1.0000
  O   O8        1.0  0.61400  0.68700  0.92800  1.0000
  V   V1        1.0  0.50000  0.00000  0.50000  1.0000
  V   V2        1.0  0.25000  0.50000  0.75000  1.0000
