data_image0
_chemical_formula_structural       P2S8Sc2
_chemical_formula_sum              "P2 S8 Sc2"
_cell_length_a       6.48865
_cell_length_b       6.77136
_cell_length_c       6.2309
_cell_angle_alpha    91.4934
_cell_angle_beta     98.6863
_cell_angle_gamma    86.2563

_space_group_name_H-M_alt    "P 1"
_space_group_IT_number       1

loop_
  _space_group_symop_operation_xyz
  'x, y, z'

loop_
  _atom_site_type_symbol
  _atom_site_label
  _atom_site_symmetry_multiplicity
  _atom_site_fract_x
  _atom_site_fract_y
  _atom_site_fract_z
  _atom_site_occupancy
  P   P1        1.0  0.73600  0.19000  0.31000  1.0000
  P   P2        1.0  0.26400  0.81000  0.69000  1.0000
  S   S1        1.0  0.47300  0.25300  0.08330  1.0000
  S   S2        1.0  0.96400  0.21400  0.11800  1.0000
  S   S3        1.0  0.71500  0.90200  0.40300  1.0000
  S   S4        1.0  0.23600  0.63600  0.42200  1.0000
  S   S5        1.0  0.76400  0.36400  0.57800  1.0000
  S   S6        1.0  0.28500  0.09810  0.59700  1.0000
  S   S7        1.0  0.03580  0.78600  0.88200  1.0000
  S   S8        1.0  0.52700  0.74700  0.91700  1.0000
  Sc  Sc1       1.0  0.30400  0.93500  0.20500  1.0000
  Sc  Sc2       1.0  0.69600  0.06510  0.79500  1.0000
