data_image0
_chemical_formula_structural       Cs4Se6Sn2
_chemical_formula_sum              "Cs4 Se6 Sn2"
_cell_length_a       7.572
_cell_length_b       8.3691
_cell_length_c       9.73826
_cell_angle_alpha    92.7056
_cell_angle_beta     112.878
_cell_angle_gamma    63.1036

_space_group_name_H-M_alt    "P 1"
_space_group_IT_number       1

loop_
  _space_group_symop_operation_xyz
  'x, y, z'

loop_
  _atom_site_type_symbol
  _atom_site_label
  _atom_site_symmetry_multiplicity
  _atom_site_fract_x
  _atom_site_fract_y
  _atom_site_fract_z
  _atom_site_occupancy
  Cs  Cs1       1.0  0.21600  0.69800  0.12900  1.0000
  Cs  Cs2       1.0  0.62800  0.06190  0.31800  1.0000
  Cs  Cs3       1.0  0.37200  0.93800  0.68200  1.0000
  Cs  Cs4       1.0  0.78400  0.30200  0.87100  1.0000
  Se  Se1       1.0  0.69900  0.69000  0.08780  1.0000
  Se  Se2       1.0  0.07660  0.12100  0.27500  1.0000
  Se  Se3       1.0  0.25700  0.50000  0.50000  1.0000
  Se  Se4       1.0  0.74300  0.50000  0.50000  1.0000
  Se  Se5       1.0  0.92300  0.87900  0.72500  1.0000
  Se  Se6       1.0  0.30100  0.31000  0.91200  1.0000
  Sn  Sn1       1.0  0.93300  0.44600  0.31300  1.0000
  Sn  Sn2       1.0  0.06660  0.55400  0.68700  1.0000
