data_image0
_chemical_formula_structural       O6Rb4Te2
_chemical_formula_sum              "O6 Rb4 Te2"
_cell_length_a       6.40736
_cell_length_b       6.62521
_cell_length_c       7.3598
_cell_angle_alpha    82.654
_cell_angle_beta     90
_cell_angle_gamma    61.0819

_space_group_name_H-M_alt    "P 1"
_space_group_IT_number       1

loop_
  _space_group_symop_operation_xyz
  'x, y, z'

loop_
  _atom_site_type_symbol
  _atom_site_label
  _atom_site_symmetry_multiplicity
  _atom_site_fract_x
  _atom_site_fract_y
  _atom_site_fract_z
  _atom_site_occupancy
  O   O1        1.0  0.16000  0.23000  0.20500  1.0000
  O   O2        1.0  0.61000  0.23000  0.20500  1.0000
  O   O3        1.0  0.18400  0.63200  0.30200  1.0000
  O   O4        1.0  0.81600  0.36800  0.69800  1.0000
  O   O5        1.0  0.39000  0.77000  0.79500  1.0000
  O   O6        1.0  0.84000  0.77000  0.79500  1.0000
  Rb  Rb1       1.0  0.00000  0.00000  0.00000  1.0000
  Rb  Rb2       1.0  0.67800  0.64400  0.15000  1.0000
  Rb  Rb3       1.0  1.00000  0.00000  0.50000  1.0000
  Rb  Rb4       1.0  0.32200  0.35600  0.85000  1.0000
  Te  Te1       1.0  0.34800  0.30500  0.35000  1.0000
  Te  Te2       1.0  0.65200  0.69500  0.65000  1.0000
