data_image0
_chemical_formula_structural       Ba2F8Fe2
_chemical_formula_sum              "Ba2 F8 Fe2"
_cell_length_a       4.26842
_cell_length_b       5.56024
_cell_length_c       7.50699
_cell_angle_alpha    89.999
_cell_angle_beta     73.4832
_cell_angle_gamma    90

_space_group_name_H-M_alt    "P 1"
_space_group_IT_number       1

loop_
  _space_group_symop_operation_xyz
  'x, y, z'

loop_
  _atom_site_type_symbol
  _atom_site_label
  _atom_site_symmetry_multiplicity
  _atom_site_fract_x
  _atom_site_fract_y
  _atom_site_fract_z
  _atom_site_occupancy
  Ba  Ba1       1.0  0.85600  0.46600  0.28800  1.0000
  Ba  Ba2       1.0  0.14400  0.96600  0.71200  1.0000
  F   F1        1.0  0.46800  0.34700  0.06340  1.0000
  F   F2        1.0  0.92300  0.98900  0.15400  1.0000
  F   F3        1.0  0.31800  0.72300  0.36400  1.0000
  F   F4        1.0  0.29900  0.20800  0.40200  1.0000
  F   F5        1.0  0.70100  0.70800  0.59800  1.0000
  F   F6        1.0  0.68200  0.22300  0.63600  1.0000
  F   F7        1.0  0.07720  0.48900  0.84600  1.0000
  F   F8        1.0  0.53200  0.84700  0.93700  1.0000
  Fe  Fe1       1.0  0.40800  0.99300  0.18300  1.0000
  Fe  Fe2       1.0  0.59200  0.49300  0.81700  1.0000
