data_image0
_chemical_formula_structural       Cu6Se4Tl2
_chemical_formula_sum              "Cu6 Se4 Tl2"
_cell_length_a       3.9667
_cell_length_b       7.82215
_cell_length_c       8.49991
_cell_angle_alpha    110.507
_cell_angle_beta     90
_cell_angle_gamma    104.688

_space_group_name_H-M_alt    "P 1"
_space_group_IT_number       1

loop_
  _space_group_symop_operation_xyz
  'x, y, z'

loop_
  _atom_site_type_symbol
  _atom_site_label
  _atom_site_symmetry_multiplicity
  _atom_site_fract_x
  _atom_site_fract_y
  _atom_site_fract_z
  _atom_site_occupancy
  Cu  Cu1       1.0  0.41700  0.83300  0.37400  1.0000
  Cu  Cu2       1.0  0.05850  0.11700  0.40900  1.0000
  Cu  Cu3       1.0  0.68800  0.37600  0.44700  1.0000
  Cu  Cu4       1.0  0.31200  0.62400  0.55300  1.0000
  Cu  Cu5       1.0  0.94200  0.88300  0.59100  1.0000
  Cu  Cu6       1.0  0.58300  0.16700  0.62600  1.0000
  Se  Se1       1.0  0.52400  0.04730  0.22400  1.0000
  Se  Se2       1.0  0.80600  0.61100  0.31700  1.0000
  Se  Se3       1.0  0.19400  0.38900  0.68300  1.0000
  Se  Se4       1.0  0.47600  0.95300  0.77600  1.0000
  Tl  Tl1       1.0  0.13900  0.27900  0.04980  1.0000
  Tl  Tl2       1.0  0.86100  0.72100  0.95000  1.0000
