data_image0
_chemical_formula_structural       Ge4Pd4
_chemical_formula_sum              "Ge4 Pd4"
_cell_length_a       6.35964
_cell_length_b       5.86614
_cell_length_c       3.5578
_cell_angle_alpha    90
_cell_angle_beta     90
_cell_angle_gamma    90

_space_group_name_H-M_alt    "P 1"
_space_group_IT_number       1

loop_
  _space_group_symop_operation_xyz
  'x, y, z'

loop_
  _atom_site_type_symbol
  _atom_site_label
  _atom_site_symmetry_multiplicity
  _atom_site_fract_x
  _atom_site_fract_y
  _atom_site_fract_z
  _atom_site_occupancy
  Ge  Ge1       1.0  0.57600  0.18600  0.25000  1.0000
  Ge  Ge2       1.0  0.92400  0.68600  0.25000  1.0000
  Ge  Ge3       1.0  0.07580  0.31400  0.75000  1.0000
  Ge  Ge4       1.0  0.42400  0.81400  0.75000  1.0000
  Pd  Pd1       1.0  0.19100  0.00406  0.25000  1.0000
  Pd  Pd2       1.0  0.30900  0.50400  0.25000  1.0000
  Pd  Pd3       1.0  0.69100  0.49600  0.75000  1.0000
  Pd  Pd4       1.0  0.80900  0.99600  0.75000  1.0000
