data_image0
_chemical_formula_structural       La4O7Pd
_chemical_formula_sum              "La4 O7 Pd1"
_cell_length_a       4.0528
_cell_length_b       6.97577
_cell_length_c       7.08108
_cell_angle_alpha    92.526
_cell_angle_beta     106.629
_cell_angle_gamma    73.1126

_space_group_name_H-M_alt    "P 1"
_space_group_IT_number       1

loop_
  _space_group_symop_operation_xyz
  'x, y, z'

loop_
  _atom_site_type_symbol
  _atom_site_label
  _atom_site_symmetry_multiplicity
  _atom_site_fract_x
  _atom_site_fract_y
  _atom_site_fract_z
  _atom_site_occupancy
  La  La1       1.0  0.40900  0.34000  0.15800  1.0000
  La  La2       1.0  0.80200  0.78200  0.38600  1.0000
  La  La3       1.0  0.19800  0.21800  0.61400  1.0000
  La  La4       1.0  0.59100  0.66000  0.84200  1.0000
  O   O1        1.0  0.50000  0.00000  0.00000  1.0000
  O   O2        1.0  0.20100  0.71100  0.11300  1.0000
  O   O3        1.0  0.93800  0.43000  0.30600  1.0000
  O   O4        1.0  0.65000  0.14600  0.44600  1.0000
  O   O5        1.0  0.35000  0.85400  0.55400  1.0000
  O   O6        1.0  0.06190  0.57000  0.69400  1.0000
  O   O7        1.0  0.79900  0.28900  0.88700  1.0000
  Pd  Pd1       1.0  0.00000  0.00000  0.00000  1.0000
