data_image0
_chemical_formula_structural       Ca3Cl2Fe2O5
_chemical_formula_sum              "Ca3 Cl2 Fe2 O5"
_cell_length_a       3.87923
_cell_length_b       3.87923
_cell_length_c       11.7514
_cell_angle_alpha    99.5004
_cell_angle_beta     99.5004
_cell_angle_gamma    90

_space_group_name_H-M_alt    "P 1"
_space_group_IT_number       1

loop_
  _space_group_symop_operation_xyz
  'x, y, z'

loop_
  _atom_site_type_symbol
  _atom_site_label
  _atom_site_symmetry_multiplicity
  _atom_site_fract_x
  _atom_site_fract_y
  _atom_site_fract_z
  _atom_site_occupancy
  Ca  Ca1       1.0  0.50000  0.50000  0.00000  1.0000
  Ca  Ca2       1.0  0.65600  0.65600  0.31300  1.0000
  Ca  Ca3       1.0  0.34400  0.34400  0.68700  1.0000
  Cl  Cl1       1.0  0.20600  0.20600  0.41200  1.0000
  Cl  Cl2       1.0  0.79400  0.79400  0.58800  1.0000
  Fe  Fe1       1.0  0.08320  0.08320  0.16600  1.0000
  Fe  Fe2       1.0  0.91700  0.91700  0.83400  1.0000
  O   O1        1.0  0.00000  0.00000  0.00000  1.0000
  O   O2        1.0  0.59400  0.09430  0.18900  1.0000
  O   O3        1.0  0.09430  0.59400  0.18900  1.0000
  O   O4        1.0  0.90600  0.40600  0.81100  1.0000
  O   O5        1.0  0.40600  0.90600  0.81100  1.0000
