data_image0
_chemical_formula_structural       BiCuO8W2
_chemical_formula_sum              "Bi1 Cu1 O8 W2"
_cell_length_a       6.05821
_cell_length_b       6.09457
_cell_length_c       5.00874
_cell_angle_alpha    113.195
_cell_angle_beta     91.7327
_cell_angle_gamma    109.719

_space_group_name_H-M_alt    "P 1"
_space_group_IT_number       1

loop_
  _space_group_symop_operation_xyz
  'x, y, z'

loop_
  _atom_site_type_symbol
  _atom_site_label
  _atom_site_symmetry_multiplicity
  _atom_site_fract_x
  _atom_site_fract_y
  _atom_site_fract_z
  _atom_site_occupancy
  Bi  Bi1       1.0  0.70900  0.09740  0.63500  1.0000
  Cu  Cu1       1.0  0.21500  0.10100  0.14400  1.0000
  O   O1        1.0  0.23400  0.39500  0.09980  1.0000
  O   O2        1.0  0.65300  0.82500  0.13200  1.0000
  O   O3        1.0  0.77300  0.37000  0.14000  1.0000
  O   O4        1.0  0.19100  0.80300  0.18000  1.0000
  O   O5        1.0  0.04670  0.40800  0.60400  1.0000
  O   O6        1.0  0.48500  0.34700  0.62500  1.0000
  O   O7        1.0  0.93100  0.84800  0.64700  1.0000
  O   O8        1.0  0.37500  0.79200  0.67700  1.0000
  W   W1        1.0  0.04020  0.62100  0.39500  1.0000
  W   W2        1.0  0.38200  0.57600  0.88300  1.0000
