data_image0
_chemical_formula_structural       Br2Fe2O5Sr3
_chemical_formula_sum              "Br2 Fe2 O5 Sr3"
_cell_length_a       3.97767
_cell_length_b       3.97767
_cell_length_c       12.9557
_cell_angle_alpha    98.8304
_cell_angle_beta     98.8304
_cell_angle_gamma    90

_space_group_name_H-M_alt    "P 1"
_space_group_IT_number       1

loop_
  _space_group_symop_operation_xyz
  'x, y, z'

loop_
  _atom_site_type_symbol
  _atom_site_label
  _atom_site_symmetry_multiplicity
  _atom_site_fract_x
  _atom_site_fract_y
  _atom_site_fract_z
  _atom_site_occupancy
  Br  Br1       1.0  0.70100  0.70100  0.40100  1.0000
  Br  Br2       1.0  0.29900  0.29900  0.59900  1.0000
  Fe  Fe1       1.0  0.57500  0.57500  0.15000  1.0000
  Fe  Fe2       1.0  0.42500  0.42500  0.85000  1.0000
  O   O1        1.0  0.50000  0.50000  0.00000  1.0000
  O   O2        1.0  0.58500  0.08500  0.17000  1.0000
  O   O3        1.0  0.08500  0.58500  0.17000  1.0000
  O   O4        1.0  0.91500  0.41500  0.83000  1.0000
  O   O5        1.0  0.41500  0.91500  0.83000  1.0000
  Sr  Sr1       1.0  0.00000  0.00000  0.00000  1.0000
  Sr  Sr2       1.0  0.14700  0.14700  0.29400  1.0000
  Sr  Sr3       1.0  0.85300  0.85300  0.70600  1.0000
