data_image0
_chemical_formula_structural       Ba2Cu3O6Y
_chemical_formula_sum              "Ba2 Cu3 O6 Y1"
_cell_length_a       3.84998
_cell_length_b       3.84998
_cell_length_c       11.8286
_cell_angle_alpha    90
_cell_angle_beta     90
_cell_angle_gamma    90

_space_group_name_H-M_alt    "P 1"
_space_group_IT_number       1

loop_
  _space_group_symop_operation_xyz
  'x, y, z'

loop_
  _atom_site_type_symbol
  _atom_site_label
  _atom_site_symmetry_multiplicity
  _atom_site_fract_x
  _atom_site_fract_y
  _atom_site_fract_z
  _atom_site_occupancy
  Ba  Ba1       1.0  0.50000  0.50000  0.19300  1.0000
  Ba  Ba2       1.0  0.50000  0.50000  0.80700  1.0000
  Cu  Cu1       1.0  0.00000  0.00000  0.00000  1.0000
  Cu  Cu2       1.0  0.00000  0.00000  0.36200  1.0000
  Cu  Cu3       1.0  0.00000  0.00000  0.63800  1.0000
  O   O1        1.0  0.00000  0.00000  0.15200  1.0000
  O   O2        1.0  0.50000  0.00000  0.37800  1.0000
  O   O3        1.0  0.00000  0.50000  0.37900  1.0000
  O   O4        1.0  0.50000  0.00000  0.62100  1.0000
  O   O5        1.0  0.00000  0.50000  0.62200  1.0000
  O   O6        1.0  0.00000  0.00000  0.84800  1.0000
  Y   Y1        1.0  0.50000  0.50000  0.50000  1.0000
