data_image0
_chemical_formula_structural       CuNdO8W2
_chemical_formula_sum              "Cu1 Nd1 O8 W2"
_cell_length_a       6.10906
_cell_length_b       6.10617
_cell_length_c       5.00873
_cell_angle_alpha    112.394
_cell_angle_beta     92.9212
_cell_angle_gamma    110.111

_space_group_name_H-M_alt    "P 1"
_space_group_IT_number       1

loop_
  _space_group_symop_operation_xyz
  'x, y, z'

loop_
  _atom_site_type_symbol
  _atom_site_label
  _atom_site_symmetry_multiplicity
  _atom_site_fract_x
  _atom_site_fract_y
  _atom_site_fract_z
  _atom_site_occupancy
  Cu  Cu1       1.0  0.23600  0.11000  0.14000  1.0000
  Nd  Nd1       1.0  0.73100  0.10100  0.63700  1.0000
  O   O1        1.0  0.23300  0.39100  0.07850  1.0000
  O   O2        1.0  0.66000  0.82600  0.12700  1.0000
  O   O3        1.0  0.78300  0.37900  0.13400  1.0000
  O   O4        1.0  0.20800  0.80800  0.16800  1.0000
  O   O5        1.0  0.05860  0.40900  0.58700  1.0000
  O   O6        1.0  0.49900  0.34900  0.62600  1.0000
  O   O7        1.0  0.95500  0.85200  0.63300  1.0000
  O   O8        1.0  0.39200  0.78900  0.66000  1.0000
  W   W1        1.0  0.05650  0.62700  0.38400  1.0000
  W   W2        1.0  0.39300  0.57400  0.86900  1.0000
