data_image0
_chemical_formula_structural       Pt4Pu8
_chemical_formula_sum              "Pt4 Pu8"
_cell_length_a       7.35347
_cell_length_b       4.30744
_cell_length_c       9.26284
_cell_angle_alpha    90
_cell_angle_beta     90
_cell_angle_gamma    90

_space_group_name_H-M_alt    "P 1"
_space_group_IT_number       1

loop_
  _space_group_symop_operation_xyz
  'x, y, z'

loop_
  _atom_site_type_symbol
  _atom_site_label
  _atom_site_symmetry_multiplicity
  _atom_site_fract_x
  _atom_site_fract_y
  _atom_site_fract_z
  _atom_site_occupancy
  Pt  Pt1       1.0  0.25800  0.25000  0.12000  1.0000
  Pt  Pt2       1.0  0.75800  0.25000  0.38000  1.0000
  Pt  Pt3       1.0  0.24200  0.75000  0.62000  1.0000
  Pt  Pt4       1.0  0.74200  0.75000  0.88000  1.0000
  Pu  Pu1       1.0  0.85700  0.25000  0.07520  1.0000
  Pu  Pu2       1.0  0.53500  0.75000  0.17300  1.0000
  Pu  Pu3       1.0  0.03540  0.75000  0.32700  1.0000
  Pu  Pu4       1.0  0.35700  0.25000  0.42500  1.0000
  Pu  Pu5       1.0  0.64300  0.75000  0.57500  1.0000
  Pu  Pu6       1.0  0.96500  0.25000  0.67300  1.0000
  Pu  Pu7       1.0  0.46500  0.25000  0.82700  1.0000
  Pu  Pu8       1.0  0.14300  0.75000  0.92500  1.0000
