data_image0
_chemical_formula_structural       Eu4Pd4Zn4
_chemical_formula_sum              "Eu4 Pd4 Zn4"
_cell_length_a       7.22455
_cell_length_b       4.45521
_cell_length_c       7.78888
_cell_angle_alpha    90
_cell_angle_beta     90
_cell_angle_gamma    90

_space_group_name_H-M_alt    "P 1"
_space_group_IT_number       1

loop_
  _space_group_symop_operation_xyz
  'x, y, z'

loop_
  _atom_site_type_symbol
  _atom_site_label
  _atom_site_symmetry_multiplicity
  _atom_site_fract_x
  _atom_site_fract_y
  _atom_site_fract_z
  _atom_site_occupancy
  Eu  Eu1       1.0  0.48700  0.75000  0.19500  1.0000
  Eu  Eu2       1.0  0.98700  0.75000  0.30500  1.0000
  Eu  Eu3       1.0  0.01310  0.25000  0.69500  1.0000
  Eu  Eu4       1.0  0.51300  0.25000  0.80500  1.0000
  Pd  Pd1       1.0  0.79300  0.25000  0.10300  1.0000
  Pd  Pd2       1.0  0.29300  0.25000  0.39700  1.0000
  Pd  Pd3       1.0  0.70700  0.75000  0.60300  1.0000
  Pd  Pd4       1.0  0.20700  0.75000  0.89700  1.0000
  Zn  Zn1       1.0  0.16600  0.25000  0.07810  1.0000
  Zn  Zn2       1.0  0.66600  0.25000  0.42200  1.0000
  Zn  Zn3       1.0  0.33400  0.75000  0.57800  1.0000
  Zn  Zn4       1.0  0.83400  0.75000  0.92200  1.0000
