data_image0
_chemical_formula_structural       Au2Na8Tl2
_chemical_formula_sum              "Au2 Na8 Tl2"
_cell_length_a       5.48252
_cell_length_b       5.63674
_cell_length_c       11.9732
_cell_angle_alpha    96.3927
_cell_angle_beta     103.235
_cell_angle_gamma    60.901

_space_group_name_H-M_alt    "P 1"
_space_group_IT_number       1

loop_
  _space_group_symop_operation_xyz
  'x, y, z'

loop_
  _atom_site_type_symbol
  _atom_site_label
  _atom_site_symmetry_multiplicity
  _atom_site_fract_x
  _atom_site_fract_y
  _atom_site_fract_z
  _atom_site_occupancy
  Au  Au1       1.0  0.25000  0.50000  0.50000  1.0000
  Au  Au2       1.0  0.75000  0.50000  0.50000  1.0000
  Na  Na1       1.0  0.33500  0.32900  0.00000  1.0000
  Na  Na2       1.0  0.66500  0.67100  0.00000  1.0000
  Na  Na3       1.0  0.47000  0.33400  0.27400  1.0000
  Na  Na4       1.0  0.80400  0.66600  0.27400  1.0000
  Na  Na5       1.0  0.20500  0.00000  0.41100  1.0000
  Na  Na6       1.0  0.79500  0.00000  0.58900  1.0000
  Na  Na7       1.0  0.19600  0.33400  0.72600  1.0000
  Na  Na8       1.0  0.53000  0.66600  0.72600  1.0000
  Tl  Tl1       1.0  0.06650  0.00000  0.13300  1.0000
  Tl  Tl2       1.0  0.93300  0.00000  0.86700  1.0000
