data_image0
_chemical_formula_structural       Nd4Sb8
_chemical_formula_sum              "Nd4 Sb8"
_cell_length_a       4.4038
_cell_length_b       4.4038
_cell_length_c       18.3535
_cell_angle_alpha    90
_cell_angle_beta     90
_cell_angle_gamma    88.723

_space_group_name_H-M_alt    "P 1"
_space_group_IT_number       1

loop_
  _space_group_symop_operation_xyz
  'x, y, z'

loop_
  _atom_site_type_symbol
  _atom_site_label
  _atom_site_symmetry_multiplicity
  _atom_site_fract_x
  _atom_site_fract_y
  _atom_site_fract_z
  _atom_site_occupancy
  Nd  Nd1       1.0  0.63900  0.36100  0.11100  1.0000
  Nd  Nd2       1.0  0.13900  0.86100  0.38900  1.0000
  Nd  Nd3       1.0  0.86100  0.13900  0.61100  1.0000
  Nd  Nd4       1.0  0.36100  0.63900  0.88900  1.0000
  Sb  Sb1       1.0  0.13400  0.86600  0.06380  1.0000
  Sb  Sb2       1.0  0.12400  0.37600  0.25000  1.0000
  Sb  Sb3       1.0  0.62400  0.87600  0.25000  1.0000
  Sb  Sb4       1.0  0.63400  0.36600  0.43600  1.0000
  Sb  Sb5       1.0  0.36600  0.63400  0.56400  1.0000
  Sb  Sb6       1.0  0.37600  0.12400  0.75000  1.0000
  Sb  Sb7       1.0  0.87600  0.62400  0.75000  1.0000
  Sb  Sb8       1.0  0.86600  0.13400  0.93600  1.0000
