data_image0
_chemical_formula_structural       Sn4Sr8
_chemical_formula_sum              "Sn4 Sr8"
_cell_length_a       8.32965
_cell_length_b       5.3958
_cell_length_c       10.1177
_cell_angle_alpha    90
_cell_angle_beta     90
_cell_angle_gamma    90

_space_group_name_H-M_alt    "P 1"
_space_group_IT_number       1

loop_
  _space_group_symop_operation_xyz
  'x, y, z'

loop_
  _atom_site_type_symbol
  _atom_site_label
  _atom_site_symmetry_multiplicity
  _atom_site_fract_x
  _atom_site_fract_y
  _atom_site_fract_z
  _atom_site_occupancy
  Sn  Sn1       1.0  0.24900  0.25000  0.10600  1.0000
  Sn  Sn2       1.0  0.74900  0.25000  0.39400  1.0000
  Sn  Sn3       1.0  0.25100  0.75000  0.60600  1.0000
  Sn  Sn4       1.0  0.75100  0.75000  0.89400  1.0000
  Sr  Sr1       1.0  0.65900  0.25000  0.07340  1.0000
  Sr  Sr2       1.0  0.97900  0.75000  0.18300  1.0000
  Sr  Sr3       1.0  0.47900  0.75000  0.31700  1.0000
  Sr  Sr4       1.0  0.15900  0.25000  0.42700  1.0000
  Sr  Sr5       1.0  0.84100  0.75000  0.57300  1.0000
  Sr  Sr6       1.0  0.52100  0.25000  0.68300  1.0000
  Sr  Sr7       1.0  0.02080  0.25000  0.81700  1.0000
  Sr  Sr8       1.0  0.34100  0.75000  0.92700  1.0000
