data_image0
_chemical_formula_structural       In8Pd2Yb2
_chemical_formula_sum              "In8 Pd2 Yb2"
_cell_length_a       4.49207
_cell_length_b       7.58392
_cell_length_c       8.67622
_cell_angle_alpha    90
_cell_angle_beta     74.9968
_cell_angle_gamma    90

_space_group_name_H-M_alt    "P 1"
_space_group_IT_number       1

loop_
  _space_group_symop_operation_xyz
  'x, y, z'

loop_
  _atom_site_type_symbol
  _atom_site_label
  _atom_site_symmetry_multiplicity
  _atom_site_fract_x
  _atom_site_fract_y
  _atom_site_fract_z
  _atom_site_occupancy
  In  In1       1.0  0.50000  0.00000  0.00000  1.0000
  In  In2       1.0  0.50000  0.50000  0.00000  1.0000
  In  In3       1.0  0.93500  0.75000  0.13000  1.0000
  In  In4       1.0  0.31800  0.54800  0.36400  1.0000
  In  In5       1.0  0.31800  0.95200  0.36400  1.0000
  In  In6       1.0  0.68200  0.04820  0.63600  1.0000
  In  In7       1.0  0.68200  0.45200  0.63600  1.0000
  In  In8       1.0  0.06480  0.25000  0.87000  1.0000
  Pd  Pd1       1.0  0.77200  0.75000  0.45500  1.0000
  Pd  Pd2       1.0  0.22800  0.25000  0.54500  1.0000
  Yb  Yb1       1.0  0.87200  0.25000  0.25700  1.0000
  Yb  Yb2       1.0  0.12800  0.75000  0.74300  1.0000
