data_image0
_chemical_formula_structural       Ag4Sb4Yb4
_chemical_formula_sum              "Ag4 Sb4 Yb4"
_cell_length_a       7.65578
_cell_length_b       4.60736
_cell_length_c       8.37978
_cell_angle_alpha    90
_cell_angle_beta     90
_cell_angle_gamma    90

_space_group_name_H-M_alt    "P 1"
_space_group_IT_number       1

loop_
  _space_group_symop_operation_xyz
  'x, y, z'

loop_
  _atom_site_type_symbol
  _atom_site_label
  _atom_site_symmetry_multiplicity
  _atom_site_fract_x
  _atom_site_fract_y
  _atom_site_fract_z
  _atom_site_occupancy
  Ag  Ag1       1.0  0.14500  0.25000  0.06590  1.0000
  Ag  Ag2       1.0  0.64500  0.25000  0.43400  1.0000
  Ag  Ag3       1.0  0.35500  0.75000  0.56600  1.0000
  Ag  Ag4       1.0  0.85500  0.75000  0.93400  1.0000
  Sb  Sb1       1.0  0.75800  0.25000  0.11100  1.0000
  Sb  Sb2       1.0  0.25800  0.25000  0.38900  1.0000
  Sb  Sb3       1.0  0.74200  0.75000  0.61100  1.0000
  Sb  Sb4       1.0  0.24200  0.75000  0.88900  1.0000
  Yb  Yb1       1.0  0.48300  0.75000  0.19800  1.0000
  Yb  Yb2       1.0  0.98300  0.75000  0.30200  1.0000
  Yb  Yb3       1.0  0.01710  0.25000  0.69800  1.0000
  Yb  Yb4       1.0  0.51700  0.25000  0.80200  1.0000
