data_image0
_chemical_formula_structural       Eu4Pt4Zn4
_chemical_formula_sum              "Eu4 Pt4 Zn4"
_cell_length_a       7.19512
_cell_length_b       4.40813
_cell_length_c       7.79
_cell_angle_alpha    90
_cell_angle_beta     90
_cell_angle_gamma    90

_space_group_name_H-M_alt    "P 1"
_space_group_IT_number       1

loop_
  _space_group_symop_operation_xyz
  'x, y, z'

loop_
  _atom_site_type_symbol
  _atom_site_label
  _atom_site_symmetry_multiplicity
  _atom_site_fract_x
  _atom_site_fract_y
  _atom_site_fract_z
  _atom_site_occupancy
  Eu  Eu1       1.0  0.48800  0.75000  0.19300  1.0000
  Eu  Eu2       1.0  0.98800  0.75000  0.30700  1.0000
  Eu  Eu3       1.0  0.01250  0.25000  0.69300  1.0000
  Eu  Eu4       1.0  0.51200  0.25000  0.80700  1.0000
  Pt  Pt1       1.0  0.78800  0.25000  0.10400  1.0000
  Pt  Pt2       1.0  0.28800  0.25000  0.39600  1.0000
  Pt  Pt3       1.0  0.71200  0.75000  0.60400  1.0000
  Pt  Pt4       1.0  0.21200  0.75000  0.89600  1.0000
  Zn  Zn1       1.0  0.16300  0.25000  0.07740  1.0000
  Zn  Zn2       1.0  0.66300  0.25000  0.42300  1.0000
  Zn  Zn3       1.0  0.33700  0.75000  0.57700  1.0000
  Zn  Zn4       1.0  0.83700  0.75000  0.92300  1.0000
