data_image0
_chemical_formula_structural       Br4S4
_chemical_formula_sum              "Br4 S4"
_cell_length_a       4.42153
_cell_length_b       4.42153
_cell_length_c       14.0856
_cell_angle_alpha    90
_cell_angle_beta     90
_cell_angle_gamma    73.2535

_space_group_name_H-M_alt    "P 1"
_space_group_IT_number       1

loop_
  _space_group_symop_operation_xyz
  'x, y, z'

loop_
  _atom_site_type_symbol
  _atom_site_label
  _atom_site_symmetry_multiplicity
  _atom_site_fract_x
  _atom_site_fract_y
  _atom_site_fract_z
  _atom_site_occupancy
  Br  Br1       1.0  0.05430  0.06020  0.16300  1.0000
  Br  Br2       1.0  0.55400  0.56000  0.33700  1.0000
  Br  Br3       1.0  0.44000  0.44600  0.66300  1.0000
  Br  Br4       1.0  0.94000  0.94600  0.83700  1.0000
  S   S1        1.0  0.80700  0.40000  0.04490  1.0000
  S   S2        1.0  0.30700  0.90000  0.45500  1.0000
  S   S3        1.0  0.10000  0.69300  0.54500  1.0000
  S   S4        1.0  0.60000  0.19300  0.95500  1.0000
