data_image0
_chemical_formula_structural       Fe2Te4
_chemical_formula_sum              "Fe2 Te4"
_cell_length_a       3.88398
_cell_length_b       5.2501
_cell_length_c       6.24961
_cell_angle_alpha    90
_cell_angle_beta     90
_cell_angle_gamma    90

_space_group_name_H-M_alt    "P 1"
_space_group_IT_number       1

loop_
  _space_group_symop_operation_xyz
  'x, y, z'

loop_
  _atom_site_type_symbol
  _atom_site_label
  _atom_site_symmetry_multiplicity
  _atom_site_fract_x
  _atom_site_fract_y
  _atom_site_fract_z
  _atom_site_occupancy
  Fe  Fe1       1.0  0.00000  0.00000  0.00000  1.0000
  Fe  Fe2       1.0  0.50000  0.50000  0.50000  1.0000
  Te  Te1       1.0  0.50000  0.72700  0.13900  1.0000
  Te  Te2       1.0  0.00000  0.22700  0.36100  1.0000
  Te  Te3       1.0  0.00000  0.77300  0.63900  1.0000
  Te  Te4       1.0  0.50000  0.27300  0.86100  1.0000
