data_image0
_chemical_formula_structural       Ce2Ir6Si4
_chemical_formula_sum              "Ce2 Ir6 Si4"
_cell_length_a       5.66338
_cell_length_b       6.74605
_cell_length_c       6.74605
_cell_angle_alpha    93.8022
_cell_angle_beta     114.819
_cell_angle_gamma    114.819

_space_group_name_H-M_alt    "P 1"
_space_group_IT_number       1

loop_
  _space_group_symop_operation_xyz
  'x, y, z'

loop_
  _atom_site_type_symbol
  _atom_site_label
  _atom_site_symmetry_multiplicity
  _atom_site_fract_x
  _atom_site_fract_y
  _atom_site_fract_z
  _atom_site_occupancy
  Ce  Ce1       1.0  0.27500  0.75000  0.25000  1.0000
  Ce  Ce2       1.0  0.72500  0.25000  0.75000  1.0000
  Ir  Ir1       1.0  0.50000  0.50000  0.00000  1.0000
  Ir  Ir2       1.0  0.72200  0.22200  0.22200  1.0000
  Ir  Ir3       1.0  0.27800  0.27800  0.27800  1.0000
  Ir  Ir4       1.0  0.00000  0.00000  0.50000  1.0000
  Ir  Ir5       1.0  0.72200  0.72200  0.72200  1.0000
  Ir  Ir6       1.0  0.27800  0.77800  0.77800  1.0000
  Si  Si1       1.0  0.79500  0.92100  0.07940  1.0000
  Si  Si2       1.0  0.79500  0.57900  0.42100  1.0000
  Si  Si3       1.0  0.20500  0.42100  0.57900  1.0000
  Si  Si4       1.0  0.20500  0.07940  0.92100  1.0000
