data_image0
_chemical_formula_structural       Hf8Te4
_chemical_formula_sum              "Hf8 Te4"
_cell_length_a       3.73405
_cell_length_b       7.83104
_cell_length_c       10.1108
_cell_angle_alpha    90.2378
_cell_angle_beta     90
_cell_angle_gamma    103.793

_space_group_name_H-M_alt    "P 1"
_space_group_IT_number       1

loop_
  _space_group_symop_operation_xyz
  'x, y, z'

loop_
  _atom_site_type_symbol
  _atom_site_label
  _atom_site_symmetry_multiplicity
  _atom_site_fract_x
  _atom_site_fract_y
  _atom_site_fract_z
  _atom_site_occupancy
  Hf  Hf1       1.0  0.21800  0.43700  0.12700  1.0000
  Hf  Hf2       1.0  0.40700  0.81500  0.34700  1.0000
  Hf  Hf3       1.0  0.74500  0.49000  0.38200  1.0000
  Hf  Hf4       1.0  0.08540  0.17100  0.41900  1.0000
  Hf  Hf5       1.0  0.91500  0.82900  0.58100  1.0000
  Hf  Hf6       1.0  0.25500  0.51000  0.61800  1.0000
  Hf  Hf7       1.0  0.59300  0.18500  0.65300  1.0000
  Hf  Hf8       1.0  0.78200  0.56300  0.87300  1.0000
  Te  Te1       1.0  0.86600  0.73100  0.13200  1.0000
  Te  Te2       1.0  0.57800  0.15600  0.19400  1.0000
  Te  Te3       1.0  0.42200  0.84400  0.80600  1.0000
  Te  Te4       1.0  0.13400  0.26900  0.86800  1.0000
