data_image0
_chemical_formula_structural       Ce2I8Sr2
_chemical_formula_sum              "Ce2 I8 Sr2"
_cell_length_a       7.532
_cell_length_b       8.63342
_cell_length_c       9.13417
_cell_angle_alpha    113.246
_cell_angle_beta     108.844
_cell_angle_gamma    100.892

_space_group_name_H-M_alt    "P 1"
_space_group_IT_number       1

loop_
  _space_group_symop_operation_xyz
  'x, y, z'

loop_
  _atom_site_type_symbol
  _atom_site_label
  _atom_site_symmetry_multiplicity
  _atom_site_fract_x
  _atom_site_fract_y
  _atom_site_fract_z
  _atom_site_occupancy
  Ce  Ce1       1.0  0.24800  0.49800  0.99600  1.0000
  Ce  Ce2       1.0  0.75200  0.50200  0.00355  1.0000
  I   I1        1.0  0.13100  0.86600  0.12400  1.0000
  I   I2        1.0  0.49300  0.25900  0.12400  1.0000
  I   I3        1.0  0.14400  0.55400  0.35400  1.0000
  I   I4        1.0  0.71000  0.80000  0.35400  1.0000
  I   I5        1.0  0.29000  0.20000  0.64600  1.0000
  I   I6        1.0  0.85600  0.44600  0.64600  1.0000
  I   I7        1.0  0.50700  0.74100  0.87600  1.0000
  I   I8        1.0  0.86900  0.13400  0.87600  1.0000
  Sr  Sr1       1.0  0.88500  0.13500  0.26900  1.0000
  Sr  Sr2       1.0  0.11500  0.86500  0.73100  1.0000
