data_image0
_chemical_formula_structural       NbO8Rb3
_chemical_formula_sum              "Nb1 O8 Rb3"
_cell_length_a       6.35217
_cell_length_b       6.35217
_cell_length_c       6.35217
_cell_angle_alpha    102.385
_cell_angle_beta     113.126
_cell_angle_gamma    113.126

_space_group_name_H-M_alt    "P 1"
_space_group_IT_number       1

loop_
  _space_group_symop_operation_xyz
  'x, y, z'

loop_
  _atom_site_type_symbol
  _atom_site_label
  _atom_site_symmetry_multiplicity
  _atom_site_fract_x
  _atom_site_fract_y
  _atom_site_fract_z
  _atom_site_occupancy
  Nb  Nb1       1.0  0.00000  0.00000  0.00000  1.0000
  O   O1        1.0  0.72100  0.04760  0.04760  1.0000
  O   O2        1.0  0.00000  0.77000  0.19000  1.0000
  O   O3        1.0  0.42000  0.23000  0.23000  1.0000
  O   O4        1.0  0.27900  0.32600  0.32600  1.0000
  O   O5        1.0  0.00000  0.95200  0.67400  1.0000
  O   O6        1.0  0.00000  0.19000  0.77000  1.0000
  O   O7        1.0  0.58000  0.81000  0.81000  1.0000
  O   O8        1.0  0.00000  0.67400  0.95200  1.0000
  Rb  Rb1       1.0  0.50000  0.75000  0.25000  1.0000
  Rb  Rb2       1.0  0.00000  0.50000  0.50000  1.0000
  Rb  Rb3       1.0  0.50000  0.25000  0.75000  1.0000
