data_image0
_chemical_formula_structural       Pt3Sn3Tb3
_chemical_formula_sum              "Pt3 Sn3 Tb3"
_cell_length_a       7.52089
_cell_length_b       7.52089
_cell_length_c       4.03257
_cell_angle_alpha    90
_cell_angle_beta     90
_cell_angle_gamma    120.001

_space_group_name_H-M_alt    "P 1"
_space_group_IT_number       1

loop_
  _space_group_symop_operation_xyz
  'x, y, z'

loop_
  _atom_site_type_symbol
  _atom_site_label
  _atom_site_symmetry_multiplicity
  _atom_site_fract_x
  _atom_site_fract_y
  _atom_site_fract_z
  _atom_site_occupancy
  Pt  Pt1       1.0  0.66700  0.33300  0.00000  1.0000
  Pt  Pt2       1.0  0.33300  0.66700  0.00000  1.0000
  Pt  Pt3       1.0  0.00000  0.00000  0.50000  1.0000
  Sn  Sn1       1.0  0.25800  0.00001  0.00000  1.0000
  Sn  Sn2       1.0  0.00001  0.25800  0.00000  1.0000
  Sn  Sn3       1.0  0.74200  0.74200  0.00000  1.0000
  Tb  Tb1       1.0  0.59400  0.00001  0.50000  1.0000
  Tb  Tb2       1.0  0.40600  0.40600  0.50000  1.0000
  Tb  Tb3       1.0  0.00001  0.59400  0.50000  1.0000
