data_image0
_chemical_formula_structural       Eu4Ga6Ir2
_chemical_formula_sum              "Eu4 Ga6 Ir2"
_cell_length_a       5.58035
_cell_length_b       5.58033
_cell_length_c       8.72304
_cell_angle_alpha    90
_cell_angle_beta     90
_cell_angle_gamma    120

_space_group_name_H-M_alt    "P 1"
_space_group_IT_number       1

loop_
  _space_group_symop_operation_xyz
  'x, y, z'

loop_
  _atom_site_type_symbol
  _atom_site_label
  _atom_site_symmetry_multiplicity
  _atom_site_fract_x
  _atom_site_fract_y
  _atom_site_fract_z
  _atom_site_occupancy
  Eu  Eu1       1.0  0.33300  0.66700  0.05170  1.0000
  Eu  Eu2       1.0  0.33300  0.66700  0.44800  1.0000
  Eu  Eu3       1.0  0.66700  0.33300  0.55200  1.0000
  Eu  Eu4       1.0  0.66700  0.33300  0.94800  1.0000
  Ga  Ga1       1.0  0.32300  0.16200  0.25000  1.0000
  Ga  Ga2       1.0  0.83800  0.16200  0.25000  1.0000
  Ga  Ga3       1.0  0.83800  0.67700  0.25000  1.0000
  Ga  Ga4       1.0  0.16200  0.32300  0.75000  1.0000
  Ga  Ga5       1.0  0.16200  0.83800  0.75000  1.0000
  Ga  Ga6       1.0  0.67700  0.83800  0.75000  1.0000
  Ir  Ir1       1.0  0.00000  0.00000  0.00000  1.0000
  Ir  Ir2       1.0  0.00000  0.00000  0.50000  1.0000
