data_image0
_chemical_formula_structural       Fe8Ta4
_chemical_formula_sum              "Fe8 Ta4"
_cell_length_a       4.74372
_cell_length_b       4.74471
_cell_length_c       7.75984
_cell_angle_alpha    90
_cell_angle_beta     90
_cell_angle_gamma    119.993

_space_group_name_H-M_alt    "P 1"
_space_group_IT_number       1

loop_
  _space_group_symop_operation_xyz
  'x, y, z'

loop_
  _atom_site_type_symbol
  _atom_site_label
  _atom_site_symmetry_multiplicity
  _atom_site_fract_x
  _atom_site_fract_y
  _atom_site_fract_z
  _atom_site_occupancy
  Fe  Fe1       1.0  0.00000  0.00000  0.00000  1.0000
  Fe  Fe2       1.0  0.17100  0.34200  0.25000  1.0000
  Fe  Fe3       1.0  0.17100  0.82900  0.25000  1.0000
  Fe  Fe4       1.0  0.65800  0.82900  0.25000  1.0000
  Fe  Fe5       1.0  0.00000  0.00000  0.50000  1.0000
  Fe  Fe6       1.0  0.34200  0.17100  0.75000  1.0000
  Fe  Fe7       1.0  0.82900  0.17100  0.75000  1.0000
  Fe  Fe8       1.0  0.82900  0.65800  0.75000  1.0000
  Ta  Ta1       1.0  0.33300  0.66700  0.93500  1.0000
  Ta  Ta2       1.0  0.66700  0.33300  0.06540  1.0000
  Ta  Ta3       1.0  0.66700  0.33300  0.43500  1.0000
  Ta  Ta4       1.0  0.33300  0.66700  0.56500  1.0000
