data_image0
_chemical_formula_structural       Ho4Mn4Si4
_chemical_formula_sum              "Ho4 Mn4 Si4"
_cell_length_a       6.91486
_cell_length_b       4.06641
_cell_length_c       7.57306
_cell_angle_alpha    90
_cell_angle_beta     90
_cell_angle_gamma    90

_space_group_name_H-M_alt    "P 1"
_space_group_IT_number       1

loop_
  _space_group_symop_operation_xyz
  'x, y, z'

loop_
  _atom_site_type_symbol
  _atom_site_label
  _atom_site_symmetry_multiplicity
  _atom_site_fract_x
  _atom_site_fract_y
  _atom_site_fract_z
  _atom_site_occupancy
  Ho  Ho1       1.0  0.48900  0.75000  0.18600  1.0000
  Ho  Ho2       1.0  0.98900  0.75000  0.31400  1.0000
  Ho  Ho3       1.0  0.01070  0.25000  0.68600  1.0000
  Ho  Ho4       1.0  0.51100  0.25000  0.81400  1.0000
  Mn  Mn1       1.0  0.13900  0.25000  0.05930  1.0000
  Mn  Mn2       1.0  0.63900  0.25000  0.44100  1.0000
  Mn  Mn3       1.0  0.36100  0.75000  0.55900  1.0000
  Mn  Mn4       1.0  0.86100  0.75000  0.94100  1.0000
  Si  Si1       1.0  0.78800  0.25000  0.11000  1.0000
  Si  Si2       1.0  0.28800  0.25000  0.39000  1.0000
  Si  Si3       1.0  0.71200  0.75000  0.61000  1.0000
  Si  Si4       1.0  0.21200  0.75000  0.89000  1.0000
