data_image0
_chemical_formula_structural       O8Tc4
_chemical_formula_sum              "O8 Tc4"
_cell_length_a       5.67284
_cell_length_b       4.78012
_cell_length_c       5.54119
_cell_angle_alpha    90
_cell_angle_beta     121.438
_cell_angle_gamma    90

_space_group_name_H-M_alt    "P 1"
_space_group_IT_number       1

loop_
  _space_group_symop_operation_xyz
  'x, y, z'

loop_
  _atom_site_type_symbol
  _atom_site_label
  _atom_site_symmetry_multiplicity
  _atom_site_fract_x
  _atom_site_fract_y
  _atom_site_fract_z
  _atom_site_occupancy
  O   O1        1.0  0.10700  0.19100  0.19500  1.0000
  O   O2        1.0  0.60900  0.21200  0.23400  1.0000
  O   O3        1.0  0.39100  0.71200  0.26600  1.0000
  O   O4        1.0  0.89300  0.69100  0.30500  1.0000
  O   O5        1.0  0.10700  0.30900  0.69500  1.0000
  O   O6        1.0  0.60900  0.28800  0.73400  1.0000
  O   O7        1.0  0.39100  0.78800  0.76600  1.0000
  O   O8        1.0  0.89300  0.80900  0.80500  1.0000
  Tc  Tc1       1.0  0.26500  0.00524  0.98400  1.0000
  Tc  Tc2       1.0  0.73500  0.99500  0.01620  1.0000
  Tc  Tc3       1.0  0.26500  0.49500  0.48400  1.0000
  Tc  Tc4       1.0  0.73500  0.50500  0.51600  1.0000
