data_image0
_chemical_formula_structural       Tl4Yb8
_chemical_formula_sum              "Tl4 Yb8"
_cell_length_a       7.18775
_cell_length_b       5.2633
_cell_length_c       9.8285
_cell_angle_alpha    90
_cell_angle_beta     90
_cell_angle_gamma    90

_space_group_name_H-M_alt    "P 1"
_space_group_IT_number       1

loop_
  _space_group_symop_operation_xyz
  'x, y, z'

loop_
  _atom_site_type_symbol
  _atom_site_label
  _atom_site_symmetry_multiplicity
  _atom_site_fract_x
  _atom_site_fract_y
  _atom_site_fract_z
  _atom_site_occupancy
  Tl  Tl1       1.0  0.72700  0.25000  0.11100  1.0000
  Tl  Tl2       1.0  0.22700  0.25000  0.38900  1.0000
  Tl  Tl3       1.0  0.77300  0.75000  0.61100  1.0000
  Tl  Tl4       1.0  0.27300  0.75000  0.88900  1.0000
  Yb  Yb1       1.0  0.16900  0.25000  0.06730  1.0000
  Yb  Yb2       1.0  0.46800  0.75000  0.19900  1.0000
  Yb  Yb3       1.0  0.96800  0.75000  0.30100  1.0000
  Yb  Yb4       1.0  0.66900  0.25000  0.43300  1.0000
  Yb  Yb5       1.0  0.33100  0.75000  0.56700  1.0000
  Yb  Yb6       1.0  0.03180  0.25000  0.69900  1.0000
  Yb  Yb7       1.0  0.53200  0.25000  0.80100  1.0000
  Yb  Yb8       1.0  0.83100  0.75000  0.93300  1.0000
