data_image0
_chemical_formula_structural       CsO8S2V
_chemical_formula_sum              "Cs1 O8 S2 V1"
_cell_length_a       4.81756
_cell_length_b       4.81751
_cell_length_c       8.65369
_cell_angle_alpha    90
_cell_angle_beta     89.9968
_cell_angle_gamma    119.996

_space_group_name_H-M_alt    "P 1"
_space_group_IT_number       1

loop_
  _space_group_symop_operation_xyz
  'x, y, z'

loop_
  _atom_site_type_symbol
  _atom_site_label
  _atom_site_symmetry_multiplicity
  _atom_site_fract_x
  _atom_site_fract_y
  _atom_site_fract_z
  _atom_site_occupancy
  Cs  Cs1       1.0  0.00000  0.00000  0.00000  1.0000
  O   O1        1.0  0.33300  0.66700  0.13400  1.0000
  O   O2        1.0  0.05520  0.69400  0.36000  1.0000
  O   O3        1.0  0.30600  0.36100  0.36000  1.0000
  O   O4        1.0  0.63900  0.94500  0.36000  1.0000
  O   O5        1.0  0.36100  0.05510  0.64000  1.0000
  O   O6        1.0  0.69400  0.63900  0.64000  1.0000
  O   O7        1.0  0.94500  0.30600  0.64000  1.0000
  O   O8        1.0  0.66700  0.33300  0.86600  1.0000
  S   S1        1.0  0.33300  0.66700  0.30200  1.0000
  S   S2        1.0  0.66700  0.33300  0.69800  1.0000
  V   V1        1.0  0.00000  1.00000  0.50000  1.0000
