data_image0
_chemical_formula_structural       Sn8Ta4
_chemical_formula_sum              "Sn8 Ta4"
_cell_length_a       5.68291
_cell_length_b       5.68506
_cell_length_c       10.0795
_cell_angle_alpha    98.0999
_cell_angle_beta     106.374
_cell_angle_gamma    60.0125

_space_group_name_H-M_alt    "P 1"
_space_group_IT_number       1

loop_
  _space_group_symop_operation_xyz
  'x, y, z'

loop_
  _atom_site_type_symbol
  _atom_site_label
  _atom_site_symmetry_multiplicity
  _atom_site_fract_x
  _atom_site_fract_y
  _atom_site_fract_z
  _atom_site_occupancy
  Sn  Sn1       1.0  0.83100  0.33700  0.00000  1.0000
  Sn  Sn2       1.0  0.16900  0.66300  0.00000  1.0000
  Sn  Sn3       1.0  0.58100  0.00000  0.16200  1.0000
  Sn  Sn4       1.0  0.16900  0.50000  0.33800  1.0000
  Sn  Sn5       1.0  0.91900  0.16300  0.50000  1.0000
  Sn  Sn6       1.0  0.58100  0.83700  0.50000  1.0000
  Sn  Sn7       1.0  0.33100  0.50000  0.66200  1.0000
  Sn  Sn8       1.0  0.41900  0.00000  0.83800  1.0000
  Ta  Ta1       1.0  0.62300  0.50000  0.24600  1.0000
  Ta  Ta2       1.0  0.12700  0.00000  0.25400  1.0000
  Ta  Ta3       1.0  0.87300  0.00000  0.74600  1.0000
  Ta  Ta4       1.0  0.87700  0.50000  0.75400  1.0000
