data_image0
_chemical_formula_structural       Eu2In8Pd2
_chemical_formula_sum              "Eu2 In8 Pd2"
_cell_length_a       4.57255
_cell_length_b       7.48108
_cell_length_c       8.83439
_cell_angle_alpha    90
_cell_angle_beta     75.0016
_cell_angle_gamma    90

_space_group_name_H-M_alt    "P 1"
_space_group_IT_number       1

loop_
  _space_group_symop_operation_xyz
  'x, y, z'

loop_
  _atom_site_type_symbol
  _atom_site_label
  _atom_site_symmetry_multiplicity
  _atom_site_fract_x
  _atom_site_fract_y
  _atom_site_fract_z
  _atom_site_occupancy
  Eu  Eu1       1.0  0.87500  0.25000  0.25000  1.0000
  Eu  Eu2       1.0  0.12500  0.75000  0.75000  1.0000
  In  In1       1.0  0.50000  0.00000  0.00000  1.0000
  In  In2       1.0  0.50000  0.50000  0.00000  1.0000
  In  In3       1.0  0.93300  0.75000  0.13400  1.0000
  In  In4       1.0  0.31700  0.54800  0.36600  1.0000
  In  In5       1.0  0.31700  0.95200  0.36600  1.0000
  In  In6       1.0  0.68300  0.04770  0.63400  1.0000
  In  In7       1.0  0.68300  0.45200  0.63400  1.0000
  In  In8       1.0  0.06680  0.25000  0.86600  1.0000
  Pd  Pd1       1.0  0.77500  0.75000  0.45000  1.0000
  Pd  Pd2       1.0  0.22500  0.25000  0.55000  1.0000
