data_image0
_chemical_formula_structural       Eu2I8La2
_chemical_formula_sum              "Eu2 I8 La2"
_cell_length_a       7.54563
_cell_length_b       8.45591
_cell_length_c       8.99348
_cell_angle_alpha    113.145
_cell_angle_beta     109.46
_cell_angle_gamma    100.584

_space_group_name_H-M_alt    "P 1"
_space_group_IT_number       1

loop_
  _space_group_symop_operation_xyz
  'x, y, z'

loop_
  _atom_site_type_symbol
  _atom_site_label
  _atom_site_symmetry_multiplicity
  _atom_site_fract_x
  _atom_site_fract_y
  _atom_site_fract_z
  _atom_site_occupancy
  Eu  Eu1       1.0  0.88300  0.13300  0.26700  1.0000
  Eu  Eu2       1.0  0.11700  0.86700  0.73300  1.0000
  I   I1        1.0  0.49500  0.25300  0.12400  1.0000
  I   I2        1.0  0.12800  0.87100  0.12400  1.0000
  I   I3        1.0  0.14300  0.55400  0.35900  1.0000
  I   I4        1.0  0.71600  0.80500  0.35900  1.0000
  I   I5        1.0  0.28400  0.19500  0.64100  1.0000
  I   I6        1.0  0.85700  0.44600  0.64100  1.0000
  I   I7        1.0  0.87200  0.12900  0.87600  1.0000
  I   I8        1.0  0.50500  0.74700  0.87600  1.0000
  La  La1       1.0  0.75000  0.50000  0.99900  1.0000
  La  La2       1.0  0.25000  0.50000  0.00088  1.0000
