data_image0
_chemical_formula_structural       La2P10
_chemical_formula_sum              "La2 P10"
_cell_length_a       4.90626
_cell_length_b       9.71046
_cell_length_c       5.60037
_cell_angle_alpha    90
_cell_angle_beta     105.472
_cell_angle_gamma    90

_space_group_name_H-M_alt    "P 1"
_space_group_IT_number       1

loop_
  _space_group_symop_operation_xyz
  'x, y, z'

loop_
  _atom_site_type_symbol
  _atom_site_label
  _atom_site_symmetry_multiplicity
  _atom_site_fract_x
  _atom_site_fract_y
  _atom_site_fract_z
  _atom_site_occupancy
  La  La1       1.0  0.45100  0.25000  0.12400  1.0000
  La  La2       1.0  0.54900  0.75000  0.87600  1.0000
  P   P1        1.0  0.20700  0.54200  0.10900  1.0000
  P   P2        1.0  0.20700  0.95800  0.10900  1.0000
  P   P3        1.0  0.78900  0.75000  0.42900  1.0000
  P   P4        1.0  0.12200  0.59000  0.46300  1.0000
  P   P5        1.0  0.12200  0.91000  0.46300  1.0000
  P   P6        1.0  0.87800  0.09010  0.53700  1.0000
  P   P7        1.0  0.87800  0.41000  0.53700  1.0000
  P   P8        1.0  0.21100  0.25000  0.57100  1.0000
  P   P9        1.0  0.79300  0.04210  0.89100  1.0000
  P   P10       1.0  0.79300  0.45800  0.89100  1.0000
