data_image0
_chemical_formula_structural       In2O8Ta2
_chemical_formula_sum              "In2 O8 Ta2"
_cell_length_a       5.17308
_cell_length_b       5.80268
_cell_length_c       4.84845
_cell_angle_alpha    90
_cell_angle_beta     91.3199
_cell_angle_gamma    90

_space_group_name_H-M_alt    "P 1"
_space_group_IT_number       1

loop_
  _space_group_symop_operation_xyz
  'x, y, z'

loop_
  _atom_site_type_symbol
  _atom_site_label
  _atom_site_symmetry_multiplicity
  _atom_site_fract_x
  _atom_site_fract_y
  _atom_site_fract_z
  _atom_site_occupancy
  In  In1       1.0  0.25000  0.32100  0.50000  1.0000
  In  In2       1.0  0.75000  0.67900  0.50000  1.0000
  O   O1        1.0  0.93700  0.89900  0.21600  1.0000
  O   O2        1.0  0.43700  0.10100  0.21600  1.0000
  O   O3        1.0  0.90100  0.38300  0.25900  1.0000
  O   O4        1.0  0.40100  0.61700  0.25900  1.0000
  O   O5        1.0  0.09900  0.61700  0.74100  1.0000
  O   O6        1.0  0.59900  0.38300  0.74100  1.0000
  O   O7        1.0  0.06300  0.10100  0.78400  1.0000
  O   O8        1.0  0.56300  0.89900  0.78400  1.0000
  Ta  Ta1       1.0  0.25000  0.82600  0.00000  1.0000
  Ta  Ta2       1.0  0.75000  0.17400  0.00000  1.0000
