data_image0
_chemical_formula_structural       Ba4Ir4P4
_chemical_formula_sum              "Ba4 Ir4 P4"
_cell_length_a       6.54242
_cell_length_b       6.54242
_cell_length_c       6.54242
_cell_angle_alpha    90
_cell_angle_beta     90
_cell_angle_gamma    90

_space_group_name_H-M_alt    "P 1"
_space_group_IT_number       1

loop_
  _space_group_symop_operation_xyz
  'x, y, z'

loop_
  _atom_site_type_symbol
  _atom_site_label
  _atom_site_symmetry_multiplicity
  _atom_site_fract_x
  _atom_site_fract_y
  _atom_site_fract_z
  _atom_site_occupancy
  Ba  Ba1       1.0  0.12800  0.12800  0.12800  1.0000
  Ba  Ba2       1.0  0.87200  0.62800  0.37200  1.0000
  Ba  Ba3       1.0  0.37200  0.87200  0.62800  1.0000
  Ba  Ba4       1.0  0.62800  0.37200  0.87200  1.0000
  Ir  Ir1       1.0  0.59700  0.90300  0.09650  1.0000
  Ir  Ir2       1.0  0.40300  0.40300  0.40300  1.0000
  Ir  Ir3       1.0  0.90300  0.09650  0.59700  1.0000
  Ir  Ir4       1.0  0.09650  0.59700  0.90300  1.0000
  P   P1        1.0  0.34600  0.65400  0.15400  1.0000
  P   P2        1.0  0.65400  0.15400  0.34600  1.0000
  P   P3        1.0  0.15400  0.34600  0.65400  1.0000
  P   P4        1.0  0.84600  0.84600  0.84600  1.0000
