data_image0
_chemical_formula_structural       K4Rb4S4
_chemical_formula_sum              "K4 Rb4 S4"
_cell_length_a       8.25826
_cell_length_b       5.0521
_cell_length_c       9.50853
_cell_angle_alpha    90
_cell_angle_beta     90
_cell_angle_gamma    90

_space_group_name_H-M_alt    "P 1"
_space_group_IT_number       1

loop_
  _space_group_symop_operation_xyz
  'x, y, z'

loop_
  _atom_site_type_symbol
  _atom_site_label
  _atom_site_symmetry_multiplicity
  _atom_site_fract_x
  _atom_site_fract_y
  _atom_site_fract_z
  _atom_site_occupancy
  K   K1        1.0  0.85000  0.25000  0.07570  1.0000
  K   K2        1.0  0.35000  0.25000  0.42400  1.0000
  K   K3        1.0  0.65000  0.75000  0.57600  1.0000
  K   K4        1.0  0.15000  0.75000  0.92400  1.0000
  Rb  Rb1       1.0  0.52100  0.75000  0.18000  1.0000
  Rb  Rb2       1.0  0.02070  0.75000  0.32000  1.0000
  Rb  Rb3       1.0  0.97900  0.25000  0.68000  1.0000
  Rb  Rb4       1.0  0.47900  0.25000  0.82000  1.0000
  S   S1        1.0  0.23700  0.25000  0.10800  1.0000
  S   S2        1.0  0.73700  0.25000  0.39200  1.0000
  S   S3        1.0  0.26300  0.75000  0.60800  1.0000
  S   S4        1.0  0.76300  0.75000  0.89200  1.0000
