data_image0
_chemical_formula_structural       Al2Na6P4
_chemical_formula_sum              "Al2 Na6 P4"
_cell_length_a       6.02607
_cell_length_b       6.77076
_cell_length_c       7.99261
_cell_angle_alpha    115.06
_cell_angle_beta     112.147
_cell_angle_gamma    90

_space_group_name_H-M_alt    "P 1"
_space_group_IT_number       1

loop_
  _space_group_symop_operation_xyz
  'x, y, z'

loop_
  _atom_site_type_symbol
  _atom_site_label
  _atom_site_symmetry_multiplicity
  _atom_site_fract_x
  _atom_site_fract_y
  _atom_site_fract_z
  _atom_site_occupancy
  Al  Al1       1.0  0.25000  0.00000  0.00000  1.0000
  Al  Al2       1.0  0.75000  0.00000  0.00000  1.0000
  Na  Na1       1.0  0.25000  0.50000  0.00000  1.0000
  Na  Na2       1.0  0.75000  0.50000  0.00000  1.0000
  Na  Na3       1.0  0.69300  0.00872  0.38600  1.0000
  Na  Na4       1.0  0.19300  0.37800  0.38600  1.0000
  Na  Na5       1.0  0.80700  0.62200  0.61400  1.0000
  Na  Na6       1.0  0.30700  0.99100  0.61400  1.0000
  P   P1        1.0  0.60200  0.29900  0.20300  1.0000
  P   P2        1.0  0.10200  0.90400  0.20300  1.0000
  P   P3        1.0  0.89800  0.09630  0.79700  1.0000
  P   P4        1.0  0.39800  0.70100  0.79700  1.0000
