data_image0
_chemical_formula_structural       Al2K4Na2P4
_chemical_formula_sum              "Al2 K4 Na2 P4"
_cell_length_a       6.29929
_cell_length_b       6.60922
_cell_length_c       8.60881
_cell_angle_alpha    112.573
_cell_angle_beta     111.461
_cell_angle_gamma    90

_space_group_name_H-M_alt    "P 1"
_space_group_IT_number       1

loop_
  _space_group_symop_operation_xyz
  'x, y, z'

loop_
  _atom_site_type_symbol
  _atom_site_label
  _atom_site_symmetry_multiplicity
  _atom_site_fract_x
  _atom_site_fract_y
  _atom_site_fract_z
  _atom_site_occupancy
  Al  Al1       1.0  0.25000  0.00000  0.00000  1.0000
  Al  Al2       1.0  0.75000  0.00000  0.00000  1.0000
  K   K1        1.0  0.17600  0.43600  0.35200  1.0000
  K   K2        1.0  0.67600  0.91700  0.35200  1.0000
  K   K3        1.0  0.32400  0.08330  0.64800  1.0000
  K   K4        1.0  0.82400  0.56400  0.64800  1.0000
  Na  Na1       1.0  0.25000  0.50000  0.00000  1.0000
  Na  Na2       1.0  0.75000  0.50000  0.00000  1.0000
  P   P1        1.0  0.59200  0.29000  0.18400  1.0000
  P   P2        1.0  0.09190  0.89400  0.18400  1.0000
  P   P3        1.0  0.90800  0.10600  0.81600  1.0000
  P   P4        1.0  0.40800  0.71000  0.81600  1.0000
