data_image0
_chemical_formula_structural       Bi4Br4Se4
_chemical_formula_sum              "Bi4 Br4 Se4"
_cell_length_a       8.31931
_cell_length_b       10.6508
_cell_length_c       4.14597
_cell_angle_alpha    90
_cell_angle_beta     90
_cell_angle_gamma    90

_space_group_name_H-M_alt    "P 1"
_space_group_IT_number       1

loop_
  _space_group_symop_operation_xyz
  'x, y, z'

loop_
  _atom_site_type_symbol
  _atom_site_label
  _atom_site_symmetry_multiplicity
  _atom_site_fract_x
  _atom_site_fract_y
  _atom_site_fract_z
  _atom_site_occupancy
  Bi  Bi1       1.0  0.12800  0.13300  0.25000  1.0000
  Bi  Bi2       1.0  0.62800  0.36700  0.25000  1.0000
  Bi  Bi3       1.0  0.37200  0.63300  0.75000  1.0000
  Bi  Bi4       1.0  0.87200  0.86700  0.75000  1.0000
  Br  Br1       1.0  0.02400  0.69000  0.25000  1.0000
  Br  Br2       1.0  0.52400  0.81000  0.25000  1.0000
  Br  Br3       1.0  0.47600  0.19000  0.75000  1.0000
  Br  Br4       1.0  0.97600  0.31000  0.75000  1.0000
  Se  Se1       1.0  0.81600  0.04670  0.25000  1.0000
  Se  Se2       1.0  0.31600  0.45300  0.25000  1.0000
  Se  Se3       1.0  0.68400  0.54700  0.75000  1.0000
  Se  Se4       1.0  0.18400  0.95300  0.75000  1.0000
