data_image0
_chemical_formula_structural       Nb4P4Zr4
_chemical_formula_sum              "Nb4 P4 Zr4"
_cell_length_a       6.91388
_cell_length_b       3.58076
_cell_length_c       8.33446
_cell_angle_alpha    90
_cell_angle_beta     90
_cell_angle_gamma    90

_space_group_name_H-M_alt    "P 1"
_space_group_IT_number       1

loop_
  _space_group_symop_operation_xyz
  'x, y, z'

loop_
  _atom_site_type_symbol
  _atom_site_label
  _atom_site_symmetry_multiplicity
  _atom_site_fract_x
  _atom_site_fract_y
  _atom_site_fract_z
  _atom_site_occupancy
  Nb  Nb1       1.0  0.86100  0.75000  0.05970  1.0000
  Nb  Nb2       1.0  0.36100  0.75000  0.44000  1.0000
  Nb  Nb3       1.0  0.63900  0.25000  0.56000  1.0000
  Nb  Nb4       1.0  0.13900  0.25000  0.94000  1.0000
  P   P1        1.0  0.23800  0.75000  0.14200  1.0000
  P   P2        1.0  0.73800  0.75000  0.35800  1.0000
  P   P3        1.0  0.26200  0.25000  0.64200  1.0000
  P   P4        1.0  0.76200  0.25000  0.85800  1.0000
  Zr  Zr1       1.0  0.53300  0.25000  0.16900  1.0000
  Zr  Zr2       1.0  0.03350  0.25000  0.33100  1.0000
  Zr  Zr3       1.0  0.96700  0.75000  0.66900  1.0000
  Zr  Zr4       1.0  0.46700  0.75000  0.83100  1.0000
