data_image0
_chemical_formula_structural       Al2As4K4Na2
_chemical_formula_sum              "Al2 As4 K4 Na2"
_cell_length_a       6.50929
_cell_length_b       6.7461
_cell_length_c       8.85192
_cell_angle_alpha    112.399
_cell_angle_beta     111.572
_cell_angle_gamma    90

_space_group_name_H-M_alt    "P 1"
_space_group_IT_number       1

loop_
  _space_group_symop_operation_xyz
  'x, y, z'

loop_
  _atom_site_type_symbol
  _atom_site_label
  _atom_site_symmetry_multiplicity
  _atom_site_fract_x
  _atom_site_fract_y
  _atom_site_fract_z
  _atom_site_occupancy
  Al  Al1       1.0  0.25000  0.00000  0.00000  1.0000
  Al  Al2       1.0  0.75000  0.00000  0.00000  1.0000
  As  As1       1.0  0.59500  0.29700  0.19100  1.0000
  As  As2       1.0  0.09540  0.89400  0.19100  1.0000
  As  As3       1.0  0.90500  0.10600  0.80900  1.0000
  As  As4       1.0  0.40500  0.70300  0.80900  1.0000
  K   K1        1.0  0.17500  0.43900  0.35100  1.0000
  K   K2        1.0  0.67500  0.91100  0.35100  1.0000
  K   K3        1.0  0.32500  0.08860  0.64900  1.0000
  K   K4        1.0  0.82500  0.56100  0.64900  1.0000
  Na  Na1       1.0  0.25000  0.50000  0.00000  1.0000
  Na  Na2       1.0  0.75000  0.50000  0.00000  1.0000
