data_image0
_chemical_formula_structural       Rb4Se6Sn2
_chemical_formula_sum              "Rb4 Se6 Sn2"
_cell_length_a       7.285
_cell_length_b       8.0006
_cell_length_c       9.08849
_cell_angle_alpha    74.0856
_cell_angle_beta     70.9371
_cell_angle_gamma    66.1479

_space_group_name_H-M_alt    "P 1"
_space_group_IT_number       1

loop_
  _space_group_symop_operation_xyz
  'x, y, z'

loop_
  _atom_site_type_symbol
  _atom_site_label
  _atom_site_symmetry_multiplicity
  _atom_site_fract_x
  _atom_site_fract_y
  _atom_site_fract_z
  _atom_site_occupancy
  Rb  Rb1       1.0  0.08960  0.20200  0.12500  1.0000
  Rb  Rb2       1.0  0.34600  0.54200  0.31300  1.0000
  Rb  Rb3       1.0  0.65400  0.45800  0.68700  1.0000
  Rb  Rb4       1.0  0.91000  0.79800  0.87500  1.0000
  Se  Se1       1.0  0.62300  0.18900  0.07180  1.0000
  Se  Se2       1.0  0.83800  0.60800  0.27900  1.0000
  Se  Se3       1.0  0.26300  0.96000  0.48100  1.0000
  Se  Se4       1.0  0.73700  0.03960  0.51900  1.0000
  Se  Se5       1.0  0.16200  0.39200  0.72100  1.0000
  Se  Se6       1.0  0.37700  0.81100  0.92800  1.0000
  Sn  Sn1       1.0  0.63800  0.93900  0.30900  1.0000
  Sn  Sn2       1.0  0.36200  0.06110  0.69100  1.0000
