data_image0
_chemical_formula_structural       Ir5Sn7
_chemical_formula_sum              "Ir5 Sn7"
_cell_length_a       6.53524
_cell_length_b       6.93267
_cell_length_c       6.93267
_cell_angle_alpha    102.836
_cell_angle_beta     61.8789
_cell_angle_gamma    118.121

_space_group_name_H-M_alt    "P 1"
_space_group_IT_number       1

loop_
  _space_group_symop_operation_xyz
  'x, y, z'

loop_
  _atom_site_type_symbol
  _atom_site_label
  _atom_site_symmetry_multiplicity
  _atom_site_fract_x
  _atom_site_fract_y
  _atom_site_fract_z
  _atom_site_occupancy
  Ir  Ir1       1.0  0.50000  0.00000  0.00000  1.0000
  Ir  Ir2       1.0  0.57900  0.75600  0.24400  1.0000
  Ir  Ir3       1.0  0.82300  0.24400  0.24400  1.0000
  Ir  Ir4       1.0  0.06630  0.24400  0.75600  1.0000
  Ir  Ir5       1.0  0.82300  0.75600  0.75600  1.0000
  Sn  Sn1       1.0  0.09960  0.00000  0.00000  1.0000
  Sn  Sn2       1.0  0.70300  0.42900  0.00000  1.0000
  Sn  Sn3       1.0  0.27400  0.57100  0.00000  1.0000
  Sn  Sn4       1.0  0.27400  0.00000  0.42900  1.0000
  Sn  Sn5       1.0  0.08530  0.50000  0.50000  1.0000
  Sn  Sn6       1.0  0.58500  0.50000  0.50000  1.0000
  Sn  Sn7       1.0  0.70300  0.00000  0.57100  1.0000
