data_image0
_chemical_formula_structural       O7Sr3V2
_chemical_formula_sum              "O7 Sr3 V2"
_cell_length_a       3.91051
_cell_length_b       3.91051
_cell_length_c       10.2951
_cell_angle_alpha    100.948
_cell_angle_beta     100.948
_cell_angle_gamma    90

_space_group_name_H-M_alt    "P 1"
_space_group_IT_number       1

loop_
  _space_group_symop_operation_xyz
  'x, y, z'

loop_
  _atom_site_type_symbol
  _atom_site_label
  _atom_site_symmetry_multiplicity
  _atom_site_fract_x
  _atom_site_fract_y
  _atom_site_fract_z
  _atom_site_occupancy
  O   O1        1.0  0.00000  0.00000  0.00000  1.0000
  O   O2        1.0  0.59600  0.09570  0.19100  1.0000
  O   O3        1.0  0.09570  0.59600  0.19100  1.0000
  O   O4        1.0  0.19300  0.19300  0.38700  1.0000
  O   O5        1.0  0.80700  0.80700  0.61300  1.0000
  O   O6        1.0  0.90400  0.40400  0.80900  1.0000
  O   O7        1.0  0.40400  0.90400  0.80900  1.0000
  Sr  Sr1       1.0  0.50000  0.50000  0.00000  1.0000
  Sr  Sr2       1.0  0.68100  0.68100  0.36300  1.0000
  Sr  Sr3       1.0  0.31900  0.31900  0.63700  1.0000
  V   V1        1.0  0.09790  0.09790  0.19600  1.0000
  V   V2        1.0  0.90200  0.90200  0.80400  1.0000
