data_image0
_chemical_formula_structural       Cs2O8Re2
_chemical_formula_sum              "Cs2 O8 Re2"
_cell_length_a       8.33526
_cell_length_b       5.84344
_cell_length_c       5.84344
_cell_angle_alpha    90
_cell_angle_beta     110.519
_cell_angle_gamma    110.519

_space_group_name_H-M_alt    "P 1"
_space_group_IT_number       1

loop_
  _space_group_symop_operation_xyz
  'x, y, z'

loop_
  _atom_site_type_symbol
  _atom_site_label
  _atom_site_symmetry_multiplicity
  _atom_site_fract_x
  _atom_site_fract_y
  _atom_site_fract_z
  _atom_site_occupancy
  Cs  Cs1       1.0  0.25000  0.12500  0.37500  1.0000
  Cs  Cs2       1.0  0.75000  0.87500  0.62500  1.0000
  O   O1        1.0  0.38800  0.69400  0.19100  1.0000
  O   O2        1.0  0.88800  0.19700  0.19400  1.0000
  O   O3        1.0  0.88800  0.69100  0.19400  1.0000
  O   O4        1.0  0.61200  0.30600  0.30300  1.0000
  O   O5        1.0  0.38800  0.69400  0.69700  1.0000
  O   O6        1.0  0.11200  0.30900  0.80600  1.0000
  O   O7        1.0  0.11200  0.80300  0.80600  1.0000
  O   O8        1.0  0.61200  0.30600  0.80900  1.0000
  Re  Re1       1.0  0.75000  0.37500  0.12500  1.0000
  Re  Re2       1.0  0.25000  0.62500  0.87500  1.0000
