data_image0
_chemical_formula_structural       C2Na4S6
_chemical_formula_sum              "C2 Na4 S6"
_cell_length_a       5.9448
_cell_length_b       5.9448
_cell_length_c       8.5649
_cell_angle_alpha    105.086
_cell_angle_beta     105.086
_cell_angle_gamma    64.594

_space_group_name_H-M_alt    "P 1"
_space_group_IT_number       1

loop_
  _space_group_symop_operation_xyz
  'x, y, z'

loop_
  _atom_site_type_symbol
  _atom_site_label
  _atom_site_symmetry_multiplicity
  _atom_site_fract_x
  _atom_site_fract_y
  _atom_site_fract_z
  _atom_site_occupancy
  C   C1        1.0  0.91700  0.08320  0.25000  1.0000
  C   C2        1.0  0.08320  0.91700  0.75000  1.0000
  Na  Na1       1.0  0.43500  0.83300  0.11200  1.0000
  Na  Na2       1.0  0.16700  0.56500  0.38800  1.0000
  Na  Na3       1.0  0.83300  0.43500  0.61200  1.0000
  Na  Na4       1.0  0.56500  0.16700  0.88800  1.0000
  S   S1        1.0  0.92200  0.81400  0.11000  1.0000
  S   S2        1.0  0.64500  0.35500  0.25000  1.0000
  S   S3        1.0  0.18600  0.07770  0.39000  1.0000
  S   S4        1.0  0.81400  0.92200  0.61000  1.0000
  S   S5        1.0  0.35500  0.64500  0.75000  1.0000
  S   S6        1.0  0.07770  0.18600  0.89000  1.0000
