data_image0
_chemical_formula_structural       As6Br2Hg4
_chemical_formula_sum              "As6 Br2 Hg4"
_cell_length_a       6.25462
_cell_length_b       6.25462
_cell_length_c       8.24362
_cell_angle_alpha    96.0704
_cell_angle_beta     96.0704
_cell_angle_gamma    97.8615

_space_group_name_H-M_alt    "P 1"
_space_group_IT_number       1

loop_
  _space_group_symop_operation_xyz
  'x, y, z'

loop_
  _atom_site_type_symbol
  _atom_site_label
  _atom_site_symmetry_multiplicity
  _atom_site_fract_x
  _atom_site_fract_y
  _atom_site_fract_z
  _atom_site_occupancy
  As  As1       1.0  0.93200  0.80900  0.01330  1.0000
  As  As2       1.0  0.20500  0.79500  0.25000  1.0000
  As  As3       1.0  0.19100  0.06780  0.48700  1.0000
  As  As4       1.0  0.80900  0.93200  0.51300  1.0000
  As  As5       1.0  0.79500  0.20500  0.75000  1.0000
  As  As6       1.0  0.06780  0.19100  0.98700  1.0000
  Br  Br1       1.0  0.63500  0.36500  0.25000  1.0000
  Br  Br2       1.0  0.36500  0.63500  0.75000  1.0000
  Hg  Hg1       1.0  0.59200  0.85800  0.15700  1.0000
  Hg  Hg2       1.0  0.14200  0.40800  0.34300  1.0000
  Hg  Hg3       1.0  0.85800  0.59200  0.65700  1.0000
  Hg  Hg4       1.0  0.40800  0.14200  0.84300  1.0000
