data_image0
_chemical_formula_structural       Ag2Ba2Er2S6
_chemical_formula_sum              "Ag2 Ba2 Er2 S6"
_cell_length_a       4.05071
_cell_length_b       8.58962
_cell_length_c       8.97517
_cell_angle_alpha    102.649
_cell_angle_beta     103.042
_cell_angle_gamma    90

_space_group_name_H-M_alt    "P 1"
_space_group_IT_number       1

loop_
  _space_group_symop_operation_xyz
  'x, y, z'

loop_
  _atom_site_type_symbol
  _atom_site_label
  _atom_site_symmetry_multiplicity
  _atom_site_fract_x
  _atom_site_fract_y
  _atom_site_fract_z
  _atom_site_occupancy
  Ag  Ag1       1.0  0.51500  0.20900  0.03050  1.0000
  Ag  Ag2       1.0  0.48500  0.79100  0.97000  1.0000
  Ba  Ba1       1.0  0.13600  0.56900  0.27200  1.0000
  Ba  Ba2       1.0  0.86400  0.43100  0.72800  1.0000
  Er  Er1       1.0  0.16400  0.08040  0.32800  1.0000
  Er  Er2       1.0  0.83600  0.92000  0.67200  1.0000
  S   S1        1.0  0.00000  0.00000  0.00000  1.0000
  S   S2        1.0  0.50000  0.50000  0.00000  1.0000
  S   S3        1.0  0.67500  0.87100  0.35000  1.0000
  S   S4        1.0  0.67600  0.29900  0.35200  1.0000
  S   S5        1.0  0.32400  0.70100  0.64800  1.0000
  S   S6        1.0  0.32500  0.12900  0.65000  1.0000
