data_image0
_chemical_formula_structural       Cl2Dy2O6Ti2
_chemical_formula_sum              "Cl2 Dy2 O6 Ti2"
_cell_length_a       3.89634
_cell_length_b       5.2521
_cell_length_c       9.77388
_cell_angle_alpha    96.9884
_cell_angle_beta     101.497
_cell_angle_gamma    111.773

_space_group_name_H-M_alt    "P 1"
_space_group_IT_number       1

loop_
  _space_group_symop_operation_xyz
  'x, y, z'

loop_
  _atom_site_type_symbol
  _atom_site_label
  _atom_site_symmetry_multiplicity
  _atom_site_fract_x
  _atom_site_fract_y
  _atom_site_fract_z
  _atom_site_occupancy
  Cl  Cl1       1.0  0.20900  0.32200  0.09620  1.0000
  Cl  Cl2       1.0  0.79100  0.67800  0.90400  1.0000
  Dy  Dy1       1.0  0.98100  0.76100  0.20100  1.0000
  Dy  Dy2       1.0  0.01870  0.23900  0.79900  1.0000
  O   O1        1.0  0.60000  0.95200  0.24700  1.0000
  O   O2        1.0  0.95300  0.53300  0.37400  1.0000
  O   O3        1.0  0.26700  0.10000  0.43500  1.0000
  O   O4        1.0  0.73300  0.90000  0.56500  1.0000
  O   O5        1.0  0.04650  0.46700  0.62600  1.0000
  O   O6        1.0  0.40000  0.04750  0.75300  1.0000
  Ti  Ti1       1.0  0.81100  0.19200  0.43000  1.0000
  Ti  Ti2       1.0  0.18900  0.80800  0.57000  1.0000
