data_image0
_chemical_formula_structural       Cl2Eu2O6Ti2
_chemical_formula_sum              "Cl2 Eu2 O6 Ti2"
_cell_length_a       3.93897
_cell_length_b       5.25085
_cell_length_c       10.1319
_cell_angle_alpha    94.8954
_cell_angle_beta     101.209
_cell_angle_gamma    112.029

_space_group_name_H-M_alt    "P 1"
_space_group_IT_number       1

loop_
  _space_group_symop_operation_xyz
  'x, y, z'

loop_
  _atom_site_type_symbol
  _atom_site_label
  _atom_site_symmetry_multiplicity
  _atom_site_fract_x
  _atom_site_fract_y
  _atom_site_fract_z
  _atom_site_occupancy
  Cl  Cl1       1.0  0.21000  0.31600  0.10500  1.0000
  Cl  Cl2       1.0  0.79000  0.68400  0.89500  1.0000
  Eu  Eu1       1.0  0.96700  0.74900  0.18500  1.0000
  Eu  Eu2       1.0  0.03270  0.25100  0.81500  1.0000
  O   O1        1.0  0.61800  0.97500  0.26100  1.0000
  O   O2        1.0  0.96200  0.53900  0.38500  1.0000
  O   O3        1.0  0.28100  0.11800  0.44500  1.0000
  O   O4        1.0  0.71900  0.88200  0.55500  1.0000
  O   O5        1.0  0.03790  0.46100  0.61500  1.0000
  O   O6        1.0  0.38200  0.02540  0.73900  1.0000
  Ti  Ti1       1.0  0.80800  0.18500  0.43200  1.0000
  Ti  Ti2       1.0  0.19200  0.81500  0.56800  1.0000
