data_image0
_chemical_formula_structural       Hf4Nb4P4
_chemical_formula_sum              "Hf4 Nb4 P4"
_cell_length_a       6.88182
_cell_length_b       3.53599
_cell_length_c       8.31242
_cell_angle_alpha    90
_cell_angle_beta     90
_cell_angle_gamma    90

_space_group_name_H-M_alt    "P 1"
_space_group_IT_number       1

loop_
  _space_group_symop_operation_xyz
  'x, y, z'

loop_
  _atom_site_type_symbol
  _atom_site_label
  _atom_site_symmetry_multiplicity
  _atom_site_fract_x
  _atom_site_fract_y
  _atom_site_fract_z
  _atom_site_occupancy
  Hf  Hf1       1.0  0.53300  0.25000  0.16800  1.0000
  Hf  Hf2       1.0  0.03310  0.25000  0.33200  1.0000
  Hf  Hf3       1.0  0.96700  0.75000  0.66800  1.0000
  Hf  Hf4       1.0  0.46700  0.75000  0.83200  1.0000
  Nb  Nb1       1.0  0.85900  0.75000  0.06010  1.0000
  Nb  Nb2       1.0  0.35900  0.75000  0.44000  1.0000
  Nb  Nb3       1.0  0.64100  0.25000  0.56000  1.0000
  Nb  Nb4       1.0  0.14100  0.25000  0.94000  1.0000
  P   P1        1.0  0.23800  0.75000  0.14400  1.0000
  P   P2        1.0  0.73800  0.75000  0.35600  1.0000
  P   P3        1.0  0.26200  0.25000  0.64400  1.0000
  P   P4        1.0  0.76200  0.25000  0.85600  1.0000
