data_image0
_chemical_formula_structural       Rb4Te4
_chemical_formula_sum              "Rb4 Te4"
_cell_length_a       11.2949
_cell_length_b       5.92973
_cell_length_c       4.91741
_cell_angle_alpha    90
_cell_angle_beta     90
_cell_angle_gamma    90

_space_group_name_H-M_alt    "P 1"
_space_group_IT_number       1

loop_
  _space_group_symop_operation_xyz
  'x, y, z'

loop_
  _atom_site_type_symbol
  _atom_site_label
  _atom_site_symmetry_multiplicity
  _atom_site_fract_x
  _atom_site_fract_y
  _atom_site_fract_z
  _atom_site_occupancy
  Rb  Rb1       1.0  0.63500  0.17300  0.50000  1.0000
  Rb  Rb2       1.0  0.13500  0.32700  0.50000  1.0000
  Rb  Rb3       1.0  0.86500  0.67300  0.50000  1.0000
  Rb  Rb4       1.0  0.36500  0.82700  0.50000  1.0000
  Te  Te1       1.0  0.89800  0.14100  0.00000  1.0000
  Te  Te2       1.0  0.39800  0.35900  0.00000  1.0000
  Te  Te3       1.0  0.60200  0.64100  0.00000  1.0000
  Te  Te4       1.0  0.10200  0.85900  0.00000  1.0000
