data_image0
_chemical_formula_structural       FeO8RbSe2
_chemical_formula_sum              "Fe1 O8 Rb1 Se2"
_cell_length_a       4.94678
_cell_length_b       4.94683
_cell_length_c       8.41462
_cell_angle_alpha    90
_cell_angle_beta     90.0009
_cell_angle_gamma    120

_space_group_name_H-M_alt    "P 1"
_space_group_IT_number       1

loop_
  _space_group_symop_operation_xyz
  'x, y, z'

loop_
  _atom_site_type_symbol
  _atom_site_label
  _atom_site_symmetry_multiplicity
  _atom_site_fract_x
  _atom_site_fract_y
  _atom_site_fract_z
  _atom_site_occupancy
  Fe  Fe1       1.0  1.00000  1.00000  0.50000  1.0000
  O   O1        1.0  0.33300  0.66700  0.08360  1.0000
  O   O2        1.0  0.67200  0.96700  0.34300  1.0000
  O   O3        1.0  0.29500  0.32800  0.34300  1.0000
  O   O4        1.0  0.03250  0.70500  0.34300  1.0000
  O   O5        1.0  0.96700  0.67200  0.65700  1.0000
  O   O6        1.0  0.70500  0.03250  0.65700  1.0000
  O   O7        1.0  0.32800  0.29500  0.65700  1.0000
  O   O8        1.0  0.66700  0.33300  0.91600  1.0000
  Rb  Rb1       1.0  0.00000  0.00000  0.00000  1.0000
  Se  Se1       1.0  0.33300  0.66700  0.27800  1.0000
  Se  Se2       1.0  0.66700  0.33300  0.72200  1.0000
