data_image0
_chemical_formula_structural       Pr2Rh2
_chemical_formula_sum              "Pr2 Rh2"
_cell_length_a       3.98186
_cell_length_b       4.25843
_cell_length_c       5.8503
_cell_angle_alpha    90
_cell_angle_beta     70.1041
_cell_angle_gamma    90

_space_group_name_H-M_alt    "P 1"
_space_group_IT_number       1

loop_
  _space_group_symop_operation_xyz
  'x, y, z'

loop_
  _atom_site_type_symbol
  _atom_site_label
  _atom_site_symmetry_multiplicity
  _atom_site_fract_x
  _atom_site_fract_y
  _atom_site_fract_z
  _atom_site_occupancy
  Pr  Pr1       1.0  0.85800  0.25000  0.28400  1.0000
  Pr  Pr2       1.0  0.14200  0.75000  0.71600  1.0000
  Rh  Rh1       1.0  0.41600  0.75000  0.16900  1.0000
  Rh  Rh2       1.0  0.58400  0.25000  0.83100  1.0000
