data_image0
_chemical_formula_structural       Cu2Na2S6Zr2
_chemical_formula_sum              "Cu2 Na2 S6 Zr2"
_cell_length_a       3.69545
_cell_length_b       6.72781
_cell_length_c       9.78243
_cell_angle_alpha    90
_cell_angle_beta     90
_cell_angle_gamma    74.0595

_space_group_name_H-M_alt    "P 1"
_space_group_IT_number       1

loop_
  _space_group_symop_operation_xyz
  'x, y, z'

loop_
  _atom_site_type_symbol
  _atom_site_label
  _atom_site_symmetry_multiplicity
  _atom_site_fract_x
  _atom_site_fract_y
  _atom_site_fract_z
  _atom_site_occupancy
  Cu  Cu1       1.0  0.46700  0.06610  0.25000  1.0000
  Cu  Cu2       1.0  0.53300  0.93400  0.75000  1.0000
  Na  Na1       1.0  0.74900  0.50200  0.25000  1.0000
  Na  Na2       1.0  0.25100  0.49800  0.75000  1.0000
  S   S1        1.0  0.36700  0.26700  0.05870  1.0000
  S   S2        1.0  0.07700  0.84600  0.25000  1.0000
  S   S3        1.0  0.36700  0.26700  0.44100  1.0000
  S   S4        1.0  0.63300  0.73300  0.55900  1.0000
  S   S5        1.0  0.92300  0.15400  0.75000  1.0000
  S   S6        1.0  0.63300  0.73300  0.94100  1.0000
  Zr  Zr1       1.0  0.00000  0.00000  0.00000  1.0000
  Zr  Zr2       1.0  0.00000  0.00000  0.50000  1.0000
