data_image0
_chemical_formula_structural       Nb2O8Yb2
_chemical_formula_sum              "Nb2 O8 Yb2"
_cell_length_a       5.08708
_cell_length_b       5.30067
_cell_length_c       6.44266
_cell_angle_alpha    112.885
_cell_angle_beta     111.799
_cell_angle_gamma    93.2662

_space_group_name_H-M_alt    "P 1"
_space_group_IT_number       1

loop_
  _space_group_symop_operation_xyz
  'x, y, z'

loop_
  _atom_site_type_symbol
  _atom_site_label
  _atom_site_symmetry_multiplicity
  _atom_site_fract_x
  _atom_site_fract_y
  _atom_site_fract_z
  _atom_site_occupancy
  Nb  Nb1       1.0  0.36200  0.11200  0.22300  1.0000
  Nb  Nb2       1.0  0.63800  0.88800  0.77700  1.0000
  O   O1        1.0  0.48700  0.78900  0.05560  1.0000
  O   O2        1.0  0.06870  0.26700  0.05560  1.0000
  O   O3        1.0  0.70800  0.39700  0.44000  1.0000
  O   O4        1.0  0.23200  0.04320  0.44000  1.0000
  O   O5        1.0  0.76800  0.95700  0.56000  1.0000
  O   O6        1.0  0.29200  0.60300  0.56000  1.0000
  O   O7        1.0  0.93100  0.73300  0.94400  1.0000
  O   O8        1.0  0.51300  0.21100  0.94400  1.0000
  Yb  Yb1       1.0  0.87600  0.62600  0.25300  1.0000
  Yb  Yb2       1.0  0.12400  0.37400  0.74700  1.0000
