data_image0
_chemical_formula_structural       Mn4P4Zr4
_chemical_formula_sum              "Mn4 P4 Zr4"
_cell_length_a       6.44077
_cell_length_b       3.63325
_cell_length_c       7.51846
_cell_angle_alpha    90
_cell_angle_beta     90
_cell_angle_gamma    90

_space_group_name_H-M_alt    "P 1"
_space_group_IT_number       1

loop_
  _space_group_symop_operation_xyz
  'x, y, z'

loop_
  _atom_site_type_symbol
  _atom_site_label
  _atom_site_symmetry_multiplicity
  _atom_site_fract_x
  _atom_site_fract_y
  _atom_site_fract_z
  _atom_site_occupancy
  Mn  Mn1       1.0  0.36500  0.75000  0.05940  1.0000
  Mn  Mn2       1.0  0.86500  0.75000  0.44100  1.0000
  Mn  Mn3       1.0  0.13500  0.25000  0.55900  1.0000
  Mn  Mn4       1.0  0.63500  0.25000  0.94100  1.0000
  P   P1        1.0  0.73100  0.75000  0.12700  1.0000
  P   P2        1.0  0.23100  0.75000  0.37300  1.0000
  P   P3        1.0  0.76900  0.25000  0.62700  1.0000
  P   P4        1.0  0.26900  0.25000  0.87300  1.0000
  Zr  Zr1       1.0  0.03080  0.25000  0.17600  1.0000
  Zr  Zr2       1.0  0.53100  0.25000  0.32400  1.0000
  Zr  Zr3       1.0  0.46900  0.75000  0.67600  1.0000
  Zr  Zr4       1.0  0.96900  0.75000  0.82400  1.0000
