data_image0
_chemical_formula_structural       In2K6P4
_chemical_formula_sum              "In2 K6 P4"
_cell_length_a       6.88036
_cell_length_b       7.65776
_cell_length_c       8.91902
_cell_angle_alpha    64.5773
_cell_angle_beta     112.688
_cell_angle_gamma    90

_space_group_name_H-M_alt    "P 1"
_space_group_IT_number       1

loop_
  _space_group_symop_operation_xyz
  'x, y, z'

loop_
  _atom_site_type_symbol
  _atom_site_label
  _atom_site_symmetry_multiplicity
  _atom_site_fract_x
  _atom_site_fract_y
  _atom_site_fract_z
  _atom_site_occupancy
  In  In1       1.0  0.25000  0.00000  0.00000  1.0000
  In  In2       1.0  0.75000  0.00000  0.00000  1.0000
  K   K1        1.0  0.25000  0.50000  0.00000  1.0000
  K   K2        1.0  0.75000  0.50000  0.00000  1.0000
  K   K3        1.0  0.68500  0.01510  0.36900  1.0000
  K   K4        1.0  0.18500  0.61600  0.36900  1.0000
  K   K5        1.0  0.81500  0.38400  0.63100  1.0000
  K   K6        1.0  0.31500  0.98500  0.63100  1.0000
  P   P1        1.0  0.09730  0.09280  0.19500  1.0000
  P   P2        1.0  0.59700  0.71200  0.19500  1.0000
  P   P3        1.0  0.40300  0.28800  0.80500  1.0000
  P   P4        1.0  0.90300  0.90700  0.80500  1.0000
