data_image0
_chemical_formula_structural       Pt2Th2
_chemical_formula_sum              "Pt2 Th2"
_cell_length_a       3.93771
_cell_length_b       4.48315
_cell_length_c       5.96876
_cell_angle_alpha    90
_cell_angle_beta     70.7397
_cell_angle_gamma    90

_space_group_name_H-M_alt    "P 1"
_space_group_IT_number       1

loop_
  _space_group_symop_operation_xyz
  'x, y, z'

loop_
  _atom_site_type_symbol
  _atom_site_label
  _atom_site_symmetry_multiplicity
  _atom_site_fract_x
  _atom_site_fract_y
  _atom_site_fract_z
  _atom_site_occupancy
  Pt  Pt1       1.0  0.40300  0.75000  0.19400  1.0000
  Pt  Pt2       1.0  0.59700  0.25000  0.80600  1.0000
  Th  Th1       1.0  0.86400  0.25000  0.27200  1.0000
  Th  Th2       1.0  0.13600  0.75000  0.72800  1.0000
