data_image0
_chemical_formula_structural       Ba3S7Zr2
_chemical_formula_sum              "Ba3 S7 Zr2"
_cell_length_a       5.03186
_cell_length_b       5.03186
_cell_length_c       13.3643
_cell_angle_alpha    100.851
_cell_angle_beta     100.851
_cell_angle_gamma    90

_space_group_name_H-M_alt    "P 1"
_space_group_IT_number       1

loop_
  _space_group_symop_operation_xyz
  'x, y, z'

loop_
  _atom_site_type_symbol
  _atom_site_label
  _atom_site_symmetry_multiplicity
  _atom_site_fract_x
  _atom_site_fract_y
  _atom_site_fract_z
  _atom_site_occupancy
  Ba  Ba1       1.0  0.00000  0.00000  0.00000  1.0000
  Ba  Ba2       1.0  0.18100  0.18100  0.36100  1.0000
  Ba  Ba3       1.0  0.81900  0.81900  0.63900  1.0000
  S   S1        1.0  0.50000  0.50000  0.00000  1.0000
  S   S2        1.0  0.59600  0.09600  0.19200  1.0000
  S   S3        1.0  0.09600  0.59600  0.19200  1.0000
  S   S4        1.0  0.69800  0.69800  0.39700  1.0000
  S   S5        1.0  0.30200  0.30200  0.60300  1.0000
  S   S6        1.0  0.90400  0.40400  0.80800  1.0000
  S   S7        1.0  0.40400  0.90400  0.80800  1.0000
  Zr  Zr1       1.0  0.60000  0.60000  0.20100  1.0000
  Zr  Zr2       1.0  0.40000  0.40000  0.79900  1.0000
