data_image0
_chemical_formula_structural       CuDyO8W2
_chemical_formula_sum              "Cu1 Dy1 O8 W2"
_cell_length_a       5.90745
_cell_length_b       6.07832
_cell_length_c       5.00857
_cell_angle_alpha    113.397
_cell_angle_beta     92.5269
_cell_angle_gamma    110.803

_space_group_name_H-M_alt    "P 1"
_space_group_IT_number       1

loop_
  _space_group_symop_operation_xyz
  'x, y, z'

loop_
  _atom_site_type_symbol
  _atom_site_label
  _atom_site_symmetry_multiplicity
  _atom_site_fract_x
  _atom_site_fract_y
  _atom_site_fract_z
  _atom_site_occupancy
  Cu  Cu1       1.0  0.20800  0.09450  0.13500  1.0000
  Dy  Dy1       1.0  0.72600  0.09840  0.66000  1.0000
  O   O1        1.0  0.19600  0.36900  0.06210  1.0000
  O   O2        1.0  0.73900  0.35800  0.13300  1.0000
  O   O3        1.0  0.64200  0.82900  0.15900  1.0000
  O   O4        1.0  0.17500  0.79300  0.16800  1.0000
  O   O5        1.0  0.03380  0.38700  0.57800  1.0000
  O   O6        1.0  0.49800  0.34200  0.64000  1.0000
  O   O7        1.0  0.92500  0.83900  0.64700  1.0000
  O   O8        1.0  0.38200  0.77900  0.65900  1.0000
  W   W1        1.0  0.02690  0.61100  0.38400  1.0000
  W   W2        1.0  0.38000  0.56800  0.87200  1.0000
