data_image0
_chemical_formula_structural       Ge4Ru4Tm4
_chemical_formula_sum              "Ge4 Ru4 Tm4"
_cell_length_a       6.9608
_cell_length_b       4.36978
_cell_length_c       7.2588
_cell_angle_alpha    90
_cell_angle_beta     90
_cell_angle_gamma    90

_space_group_name_H-M_alt    "P 1"
_space_group_IT_number       1

loop_
  _space_group_symop_operation_xyz
  'x, y, z'

loop_
  _atom_site_type_symbol
  _atom_site_label
  _atom_site_symmetry_multiplicity
  _atom_site_fract_x
  _atom_site_fract_y
  _atom_site_fract_z
  _atom_site_occupancy
  Ge  Ge1       1.0  0.70500  0.75000  0.10700  1.0000
  Ge  Ge2       1.0  0.20500  0.75000  0.39300  1.0000
  Ge  Ge3       1.0  0.79500  0.25000  0.60700  1.0000
  Ge  Ge4       1.0  0.29500  0.25000  0.89300  1.0000
  Ru  Ru1       1.0  0.34300  0.75000  0.06260  1.0000
  Ru  Ru2       1.0  0.84300  0.75000  0.43700  1.0000
  Ru  Ru3       1.0  0.15700  0.25000  0.56300  1.0000
  Ru  Ru4       1.0  0.65700  0.25000  0.93700  1.0000
  Tm  Tm1       1.0  0.99000  0.25000  0.19300  1.0000
  Tm  Tm2       1.0  0.49000  0.25000  0.30700  1.0000
  Tm  Tm3       1.0  0.51000  0.75000  0.69300  1.0000
  Tm  Tm4       1.0  0.01030  0.75000  0.80700  1.0000
