data_image0
_chemical_formula_structural       Mn4P4Ta4
_chemical_formula_sum              "Mn4 P4 Ta4"
_cell_length_a       6.09826
_cell_length_b       3.61325
_cell_length_c       7.07115
_cell_angle_alpha    90
_cell_angle_beta     90
_cell_angle_gamma    90

_space_group_name_H-M_alt    "P 1"
_space_group_IT_number       1

loop_
  _space_group_symop_operation_xyz
  'x, y, z'

loop_
  _atom_site_type_symbol
  _atom_site_label
  _atom_site_symmetry_multiplicity
  _atom_site_fract_x
  _atom_site_fract_y
  _atom_site_fract_z
  _atom_site_occupancy
  Mn  Mn1       1.0  0.35500  0.75000  0.05930  1.0000
  Mn  Mn2       1.0  0.85500  0.75000  0.44100  1.0000
  Mn  Mn3       1.0  0.14500  0.25000  0.55900  1.0000
  Mn  Mn4       1.0  0.64500  0.25000  0.94100  1.0000
  P   P1        1.0  0.72500  0.75000  0.12500  1.0000
  P   P2        1.0  0.22500  0.75000  0.37500  1.0000
  P   P3        1.0  0.77500  0.25000  0.62500  1.0000
  P   P4        1.0  0.27500  0.25000  0.87500  1.0000
  Ta  Ta1       1.0  0.02560  0.25000  0.17600  1.0000
  Ta  Ta2       1.0  0.52600  0.25000  0.32400  1.0000
  Ta  Ta3       1.0  0.47400  0.75000  0.67600  1.0000
  Ta  Ta4       1.0  0.97400  0.75000  0.82400  1.0000
