data_image0
_chemical_formula_structural       P4V8
_chemical_formula_sum              "P4 V8"
_cell_length_a       6.16528
_cell_length_b       3.25719
_cell_length_c       7.55125
_cell_angle_alpha    90
_cell_angle_beta     90
_cell_angle_gamma    90

_space_group_name_H-M_alt    "P 1"
_space_group_IT_number       1

loop_
  _space_group_symop_operation_xyz
  'x, y, z'

loop_
  _atom_site_type_symbol
  _atom_site_label
  _atom_site_symmetry_multiplicity
  _atom_site_fract_x
  _atom_site_fract_y
  _atom_site_fract_z
  _atom_site_occupancy
  P   P1        1.0  0.24900  0.25000  0.14300  1.0000
  P   P2        1.0  0.74900  0.25000  0.35700  1.0000
  P   P3        1.0  0.25100  0.75000  0.64300  1.0000
  P   P4        1.0  0.75100  0.75000  0.85700  1.0000
  V   V1        1.0  0.86100  0.25000  0.05870  1.0000
  V   V2        1.0  0.54100  0.75000  0.16700  1.0000
  V   V3        1.0  0.04110  0.75000  0.33300  1.0000
  V   V4        1.0  0.36100  0.25000  0.44100  1.0000
  V   V5        1.0  0.63900  0.75000  0.55900  1.0000
  V   V6        1.0  0.95900  0.25000  0.66700  1.0000
  V   V7        1.0  0.45900  0.25000  0.83300  1.0000
  V   V8        1.0  0.13900  0.75000  0.94100  1.0000
