data_image0
_chemical_formula_structural       S2W
_chemical_formula_sum              "S2 W1"
_cell_length_a       3.18495
_cell_length_b       3.18494
_cell_length_c       6.64449
_cell_angle_alpha    76.133
_cell_angle_beta     103.867
_cell_angle_gamma    120

_space_group_name_H-M_alt    "P 1"
_space_group_IT_number       1

loop_
  _space_group_symop_operation_xyz
  'x, y, z'

loop_
  _atom_site_type_symbol
  _atom_site_label
  _atom_site_symmetry_multiplicity
  _atom_site_fract_x
  _atom_site_fract_y
  _atom_site_fract_z
  _atom_site_occupancy
  S   S1        1.0  0.74800  0.25200  0.24400  1.0000
  S   S2        1.0  0.58400  0.41600  0.75100  1.0000
  W   W1        1.0  0.99900  0.00067  0.99800  1.0000
