data_image0
_chemical_formula_structural       Na2O6Rb2Ti2
_chemical_formula_sum              "Na2 O6 Rb2 Ti2"
_cell_length_a       5.54562
_cell_length_b       5.861
_cell_length_c       6.21758
_cell_angle_alpha    61.8797
_cell_angle_beta     91.2833
_cell_angle_gamma    92.7235

_space_group_name_H-M_alt    "P 1"
_space_group_IT_number       1

loop_
  _space_group_symop_operation_xyz
  'x, y, z'

loop_
  _atom_site_type_symbol
  _atom_site_label
  _atom_site_symmetry_multiplicity
  _atom_site_fract_x
  _atom_site_fract_y
  _atom_site_fract_z
  _atom_site_occupancy
  Na  Na1       1.0  0.75000  0.42400  0.15200  1.0000
  Na  Na2       1.0  0.25000  0.57600  0.84800  1.0000
  O   O1        1.0  0.99800  0.20800  0.01880  1.0000
  O   O2        1.0  0.50200  0.77300  0.01880  1.0000
  O   O3        1.0  0.25000  0.78500  0.43000  1.0000
  O   O4        1.0  0.75000  0.21500  0.57000  1.0000
  O   O5        1.0  0.49800  0.22700  0.98100  1.0000
  O   O6        1.0  0.00157  0.79200  0.98100  1.0000
  Rb  Rb1       1.0  0.25000  0.26800  0.46500  1.0000
  Rb  Rb2       1.0  0.75000  0.73200  0.53500  1.0000
  Ti  Ti1       1.0  0.25000  0.94800  0.10400  1.0000
  Ti  Ti2       1.0  0.75000  0.05180  0.89600  1.0000
