data_image0
_chemical_formula_structural       Cs2Na2O6Ti2
_chemical_formula_sum              "Cs2 Na2 O6 Ti2"
_cell_length_a       5.63051
_cell_length_b       5.98201
_cell_length_c       6.32112
_cell_angle_alpha    61.7593
_cell_angle_beta     90
_cell_angle_gamma    90

_space_group_name_H-M_alt    "P 1"
_space_group_IT_number       1

loop_
  _space_group_symop_operation_xyz
  'x, y, z'

loop_
  _atom_site_type_symbol
  _atom_site_label
  _atom_site_symmetry_multiplicity
  _atom_site_fract_x
  _atom_site_fract_y
  _atom_site_fract_z
  _atom_site_occupancy
  Cs  Cs1       1.0  0.75000  0.26800  0.46400  1.0000
  Cs  Cs2       1.0  0.25000  0.73200  0.53600  1.0000
  Na  Na1       1.0  0.25000  0.42500  0.14900  1.0000
  Na  Na2       1.0  0.75000  0.57500  0.85100  1.0000
  O   O1        1.0  0.00000  0.21500  0.00000  1.0000
  O   O2        1.0  0.50000  0.21500  0.00000  1.0000
  O   O3        1.0  0.00000  0.78500  0.00000  1.0000
  O   O4        1.0  0.50000  0.78500  0.00000  1.0000
  O   O5        1.0  0.75000  0.79100  0.41800  1.0000
  O   O6        1.0  0.25000  0.20900  0.58200  1.0000
  Ti  Ti1       1.0  0.75000  0.95100  0.09740  1.0000
  Ti  Ti2       1.0  0.25000  0.04870  0.90300  1.0000
