data_image0
_chemical_formula_structural       N16S16
_chemical_formula_sum              "N16 S16"
_cell_length_a       8.41987
_cell_length_b       6.89384
_cell_length_c       8.29533
_cell_angle_alpha    90
_cell_angle_beta     93.5888
_cell_angle_gamma    90

_space_group_name_H-M_alt    "P 1"
_space_group_IT_number       1

loop_
  _space_group_symop_operation_xyz
  'x, y, z'

loop_
  _atom_site_type_symbol
  _atom_site_label
  _atom_site_symmetry_multiplicity
  _atom_site_fract_x
  _atom_site_fract_y
  _atom_site_fract_z
  _atom_site_occupancy
  N   N1        1.0  0.99000  0.23400  0.03430  1.0000
  N   N2        1.0  0.49000  0.26600  0.53400  1.0000
  N   N3        1.0  0.01050  0.76600  0.96600  1.0000
  N   N4        1.0  0.51000  0.73400  0.46600  1.0000
  N   N5        1.0  0.97100  0.72100  0.40000  1.0000
  N   N6        1.0  0.52900  0.22100  0.10000  1.0000
  N   N7        1.0  0.02890  0.27900  0.60000  1.0000
  N   N8        1.0  0.47100  0.77900  0.90000  1.0000
  N   N9        1.0  0.81000  0.60200  0.14500  1.0000
  N   N10       1.0  0.69000  0.10200  0.35500  1.0000
  N   N11       1.0  0.19000  0.39800  0.85500  1.0000
  N   N12       1.0  0.31000  0.89800  0.64500  1.0000
  N   N13       1.0  0.17000  0.88600  0.22100  1.0000
  N   N14       1.0  0.33000  0.38600  0.27900  1.0000
  N   N15       1.0  0.83000  0.11400  0.77900  1.0000
  N   N16       1.0  0.67000  0.61400  0.72100  1.0000
  S   S1        1.0  0.84400  0.80300  0.05110  1.0000
  S   S2        1.0  0.65600  0.30300  0.44900  1.0000
  S   S3        1.0  0.15600  0.19700  0.94900  1.0000
  S   S4        1.0  0.34400  0.69700  0.55100  1.0000
  S   S5        1.0  0.15800  0.70800  0.09390  1.0000
  S   S6        1.0  0.34200  0.20800  0.40600  1.0000
  S   S7        1.0  0.84200  0.29200  0.90600  1.0000
  S   S8        1.0  0.65800  0.79200  0.59400  1.0000
  S   S9        1.0  0.00604  0.92600  0.31000  1.0000
  S   S10       1.0  0.49400  0.42600  0.19000  1.0000
  S   S11       1.0  0.99400  0.07380  0.69000  1.0000
  S   S12       1.0  0.50600  0.57400  0.81000  1.0000
  S   S13       1.0  0.95500  0.53900  0.27500  1.0000
  S   S14       1.0  0.54500  0.03900  0.22500  1.0000
  S   S15       1.0  0.04450  0.46100  0.72500  1.0000
  S   S16       1.0  0.45500  0.96100  0.77500  1.0000
