data_image0
_chemical_formula_structural       Cl8Si4
_chemical_formula_sum              "Cl8 Si4"
_cell_length_a       4.00875
_cell_length_b       6.68678
_cell_length_c       13.1388
_cell_angle_alpha    90
_cell_angle_beta     90
_cell_angle_gamma    90

_space_group_name_H-M_alt    "P 1"
_space_group_IT_number       1

loop_
  _space_group_symop_operation_xyz
  'x, y, z'

loop_
  _atom_site_type_symbol
  _atom_site_label
  _atom_site_symmetry_multiplicity
  _atom_site_fract_x
  _atom_site_fract_y
  _atom_site_fract_z
  _atom_site_occupancy
  Cl  Cl1       1.0  0.52600  0.07280  0.09300  1.0000
  Cl  Cl2       1.0  0.02420  0.54700  0.15700  1.0000
  Cl  Cl3       1.0  0.97600  0.04660  0.34300  1.0000
  Cl  Cl4       1.0  0.47400  0.57300  0.40700  1.0000
  Cl  Cl5       1.0  0.97400  0.92700  0.59300  1.0000
  Cl  Cl6       1.0  0.47600  0.45300  0.65700  1.0000
  Cl  Cl7       1.0  0.52400  0.95300  0.84300  1.0000
  Cl  Cl8       1.0  0.02610  0.42700  0.90700  1.0000
  Si  Si1       1.0  0.03170  0.65800  0.01110  1.0000
  Si  Si2       1.0  0.96800  0.15800  0.48900  1.0000
  Si  Si3       1.0  0.46800  0.34200  0.51100  1.0000
  Si  Si4       1.0  0.53200  0.84200  0.98900  1.0000
