data_image0
_chemical_formula_structural       Ba2Cu2Er2S6
_chemical_formula_sum              "Ba2 Cu2 Er2 S6"
_cell_length_a       3.9951
_cell_length_b       7.04781
_cell_length_c       10.1565
_cell_angle_alpha    90
_cell_angle_beta     90
_cell_angle_gamma    73.535

_space_group_name_H-M_alt    "P 1"
_space_group_IT_number       1

loop_
  _space_group_symop_operation_xyz
  'x, y, z'

loop_
  _atom_site_type_symbol
  _atom_site_label
  _atom_site_symmetry_multiplicity
  _atom_site_fract_x
  _atom_site_fract_y
  _atom_site_fract_z
  _atom_site_occupancy
  Ba  Ba1       1.0  0.74400  0.51100  0.25000  1.0000
  Ba  Ba2       1.0  0.25600  0.48900  0.75000  1.0000
  Cu  Cu1       1.0  0.46700  0.06530  0.25000  1.0000
  Cu  Cu2       1.0  0.53300  0.93500  0.75000  1.0000
  Er  Er1       1.0  0.00000  0.00000  0.00000  1.0000
  Er  Er2       1.0  0.00000  0.00000  0.50000  1.0000
  S   S1        1.0  0.36900  0.26200  0.06100  1.0000
  S   S2        1.0  0.06540  0.86900  0.25000  1.0000
  S   S3        1.0  0.36900  0.26200  0.43900  1.0000
  S   S4        1.0  0.63100  0.73800  0.56100  1.0000
  S   S5        1.0  0.93500  0.13100  0.75000  1.0000
  S   S6        1.0  0.63100  0.73800  0.93900  1.0000
