data_image0
_chemical_formula_structural       Fe2P2Ta8
_chemical_formula_sum              "Fe2 P2 Ta8"
_cell_length_a       6.09962
_cell_length_b       6.09962
_cell_length_c       5.08178
_cell_angle_alpha    90
_cell_angle_beta     90
_cell_angle_gamma    90

_space_group_name_H-M_alt    "P 1"
_space_group_IT_number       1

loop_
  _space_group_symop_operation_xyz
  'x, y, z'

loop_
  _atom_site_type_symbol
  _atom_site_label
  _atom_site_symmetry_multiplicity
  _atom_site_fract_x
  _atom_site_fract_y
  _atom_site_fract_z
  _atom_site_occupancy
  Fe  Fe1       1.0  0.00000  0.00000  0.25000  1.0000
  Fe  Fe2       1.0  0.00000  0.00000  0.75000  1.0000
  P   P1        1.0  0.50000  0.50000  0.25000  1.0000
  P   P2        1.0  0.50000  0.50000  0.75000  1.0000
  Ta  Ta1       1.0  0.33000  0.15700  0.00000  1.0000
  Ta  Ta2       1.0  0.84300  0.33000  0.00000  1.0000
  Ta  Ta3       1.0  0.15700  0.67000  0.00000  1.0000
  Ta  Ta4       1.0  0.67000  0.84300  0.00000  1.0000
  Ta  Ta5       1.0  0.67000  0.15700  0.50000  1.0000
  Ta  Ta6       1.0  0.15700  0.33000  0.50000  1.0000
  Ta  Ta7       1.0  0.84300  0.67000  0.50000  1.0000
  Ta  Ta8       1.0  0.33000  0.84300  0.50000  1.0000
