data_image0
_chemical_formula_structural       Pd8Sb4
_chemical_formula_sum              "Pd8 Sb4"
_cell_length_a       3.40268
_cell_length_b       7.01922
_cell_length_c       9.01746
_cell_angle_alpha    90
_cell_angle_beta     79.1247
_cell_angle_gamma    90

_space_group_name_H-M_alt    "P 1"
_space_group_IT_number       1

loop_
  _space_group_symop_operation_xyz
  'x, y, z'

loop_
  _atom_site_type_symbol
  _atom_site_label
  _atom_site_symmetry_multiplicity
  _atom_site_fract_x
  _atom_site_fract_y
  _atom_site_fract_z
  _atom_site_occupancy
  Pd  Pd1       1.0  0.96100  0.99600  0.07710  1.0000
  Pd  Pd2       1.0  0.41300  0.67300  0.17400  1.0000
  Pd  Pd3       1.0  0.33000  0.04720  0.34000  1.0000
  Pd  Pd4       1.0  0.82500  0.39500  0.35100  1.0000
  Pd  Pd5       1.0  0.17500  0.89500  0.64900  1.0000
  Pd  Pd6       1.0  0.67000  0.54700  0.66000  1.0000
  Pd  Pd7       1.0  0.58700  0.17300  0.82600  1.0000
  Pd  Pd8       1.0  0.03850  0.49600  0.92300  1.0000
  Sb  Sb1       1.0  0.44300  0.30300  0.11400  1.0000
  Sb  Sb2       1.0  0.79400  0.77100  0.41200  1.0000
  Sb  Sb3       1.0  0.20600  0.27100  0.58800  1.0000
  Sb  Sb4       1.0  0.55700  0.80300  0.88600  1.0000
