data_image0
_chemical_formula_structural       S4Se4U4
_chemical_formula_sum              "S4 Se4 U4"
_cell_length_a       7.29957
_cell_length_b       4.07277
_cell_length_c       8.65433
_cell_angle_alpha    90
_cell_angle_beta     90
_cell_angle_gamma    90

_space_group_name_H-M_alt    "P 1"
_space_group_IT_number       1

loop_
  _space_group_symop_operation_xyz
  'x, y, z'

loop_
  _atom_site_type_symbol
  _atom_site_label
  _atom_site_symmetry_multiplicity
  _atom_site_fract_x
  _atom_site_fract_y
  _atom_site_fract_z
  _atom_site_occupancy
  S   S1        1.0  0.85400  0.25000  0.07000  1.0000
  S   S2        1.0  0.35400  0.25000  0.43000  1.0000
  S   S3        1.0  0.64600  0.75000  0.57000  1.0000
  S   S4        1.0  0.14600  0.75000  0.93000  1.0000
  Se  Se1       1.0  0.53000  0.75000  0.16400  1.0000
  Se  Se2       1.0  0.02950  0.75000  0.33600  1.0000
  Se  Se3       1.0  0.97000  0.25000  0.66400  1.0000
  Se  Se4       1.0  0.47000  0.25000  0.83600  1.0000
  U   U1        1.0  0.22700  0.25000  0.12700  1.0000
  U   U2        1.0  0.72700  0.25000  0.37300  1.0000
  U   U3        1.0  0.27300  0.75000  0.62700  1.0000
  U   U4        1.0  0.77300  0.75000  0.87300  1.0000
