data_image0
_chemical_formula_structural       O8Pd2S2
_chemical_formula_sum              "O8 Pd2 S2"
_cell_length_a       4.65766
_cell_length_b       4.65766
_cell_length_c       7.91424
_cell_angle_alpha    94.8107
_cell_angle_beta     94.8107
_cell_angle_gamma    65.8761

_space_group_name_H-M_alt    "P 1"
_space_group_IT_number       1

loop_
  _space_group_symop_operation_xyz
  'x, y, z'

loop_
  _atom_site_type_symbol
  _atom_site_label
  _atom_site_symmetry_multiplicity
  _atom_site_fract_x
  _atom_site_fract_y
  _atom_site_fract_z
  _atom_site_occupancy
  O   O1        1.0  0.76800  0.26500  0.09660  1.0000
  O   O2        1.0  0.92200  0.76000  0.22400  1.0000
  O   O3        1.0  0.24000  0.07790  0.27600  1.0000
  O   O4        1.0  0.73500  0.23200  0.40300  1.0000
  O   O5        1.0  0.26500  0.76800  0.59700  1.0000
  O   O6        1.0  0.76000  0.92200  0.72400  1.0000
  O   O7        1.0  0.07790  0.24000  0.77600  1.0000
  O   O8        1.0  0.23200  0.73500  0.90300  1.0000
  Pd  Pd1       1.0  1.00000  0.50000  0.00000  1.0000
  Pd  Pd2       1.0  0.50000  0.00000  0.50000  1.0000
  S   S1        1.0  0.91800  0.08170  0.25000  1.0000
  S   S2        1.0  0.08170  0.91800  0.75000  1.0000
