data_image0
_chemical_formula_structural       Si2Tm2
_chemical_formula_sum              "Si2 Tm2"
_cell_length_a       3.78847
_cell_length_b       4.20823
_cell_length_c       5.60411
_cell_angle_alpha    67.9473
_cell_angle_beta     90
_cell_angle_gamma    90

_space_group_name_H-M_alt    "P 1"
_space_group_IT_number       1

loop_
  _space_group_symop_operation_xyz
  'x, y, z'

loop_
  _atom_site_type_symbol
  _atom_site_label
  _atom_site_symmetry_multiplicity
  _atom_site_fract_x
  _atom_site_fract_y
  _atom_site_fract_z
  _atom_site_occupancy
  Si  Si1       1.0  0.75000  0.42200  0.15600  1.0000
  Si  Si2       1.0  0.25000  0.57800  0.84400  1.0000
  Tm  Tm1       1.0  0.25000  0.85900  0.28100  1.0000
  Tm  Tm2       1.0  0.75000  0.14100  0.71900  1.0000
