data_image0
_chemical_formula_structural       Pt4Te6Tl2
_chemical_formula_sum              "Pt4 Te6 Tl2"
_cell_length_a       8.05412
_cell_length_b       8.05407
_cell_length_c       5.72575
_cell_angle_alpha    90
_cell_angle_beta     90.0007
_cell_angle_gamma    120

_space_group_name_H-M_alt    "P 1"
_space_group_IT_number       1

loop_
  _space_group_symop_operation_xyz
  'x, y, z'

loop_
  _atom_site_type_symbol
  _atom_site_label
  _atom_site_symmetry_multiplicity
  _atom_site_fract_x
  _atom_site_fract_y
  _atom_site_fract_z
  _atom_site_occupancy
  Pt  Pt1       1.0  0.50000  0.00000  0.00000  1.0000
  Pt  Pt2       1.0  0.50000  0.50000  0.00000  1.0000
  Pt  Pt3       1.0  0.00000  0.50000  0.00000  1.0000
  Pt  Pt4       1.0  0.00000  0.00000  0.00000  1.0000
  Te  Te1       1.0  0.33800  0.16900  0.23300  1.0000
  Te  Te2       1.0  0.83100  0.16900  0.23300  1.0000
  Te  Te3       1.0  0.83100  0.66200  0.23300  1.0000
  Te  Te4       1.0  0.16900  0.33800  0.76700  1.0000
  Te  Te5       1.0  0.16900  0.83100  0.76700  1.0000
  Te  Te6       1.0  0.66200  0.83100  0.76700  1.0000
  Tl  Tl1       1.0  0.33300  0.66700  0.31600  1.0000
  Tl  Tl2       1.0  0.66700  0.33300  0.68400  1.0000
