data_image0
_chemical_formula_structural       Ru4Si4Tb4
_chemical_formula_sum              "Ru4 Si4 Tb4"
_cell_length_a       7.03729
_cell_length_b       4.36424
_cell_length_c       7.09488
_cell_angle_alpha    90
_cell_angle_beta     90
_cell_angle_gamma    90

_space_group_name_H-M_alt    "P 1"
_space_group_IT_number       1

loop_
  _space_group_symop_operation_xyz
  'x, y, z'

loop_
  _atom_site_type_symbol
  _atom_site_label
  _atom_site_symmetry_multiplicity
  _atom_site_fract_x
  _atom_site_fract_y
  _atom_site_fract_z
  _atom_site_occupancy
  Ru  Ru1       1.0  0.34800  0.75000  0.06750  1.0000
  Ru  Ru2       1.0  0.84800  0.75000  0.43200  1.0000
  Ru  Ru3       1.0  0.15200  0.25000  0.56800  1.0000
  Ru  Ru4       1.0  0.65200  0.25000  0.93200  1.0000
  Si  Si1       1.0  0.69400  0.75000  0.10600  1.0000
  Si  Si2       1.0  0.19400  0.75000  0.39400  1.0000
  Si  Si3       1.0  0.80600  0.25000  0.60600  1.0000
  Si  Si4       1.0  0.30600  0.25000  0.89400  1.0000
  Tb  Tb1       1.0  0.98400  0.25000  0.18600  1.0000
  Tb  Tb2       1.0  0.48400  0.25000  0.31400  1.0000
  Tb  Tb3       1.0  0.51600  0.75000  0.68600  1.0000
  Tb  Tb4       1.0  0.01640  0.75000  0.81400  1.0000
