data_image0
_chemical_formula_structural       RbS8SbU2
_chemical_formula_sum              "Rb1 S8 Sb1 U2"
_cell_length_a       6.84316
_cell_length_b       6.84316
_cell_length_c       7.46191
_cell_angle_alpha    98.9663
_cell_angle_beta     98.9663
_cell_angle_gamma    109.29

_space_group_name_H-M_alt    "P 1"
_space_group_IT_number       1

loop_
  _space_group_symop_operation_xyz
  'x, y, z'

loop_
  _atom_site_type_symbol
  _atom_site_label
  _atom_site_symmetry_multiplicity
  _atom_site_fract_x
  _atom_site_fract_y
  _atom_site_fract_z
  _atom_site_occupancy
  Rb  Rb1       1.0  0.54200  0.54200  0.16100  1.0000
  S   S1        1.0  0.70100  0.03120  0.45400  1.0000
  S   S2        1.0  0.03120  0.70100  0.45400  1.0000
  S   S3        1.0  0.51100  0.21200  0.46400  1.0000
  S   S4        1.0  0.21200  0.51100  0.46400  1.0000
  S   S5        1.0  0.69800  0.69800  0.77300  1.0000
  S   S6        1.0  0.18900  0.18900  0.77500  1.0000
  S   S7        1.0  0.74800  0.22900  0.95000  1.0000
  S   S8        1.0  0.22900  0.74800  0.95000  1.0000
  Sb  Sb1       1.0  0.99600  0.99600  0.98400  1.0000
  U   U1        1.0  0.92300  0.42400  0.69400  1.0000
  U   U2        1.0  0.42400  0.92300  0.69400  1.0000
