data_image0
_chemical_formula_structural       Bi4O8
_chemical_formula_sum              "Bi4 O8"
_cell_length_a       5.17614
_cell_length_b       5.57213
_cell_length_c       6.69081
_cell_angle_alpha    107.142
_cell_angle_beta     112.756
_cell_angle_gamma    90

_space_group_name_H-M_alt    "P 1"
_space_group_IT_number       1

loop_
  _space_group_symop_operation_xyz
  'x, y, z'

loop_
  _atom_site_type_symbol
  _atom_site_label
  _atom_site_symmetry_multiplicity
  _atom_site_fract_x
  _atom_site_fract_y
  _atom_site_fract_z
  _atom_site_occupancy
  Bi  Bi1       1.0  0.25800  0.25000  1.00000  1.0000
  Bi  Bi2       1.0  0.74200  0.75000  1.00000  1.0000
  Bi  Bi3       1.0  0.50000  1.00000  0.50000  1.0000
  Bi  Bi4       1.0  0.00000  0.50000  0.50000  1.0000
  O   O1        1.0  0.67700  0.47900  0.18700  1.0000
  O   O2        1.0  0.50900  0.97900  0.18700  1.0000
  O   O3        1.0  0.10800  0.14300  0.34600  1.0000
  O   O4        1.0  0.23900  0.64300  0.34600  1.0000
  O   O5        1.0  0.89200  0.85700  0.65400  1.0000
  O   O6        1.0  0.76100  0.35700  0.65400  1.0000
  O   O7        1.0  0.49100  0.02080  0.81300  1.0000
  O   O8        1.0  0.32300  0.52100  0.81300  1.0000
