data_image0
_chemical_formula_structural       Ru4Si4Y4
_chemical_formula_sum              "Ru4 Si4 Y4"
_cell_length_a       7.00706
_cell_length_b       4.31694
_cell_length_c       7.16544
_cell_angle_alpha    90
_cell_angle_beta     90
_cell_angle_gamma    90

_space_group_name_H-M_alt    "P 1"
_space_group_IT_number       1

loop_
  _space_group_symop_operation_xyz
  'x, y, z'

loop_
  _atom_site_type_symbol
  _atom_site_label
  _atom_site_symmetry_multiplicity
  _atom_site_fract_x
  _atom_site_fract_y
  _atom_site_fract_z
  _atom_site_occupancy
  Ru  Ru1       1.0  0.34600  0.75000  0.06660  1.0000
  Ru  Ru2       1.0  0.84600  0.75000  0.43300  1.0000
  Ru  Ru3       1.0  0.15400  0.25000  0.56700  1.0000
  Ru  Ru4       1.0  0.65400  0.25000  0.93300  1.0000
  Si  Si1       1.0  0.69600  0.75000  0.10600  1.0000
  Si  Si2       1.0  0.19600  0.75000  0.39400  1.0000
  Si  Si3       1.0  0.80400  0.25000  0.60600  1.0000
  Si  Si4       1.0  0.30400  0.25000  0.89400  1.0000
  Y   Y1        1.0  0.98900  0.25000  0.18700  1.0000
  Y   Y2        1.0  0.48900  0.25000  0.31300  1.0000
  Y   Y3        1.0  0.51100  0.75000  0.68700  1.0000
  Y   Y4        1.0  0.01100  0.75000  0.81300  1.0000
