data_image0
_chemical_formula_structural       B2Ba2Na2O6
_chemical_formula_sum              "B2 Ba2 Na2 O6"
_cell_length_a       5.53202
_cell_length_b       5.53202
_cell_length_c       6.128
_cell_angle_alpha    97.9661
_cell_angle_beta     97.9661
_cell_angle_gamma    60.3216

_space_group_name_H-M_alt    "P 1"
_space_group_IT_number       1

loop_
  _space_group_symop_operation_xyz
  'x, y, z'

loop_
  _atom_site_type_symbol
  _atom_site_label
  _atom_site_symmetry_multiplicity
  _atom_site_fract_x
  _atom_site_fract_y
  _atom_site_fract_z
  _atom_site_occupancy
  B   B1        1.0  0.66800  0.66800  0.25300  1.0000
  B   B2        1.0  0.33200  0.33200  0.74700  1.0000
  Ba  Ba1       1.0  0.33400  0.33400  0.25700  1.0000
  Ba  Ba2       1.0  0.66600  0.66600  0.74300  1.0000
  Na  Na1       1.0  0.00000  0.00000  0.00000  1.0000
  Na  Na2       1.0  0.00000  0.00000  0.50000  1.0000
  O   O1        1.0  0.79800  0.79800  0.17900  1.0000
  O   O2        1.0  0.81700  0.38700  0.29100  1.0000
  O   O3        1.0  0.38700  0.81700  0.29100  1.0000
  O   O4        1.0  0.61300  0.18300  0.70900  1.0000
  O   O5        1.0  0.18300  0.61300  0.70900  1.0000
  O   O6        1.0  0.20200  0.20200  0.82100  1.0000
