data_image0
_chemical_formula_structural       Ba3F2In2O5
_chemical_formula_sum              "Ba3 F2 In2 O5"
_cell_length_a       4.19348
_cell_length_b       4.19348
_cell_length_c       11.7453
_cell_angle_alpha    100.283
_cell_angle_beta     100.283
_cell_angle_gamma    90

_space_group_name_H-M_alt    "P 1"
_space_group_IT_number       1

loop_
  _space_group_symop_operation_xyz
  'x, y, z'

loop_
  _atom_site_type_symbol
  _atom_site_label
  _atom_site_symmetry_multiplicity
  _atom_site_fract_x
  _atom_site_fract_y
  _atom_site_fract_z
  _atom_site_occupancy
  Ba  Ba1       1.0  0.50000  0.50000  0.00000  1.0000
  Ba  Ba2       1.0  0.67800  0.67800  0.35500  1.0000
  Ba  Ba3       1.0  0.32200  0.32200  0.64500  1.0000
  F   F1        1.0  0.20500  0.20500  0.41100  1.0000
  F   F2        1.0  0.79500  0.79500  0.58900  1.0000
  In  In1       1.0  0.09200  0.09200  0.18400  1.0000
  In  In2       1.0  0.90800  0.90800  0.81600  1.0000
  O   O1        1.0  0.00000  0.00000  0.00000  1.0000
  O   O2        1.0  0.60500  0.10500  0.20900  1.0000
  O   O3        1.0  0.10500  0.60500  0.20900  1.0000
  O   O4        1.0  0.89500  0.39500  0.79100  1.0000
  O   O5        1.0  0.39500  0.89500  0.79100  1.0000
