data_image0
_chemical_formula_structural       Cu4Se6Si2
_chemical_formula_sum              "Cu4 Se6 Si2"
_cell_length_a       6.72437
_cell_length_b       6.71123
_cell_length_c       6.80003
_cell_angle_alpha    60.431
_cell_angle_beta     98.9269
_cell_angle_gamma    108.328

_space_group_name_H-M_alt    "P 1"
_space_group_IT_number       1

loop_
  _space_group_symop_operation_xyz
  'x, y, z'

loop_
  _atom_site_type_symbol
  _atom_site_label
  _atom_site_symmetry_multiplicity
  _atom_site_fract_x
  _atom_site_fract_y
  _atom_site_fract_z
  _atom_site_occupancy
  Cu  Cu1       1.0  0.50000  0.41100  0.17700  1.0000
  Cu  Cu2       1.0  0.49700  0.74300  0.49000  1.0000
  Cu  Cu3       1.0  0.99700  0.23300  0.51000  1.0000
  Cu  Cu4       1.0  0.00048  0.58800  0.82300  1.0000
  Se  Se1       1.0  0.35500  0.03080  0.15900  1.0000
  Se  Se2       1.0  0.87800  0.52800  0.16800  1.0000
  Se  Se3       1.0  0.87200  0.86800  0.48200  1.0000
  Se  Se4       1.0  0.37200  0.35100  0.51800  1.0000
  Se  Se5       1.0  0.37800  0.69600  0.83200  1.0000
  Se  Se6       1.0  0.85500  0.18900  0.84100  1.0000
  Si  Si1       1.0  0.97600  0.88600  0.16800  1.0000
  Si  Si2       1.0  0.47600  0.05360  0.83200  1.0000
