data_image0
_chemical_formula_structural       Au2Ba2Gd2Se6
_chemical_formula_sum              "Au2 Ba2 Gd2 Se6"
_cell_length_a       4.25877
_cell_length_b       7.41657
_cell_length_c       10.7869
_cell_angle_alpha    90
_cell_angle_beta     90
_cell_angle_gamma    73.3149

_space_group_name_H-M_alt    "P 1"
_space_group_IT_number       1

loop_
  _space_group_symop_operation_xyz
  'x, y, z'

loop_
  _atom_site_type_symbol
  _atom_site_label
  _atom_site_symmetry_multiplicity
  _atom_site_fract_x
  _atom_site_fract_y
  _atom_site_fract_z
  _atom_site_occupancy
  Au  Au1       1.0  0.53500  0.93000  0.25000  1.0000
  Au  Au2       1.0  0.46500  0.06960  0.75000  1.0000
  Ba  Ba1       1.0  0.24900  0.50300  0.25000  1.0000
  Ba  Ba2       1.0  0.75100  0.49700  0.75000  1.0000
  Gd  Gd1       1.0  0.00000  0.00000  0.00000  1.0000
  Gd  Gd2       1.0  0.00000  0.00000  0.50000  1.0000
  Se  Se1       1.0  0.64000  0.72000  0.05080  1.0000
  Se  Se2       1.0  0.92000  0.15900  0.25000  1.0000
  Se  Se3       1.0  0.64000  0.72000  0.44900  1.0000
  Se  Se4       1.0  0.36000  0.28000  0.55100  1.0000
  Se  Se5       1.0  0.07960  0.84100  0.75000  1.0000
  Se  Se6       1.0  0.36000  0.28000  0.94900  1.0000
