data_image0
_chemical_formula_structural       Cl6N2Pr4
_chemical_formula_sum              "Cl6 N2 Pr4"
_cell_length_a       6.17887
_cell_length_b       6.88671
_cell_length_c       8.25722
_cell_angle_alpha    114.646
_cell_angle_beta     111.972
_cell_angle_gamma    90

_space_group_name_H-M_alt    "P 1"
_space_group_IT_number       1

loop_
  _space_group_symop_operation_xyz
  'x, y, z'

loop_
  _atom_site_type_symbol
  _atom_site_label
  _atom_site_symmetry_multiplicity
  _atom_site_fract_x
  _atom_site_fract_y
  _atom_site_fract_z
  _atom_site_occupancy
  Cl  Cl1       1.0  0.25000  0.50000  0.00000  1.0000
  Cl  Cl2       1.0  0.75000  0.50000  0.00000  1.0000
  Cl  Cl3       1.0  0.70100  0.02080  0.40200  1.0000
  Cl  Cl4       1.0  0.20100  0.38100  0.40200  1.0000
  Cl  Cl5       1.0  0.79900  0.61900  0.59800  1.0000
  Cl  Cl6       1.0  0.29900  0.97900  0.59800  1.0000
  N   N1        1.0  0.25000  0.00000  0.00000  1.0000
  N   N2        1.0  0.75000  0.00000  0.00000  1.0000
  Pr  Pr1       1.0  0.59300  0.27000  0.18700  1.0000
  Pr  Pr2       1.0  0.09350  0.91700  0.18700  1.0000
  Pr  Pr3       1.0  0.90700  0.08320  0.81300  1.0000
  Pr  Pr4       1.0  0.40700  0.73000  0.81300  1.0000
