data_image0
_chemical_formula_structural       Ge4Lu4Ni4
_chemical_formula_sum              "Ge4 Lu4 Ni4"
_cell_length_a       6.74528
_cell_length_b       4.17219
_cell_length_c       7.22969
_cell_angle_alpha    90
_cell_angle_beta     90
_cell_angle_gamma    90

_space_group_name_H-M_alt    "P 1"
_space_group_IT_number       1

loop_
  _space_group_symop_operation_xyz
  'x, y, z'

loop_
  _atom_site_type_symbol
  _atom_site_label
  _atom_site_symmetry_multiplicity
  _atom_site_fract_x
  _atom_site_fract_y
  _atom_site_fract_z
  _atom_site_occupancy
  Ge  Ge1       1.0  0.30000  0.75000  0.09000  1.0000
  Ge  Ge2       1.0  0.80000  0.75000  0.41000  1.0000
  Ge  Ge3       1.0  0.20000  0.25000  0.59000  1.0000
  Ge  Ge4       1.0  0.70000  0.25000  0.91000  1.0000
  Lu  Lu1       1.0  0.00435  0.25000  0.20600  1.0000
  Lu  Lu2       1.0  0.50400  0.25000  0.29400  1.0000
  Lu  Lu3       1.0  0.49600  0.75000  0.70600  1.0000
  Lu  Lu4       1.0  0.99600  0.75000  0.79400  1.0000
  Ni  Ni1       1.0  0.69200  0.75000  0.08120  1.0000
  Ni  Ni2       1.0  0.19200  0.75000  0.41900  1.0000
  Ni  Ni3       1.0  0.80800  0.25000  0.58100  1.0000
  Ni  Ni4       1.0  0.30800  0.25000  0.91900  1.0000
