data_image0
_chemical_formula_structural       Ge4Ir4Tb4
_chemical_formula_sum              "Ge4 Ir4 Tb4"
_cell_length_a       6.96621
_cell_length_b       4.39161
_cell_length_c       7.53027
_cell_angle_alpha    90
_cell_angle_beta     90
_cell_angle_gamma    90

_space_group_name_H-M_alt    "P 1"
_space_group_IT_number       1

loop_
  _space_group_symop_operation_xyz
  'x, y, z'

loop_
  _atom_site_type_symbol
  _atom_site_label
  _atom_site_symmetry_multiplicity
  _atom_site_fract_x
  _atom_site_fract_y
  _atom_site_fract_z
  _atom_site_occupancy
  Ge  Ge1       1.0  0.82000  0.25000  0.08280  1.0000
  Ge  Ge2       1.0  0.32000  0.25000  0.41700  1.0000
  Ge  Ge3       1.0  0.68000  0.75000  0.58300  1.0000
  Ge  Ge4       1.0  0.18000  0.75000  0.91700  1.0000
  Ir  Ir1       1.0  0.20700  0.25000  0.09210  1.0000
  Ir  Ir2       1.0  0.70700  0.25000  0.40800  1.0000
  Ir  Ir3       1.0  0.29300  0.75000  0.59200  1.0000
  Ir  Ir4       1.0  0.79300  0.75000  0.90800  1.0000
  Tb  Tb1       1.0  0.51300  0.75000  0.19900  1.0000
  Tb  Tb2       1.0  0.01300  0.75000  0.30100  1.0000
  Tb  Tb3       1.0  0.98700  0.25000  0.69900  1.0000
  Tb  Tb4       1.0  0.48700  0.25000  0.80100  1.0000
