data_image0
_chemical_formula_structural       Cu2K2Se6Zr2
_chemical_formula_sum              "Cu2 K2 Se6 Zr2"
_cell_length_a       3.89957
_cell_length_b       7.6339
_cell_length_c       10.2563
_cell_angle_alpha    90
_cell_angle_beta     90
_cell_angle_gamma    75.202

_space_group_name_H-M_alt    "P 1"
_space_group_IT_number       1

loop_
  _space_group_symop_operation_xyz
  'x, y, z'

loop_
  _atom_site_type_symbol
  _atom_site_label
  _atom_site_symmetry_multiplicity
  _atom_site_fract_x
  _atom_site_fract_y
  _atom_site_fract_z
  _atom_site_occupancy
  Cu  Cu1       1.0  0.46500  0.06980  0.25000  1.0000
  Cu  Cu2       1.0  0.53500  0.93000  0.75000  1.0000
  K   K1        1.0  0.74800  0.50400  0.25000  1.0000
  K   K2        1.0  0.25200  0.49600  0.75000  1.0000
  Se  Se1       1.0  0.37500  0.25000  0.05250  1.0000
  Se  Se2       1.0  0.06690  0.86600  0.25000  1.0000
  Se  Se3       1.0  0.37500  0.25000  0.44800  1.0000
  Se  Se4       1.0  0.62500  0.75000  0.55200  1.0000
  Se  Se5       1.0  0.93300  0.13400  0.75000  1.0000
  Se  Se6       1.0  0.62500  0.75000  0.94800  1.0000
  Zr  Zr1       1.0  0.00000  0.00000  0.00000  1.0000
  Zr  Zr2       1.0  0.00000  0.00000  0.50000  1.0000
