data_image0
_chemical_formula_structural       Ba2Cu2Te6Y2
_chemical_formula_sum              "Ba2 Cu2 Te6 Y2"
_cell_length_a       4.43669
_cell_length_b       7.7871
_cell_length_c       11.4202
_cell_angle_alpha    90
_cell_angle_beta     90
_cell_angle_gamma    73.4487

_space_group_name_H-M_alt    "P 1"
_space_group_IT_number       1

loop_
  _space_group_symop_operation_xyz
  'x, y, z'

loop_
  _atom_site_type_symbol
  _atom_site_label
  _atom_site_symmetry_multiplicity
  _atom_site_fract_x
  _atom_site_fract_y
  _atom_site_fract_z
  _atom_site_occupancy
  Ba  Ba1       1.0  0.24900  0.50100  0.25000  1.0000
  Ba  Ba2       1.0  0.75100  0.49900  0.75000  1.0000
  Cu  Cu1       1.0  0.53300  0.93400  0.25000  1.0000
  Cu  Cu2       1.0  0.46700  0.06610  0.75000  1.0000
  Te  Te1       1.0  0.63700  0.72600  0.06050  1.0000
  Te  Te2       1.0  0.93000  0.14000  0.25000  1.0000
  Te  Te3       1.0  0.63700  0.72600  0.44000  1.0000
  Te  Te4       1.0  0.36300  0.27400  0.56000  1.0000
  Te  Te5       1.0  0.07000  0.86000  0.75000  1.0000
  Te  Te6       1.0  0.36300  0.27400  0.94000  1.0000
  Y   Y1        1.0  0.00000  0.00000  0.00000  1.0000
  Y   Y2        1.0  0.00000  0.00000  0.50000  1.0000
