data_image0
_chemical_formula_structural       LaLi2O7Ta2
_chemical_formula_sum              "La1 Li2 O7 Ta2"
_cell_length_a       3.96213
_cell_length_b       3.96213
_cell_length_c       9.60428
_cell_angle_alpha    101.904
_cell_angle_beta     101.904
_cell_angle_gamma    90

_space_group_name_H-M_alt    "P 1"
_space_group_IT_number       1

loop_
  _space_group_symop_operation_xyz
  'x, y, z'

loop_
  _atom_site_type_symbol
  _atom_site_label
  _atom_site_symmetry_multiplicity
  _atom_site_fract_x
  _atom_site_fract_y
  _atom_site_fract_z
  _atom_site_occupancy
  La  La1       1.0  0.00000  0.00000  0.00000  1.0000
  Li  Li1       1.0  0.75000  0.25000  0.50000  1.0000
  Li  Li2       1.0  0.25000  0.75000  0.50000  1.0000
  O   O1        1.0  0.50000  0.50000  0.00000  1.0000
  O   O2        1.0  0.59800  0.09780  0.19600  1.0000
  O   O3        1.0  0.09780  0.59800  0.19600  1.0000
  O   O4        1.0  0.71700  0.71700  0.43500  1.0000
  O   O5        1.0  0.28300  0.28300  0.56500  1.0000
  O   O6        1.0  0.90200  0.40200  0.80400  1.0000
  O   O7        1.0  0.40200  0.90200  0.80400  1.0000
  Ta  Ta1       1.0  0.61400  0.61400  0.22800  1.0000
  Ta  Ta2       1.0  0.38600  0.38600  0.77200  1.0000
