data_image0
_chemical_formula_structural       Cu2Te6Ti2Tl2
_chemical_formula_sum              "Cu2 Te6 Ti2 Tl2"
_cell_length_a       8.60353
_cell_length_b       3.97437
_cell_length_c       10.4353
_cell_angle_alpha    90
_cell_angle_beta     112.423
_cell_angle_gamma    90

_space_group_name_H-M_alt    "P 1"
_space_group_IT_number       1

loop_
  _space_group_symop_operation_xyz
  'x, y, z'

loop_
  _atom_site_type_symbol
  _atom_site_label
  _atom_site_symmetry_multiplicity
  _atom_site_fract_x
  _atom_site_fract_y
  _atom_site_fract_z
  _atom_site_occupancy
  Cu  Cu1       1.0  0.92200  0.25000  0.39600  1.0000
  Cu  Cu2       1.0  0.07780  0.75000  0.60400  1.0000
  Te  Te1       1.0  0.45700  0.25000  0.12100  1.0000
  Te  Te2       1.0  0.92400  0.25000  0.14700  1.0000
  Te  Te3       1.0  0.74800  0.75000  0.44200  1.0000
  Te  Te4       1.0  0.25200  0.25000  0.55800  1.0000
  Te  Te5       1.0  0.07620  0.75000  0.85300  1.0000
  Te  Te6       1.0  0.54300  0.75000  0.87900  1.0000
  Ti  Ti1       1.0  0.71200  0.75000  0.17500  1.0000
  Ti  Ti2       1.0  0.28800  0.25000  0.82500  1.0000
  Tl  Tl1       1.0  0.28000  0.75000  0.28900  1.0000
  Tl  Tl2       1.0  0.72000  0.25000  0.71100  1.0000
