data_image0
_chemical_formula_structural       Ge8Ni4
_chemical_formula_sum              "Ge8 Ni4"
_cell_length_a       5.7949
_cell_length_b       5.80246
_cell_length_c       6.18535
_cell_angle_alpha    62.0274
_cell_angle_beta     90
_cell_angle_gamma    90

_space_group_name_H-M_alt    "P 1"
_space_group_IT_number       1

loop_
  _space_group_symop_operation_xyz
  'x, y, z'

loop_
  _atom_site_type_symbol
  _atom_site_label
  _atom_site_symmetry_multiplicity
  _atom_site_fract_x
  _atom_site_fract_y
  _atom_site_fract_z
  _atom_site_occupancy
  Ge  Ge1       1.0  0.65700  0.15400  0.00000  1.0000
  Ge  Ge2       1.0  0.15700  0.34600  0.00000  1.0000
  Ge  Ge3       1.0  0.84300  0.65400  0.00000  1.0000
  Ge  Ge4       1.0  0.34300  0.84600  0.00000  1.0000
  Ge  Ge5       1.0  0.25000  0.00262  0.50000  1.0000
  Ge  Ge6       1.0  0.75000  0.49700  0.50000  1.0000
  Ge  Ge7       1.0  0.25000  0.50300  0.50000  1.0000
  Ge  Ge8       1.0  0.75000  0.99700  0.50000  1.0000
  Ni  Ni1       1.0  0.50000  0.38400  0.23100  1.0000
  Ni  Ni2       1.0  0.00000  0.88400  0.23100  1.0000
  Ni  Ni3       1.0  0.00000  0.11600  0.76900  1.0000
  Ni  Ni4       1.0  0.50000  0.61600  0.76900  1.0000
