data_image0
_chemical_formula_structural       CsNbO8P2
_chemical_formula_sum              "Cs1 Nb1 O8 P2"
_cell_length_a       5.06154
_cell_length_b       5.06154
_cell_length_c       8.59781
_cell_angle_alpha    92.882
_cell_angle_beta     92.882
_cell_angle_gamma    62.5097

_space_group_name_H-M_alt    "P 1"
_space_group_IT_number       1

loop_
  _space_group_symop_operation_xyz
  'x, y, z'

loop_
  _atom_site_type_symbol
  _atom_site_label
  _atom_site_symmetry_multiplicity
  _atom_site_fract_x
  _atom_site_fract_y
  _atom_site_fract_z
  _atom_site_occupancy
  Cs  Cs1       1.0  0.00000  0.00000  0.00000  1.0000
  Nb  Nb1       1.0  0.00000  1.00000  0.50000  1.0000
  O   O1        1.0  0.68300  0.68300  0.13300  1.0000
  O   O2        1.0  0.77900  0.30600  0.34100  1.0000
  O   O3        1.0  0.30600  0.77900  0.34100  1.0000
  O   O4        1.0  0.78400  0.78400  0.42000  1.0000
  O   O5        1.0  0.21600  0.21600  0.58000  1.0000
  O   O6        1.0  0.69400  0.22100  0.65900  1.0000
  O   O7        1.0  0.22100  0.69400  0.65900  1.0000
  O   O8        1.0  0.31700  0.31700  0.86700  1.0000
  P   P1        1.0  0.64200  0.64200  0.29800  1.0000
  P   P2        1.0  0.35800  0.35800  0.70200  1.0000
