data_image0
_chemical_formula_structural       Cu2K2S6Zr2
_chemical_formula_sum              "Cu2 K2 S6 Zr2"
_cell_length_a       3.74803
_cell_length_b       7.28014
_cell_length_c       9.82018
_cell_angle_alpha    90
_cell_angle_beta     90
_cell_angle_gamma    75.0833

_space_group_name_H-M_alt    "P 1"
_space_group_IT_number       1

loop_
  _space_group_symop_operation_xyz
  'x, y, z'

loop_
  _atom_site_type_symbol
  _atom_site_label
  _atom_site_symmetry_multiplicity
  _atom_site_fract_x
  _atom_site_fract_y
  _atom_site_fract_z
  _atom_site_occupancy
  Cu  Cu1       1.0  0.46400  0.07230  0.25000  1.0000
  Cu  Cu2       1.0  0.53600  0.92800  0.75000  1.0000
  K   K1        1.0  0.74400  0.51100  0.25000  1.0000
  K   K2        1.0  0.25600  0.48900  0.75000  1.0000
  S   S1        1.0  0.37700  0.24600  0.05300  1.0000
  S   S2        1.0  0.06330  0.87300  0.25000  1.0000
  S   S3        1.0  0.37700  0.24600  0.44700  1.0000
  S   S4        1.0  0.62300  0.75400  0.55300  1.0000
  S   S5        1.0  0.93700  0.12700  0.75000  1.0000
  S   S6        1.0  0.62300  0.75400  0.94700  1.0000
  Zr  Zr1       1.0  0.00000  0.00000  0.00000  1.0000
  Zr  Zr2       1.0  0.00000  0.00000  0.50000  1.0000
