data_image0
_chemical_formula_structural       Au2Cu2Se8
_chemical_formula_sum              "Au2 Cu2 Se8"
_cell_length_a       4.3952
_cell_length_b       7.52658
_cell_length_c       8.20601
_cell_angle_alpha    90
_cell_angle_beta     93.3294
_cell_angle_gamma    90

_space_group_name_H-M_alt    "P 1"
_space_group_IT_number       1

loop_
  _space_group_symop_operation_xyz
  'x, y, z'

loop_
  _atom_site_type_symbol
  _atom_site_label
  _atom_site_symmetry_multiplicity
  _atom_site_fract_x
  _atom_site_fract_y
  _atom_site_fract_z
  _atom_site_occupancy
  Au  Au1       1.0  0.50000  0.00000  0.00000  1.0000
  Au  Au2       1.0  0.50000  0.50000  0.00000  1.0000
  Cu  Cu1       1.0  0.97200  0.25000  0.34200  1.0000
  Cu  Cu2       1.0  0.02820  0.75000  0.65800  1.0000
  Se  Se1       1.0  0.14300  0.25000  0.06590  1.0000
  Se  Se2       1.0  0.59100  0.00266  0.30600  1.0000
  Se  Se3       1.0  0.59100  0.49700  0.30600  1.0000
  Se  Se4       1.0  0.92900  0.75000  0.36600  1.0000
  Se  Se5       1.0  0.07080  0.25000  0.63400  1.0000
  Se  Se6       1.0  0.40900  0.99700  0.69400  1.0000
  Se  Se7       1.0  0.40900  0.50300  0.69400  1.0000
  Se  Se8       1.0  0.85700  0.75000  0.93400  1.0000
