data_image0
_chemical_formula_structural       Cu4S6Sn2
_chemical_formula_sum              "Cu4 S6 Sn2"
_cell_length_a       6.69241
_cell_length_b       6.68674
_cell_length_c       6.70548
_cell_angle_alpha    99.6464
_cell_angle_beta     109.563
_cell_angle_gamma    59.972

_space_group_name_H-M_alt    "P 1"
_space_group_IT_number       1

loop_
  _space_group_symop_operation_xyz
  'x, y, z'

loop_
  _atom_site_type_symbol
  _atom_site_label
  _atom_site_symmetry_multiplicity
  _atom_site_fract_x
  _atom_site_fract_y
  _atom_site_fract_z
  _atom_site_occupancy
  Cu  Cu1       1.0  0.26100  0.49800  0.00890  1.0000
  Cu  Cu2       1.0  0.60700  0.83400  0.01580  1.0000
  Cu  Cu3       1.0  0.76000  0.50200  0.50900  1.0000
  Cu  Cu4       1.0  0.44100  0.16600  0.51600  1.0000
  S   S1        1.0  0.40800  0.47600  0.37400  1.0000
  S   S2        1.0  0.69700  0.83200  0.37900  1.0000
  S   S3        1.0  0.06390  0.17900  0.39700  1.0000
  S   S4        1.0  0.88400  0.52400  0.87400  1.0000
  S   S5        1.0  0.52900  0.16800  0.87900  1.0000
  S   S6        1.0  0.24300  0.82100  0.89700  1.0000
  Sn  Sn1       1.0  0.90500  0.18900  0.99600  1.0000
  Sn  Sn2       1.0  0.09420  0.81100  0.49600  1.0000
