data_image0
_chemical_formula_structural       Ni4Sb4Se4
_chemical_formula_sum              "Ni4 Sb4 Se4"
_cell_length_a       6.11475
_cell_length_b       6.11475
_cell_length_c       6.11475
_cell_angle_alpha    90
_cell_angle_beta     90
_cell_angle_gamma    90

_space_group_name_H-M_alt    "P 1"
_space_group_IT_number       1

loop_
  _space_group_symop_operation_xyz
  'x, y, z'

loop_
  _atom_site_type_symbol
  _atom_site_label
  _atom_site_symmetry_multiplicity
  _atom_site_fract_x
  _atom_site_fract_y
  _atom_site_fract_z
  _atom_site_occupancy
  Ni  Ni1       1.0  0.49000  0.51000  0.00992  1.0000
  Ni  Ni2       1.0  0.51000  0.00992  0.49000  1.0000
  Ni  Ni3       1.0  0.00992  0.49000  0.51000  1.0000
  Ni  Ni4       1.0  0.99000  0.99000  0.99000  1.0000
  Sb  Sb1       1.0  0.86800  0.36800  0.13200  1.0000
  Sb  Sb2       1.0  0.13200  0.86800  0.36800  1.0000
  Sb  Sb3       1.0  0.63200  0.63200  0.63200  1.0000
  Sb  Sb4       1.0  0.36800  0.13200  0.86800  1.0000
  Se  Se1       1.0  0.62500  0.87500  0.12500  1.0000
  Se  Se2       1.0  0.37500  0.37500  0.37500  1.0000
  Se  Se3       1.0  0.87500  0.12500  0.62500  1.0000
  Se  Se4       1.0  0.12500  0.62500  0.87500  1.0000
