data_image0
_chemical_formula_structural       Fe4Rb2Se6
_chemical_formula_sum              "Fe4 Rb2 Se6"
_cell_length_a       5.48796
_cell_length_b       7.52477
_cell_length_c       7.52477
_cell_angle_alpha    79.3487
_cell_angle_beta     90
_cell_angle_gamma    90

_space_group_name_H-M_alt    "P 1"
_space_group_IT_number       1

loop_
  _space_group_symop_operation_xyz
  'x, y, z'

loop_
  _atom_site_type_symbol
  _atom_site_label
  _atom_site_symmetry_multiplicity
  _atom_site_fract_x
  _atom_site_fract_y
  _atom_site_fract_z
  _atom_site_occupancy
  Fe  Fe1       1.0  0.00000  0.86800  0.13200  1.0000
  Fe  Fe2       1.0  0.50000  0.86800  0.13200  1.0000
  Fe  Fe3       1.0  0.00000  0.13200  0.86800  1.0000
  Fe  Fe4       1.0  0.50000  0.13200  0.86800  1.0000
  Rb  Rb1       1.0  0.75000  0.33500  0.33500  1.0000
  Rb  Rb2       1.0  0.25000  0.66500  0.66500  1.0000
  Se  Se1       1.0  0.25000  0.13300  0.13300  1.0000
  Se  Se2       1.0  0.25000  0.61500  0.16500  1.0000
  Se  Se3       1.0  0.75000  0.83500  0.38500  1.0000
  Se  Se4       1.0  0.25000  0.16500  0.61500  1.0000
  Se  Se5       1.0  0.75000  0.38500  0.83500  1.0000
  Se  Se6       1.0  0.75000  0.86700  0.86700  1.0000
