data_image0
_chemical_formula_structural       Pd4Sb4Zr4
_chemical_formula_sum              "Pd4 Sb4 Zr4"
_cell_length_a       6.85359
_cell_length_b       4.34319
_cell_length_c       8.00271
_cell_angle_alpha    90
_cell_angle_beta     90
_cell_angle_gamma    90

_space_group_name_H-M_alt    "P 1"
_space_group_IT_number       1

loop_
  _space_group_symop_operation_xyz
  'x, y, z'

loop_
  _atom_site_type_symbol
  _atom_site_label
  _atom_site_symmetry_multiplicity
  _atom_site_fract_x
  _atom_site_fract_y
  _atom_site_fract_z
  _atom_site_occupancy
  Pd  Pd1       1.0  0.66200  0.25000  0.07140  1.0000
  Pd  Pd2       1.0  0.16200  0.25000  0.42900  1.0000
  Pd  Pd3       1.0  0.83800  0.75000  0.57100  1.0000
  Pd  Pd4       1.0  0.33800  0.75000  0.92900  1.0000
  Sb  Sb1       1.0  0.26500  0.25000  0.10800  1.0000
  Sb  Sb2       1.0  0.76500  0.25000  0.39200  1.0000
  Sb  Sb3       1.0  0.23500  0.75000  0.60800  1.0000
  Sb  Sb4       1.0  0.73500  0.75000  0.89200  1.0000
  Zr  Zr1       1.0  0.98100  0.75000  0.19400  1.0000
  Zr  Zr2       1.0  0.48100  0.75000  0.30600  1.0000
  Zr  Zr3       1.0  0.51900  0.25000  0.69400  1.0000
  Zr  Zr4       1.0  0.01870  0.25000  0.80600  1.0000
