data_image0
_chemical_formula_structural       Dy4Pt4Si4
_chemical_formula_sum              "Dy4 Pt4 Si4"
_cell_length_a       7.01331
_cell_length_b       4.29201
_cell_length_c       7.47812
_cell_angle_alpha    90
_cell_angle_beta     90
_cell_angle_gamma    90

_space_group_name_H-M_alt    "P 1"
_space_group_IT_number       1

loop_
  _space_group_symop_operation_xyz
  'x, y, z'

loop_
  _atom_site_type_symbol
  _atom_site_label
  _atom_site_symmetry_multiplicity
  _atom_site_fract_x
  _atom_site_fract_y
  _atom_site_fract_z
  _atom_site_occupancy
  Dy  Dy1       1.0  0.50300  0.75000  0.20000  1.0000
  Dy  Dy2       1.0  0.00287  0.75000  0.30000  1.0000
  Dy  Dy3       1.0  0.99700  0.25000  0.70000  1.0000
  Dy  Dy4       1.0  0.49700  0.25000  0.80000  1.0000
  Pt  Pt1       1.0  0.19900  0.25000  0.08520  1.0000
  Pt  Pt2       1.0  0.69900  0.25000  0.41500  1.0000
  Pt  Pt3       1.0  0.30100  0.75000  0.58500  1.0000
  Pt  Pt4       1.0  0.80100  0.75000  0.91500  1.0000
  Si  Si1       1.0  0.81300  0.25000  0.08760  1.0000
  Si  Si2       1.0  0.31300  0.25000  0.41200  1.0000
  Si  Si3       1.0  0.68700  0.75000  0.58800  1.0000
  Si  Si4       1.0  0.18700  0.75000  0.91200  1.0000
