data_image0
_chemical_formula_structural       Li64N64Si32
_chemical_formula_sum              "Li64 N64 Si32"
_cell_length_a       9.88986
_cell_length_b       9.9095
_cell_length_c       14.9505
_cell_angle_alpha    90
_cell_angle_beta     90
_cell_angle_gamma    90

_space_group_name_H-M_alt    "P 1"
_space_group_IT_number       1

loop_
  _space_group_symop_operation_xyz
  'x, y, z'

loop_
  _atom_site_type_symbol
  _atom_site_label
  _atom_site_symmetry_multiplicity
  _atom_site_fract_x
  _atom_site_fract_y
  _atom_site_fract_z
  _atom_site_occupancy
  Li  Li1       1.0  0.60400  0.43800  0.02040  1.0000
  Li  Li2       1.0  0.89600  0.93800  0.02040  1.0000
  Li  Li3       1.0  0.36400  0.07900  0.03670  1.0000
  Li  Li4       1.0  0.13600  0.57900  0.03670  1.0000
  Li  Li5       1.0  0.09860  0.15400  0.12300  1.0000
  Li  Li6       1.0  0.40100  0.65400  0.12300  1.0000
  Li  Li7       1.0  0.86200  0.20300  0.12300  1.0000
  Li  Li8       1.0  0.63800  0.70300  0.12300  1.0000
  Li  Li9       1.0  0.04330  0.38000  0.12400  1.0000
  Li  Li10      1.0  0.45700  0.88000  0.12400  1.0000
  Li  Li11      1.0  0.79200  0.47200  0.12500  1.0000
  Li  Li12      1.0  0.70800  0.97200  0.12500  1.0000
  Li  Li13      1.0  0.30900  0.39500  0.21700  1.0000
  Li  Li14      1.0  0.19100  0.89500  0.21700  1.0000
  Li  Li15      1.0  0.67100  0.16200  0.22900  1.0000
  Li  Li16      1.0  0.82900  0.66200  0.22900  1.0000
  Li  Li17      1.0  0.17100  0.16200  0.27100  1.0000
  Li  Li18      1.0  0.32900  0.66200  0.27100  1.0000
  Li  Li19      1.0  0.80900  0.39500  0.28300  1.0000
  Li  Li20      1.0  0.69100  0.89500  0.28300  1.0000
  Li  Li21      1.0  0.29200  0.47200  0.37500  1.0000
  Li  Li22      1.0  0.20800  0.97200  0.37500  1.0000
  Li  Li23      1.0  0.54300  0.38000  0.37600  1.0000
  Li  Li24      1.0  0.95700  0.88000  0.37600  1.0000
  Li  Li25      1.0  0.36200  0.20300  0.37700  1.0000
  Li  Li26      1.0  0.13800  0.70300  0.37700  1.0000
  Li  Li27      1.0  0.59900  0.15400  0.37700  1.0000
  Li  Li28      1.0  0.90100  0.65400  0.37700  1.0000
  Li  Li29      1.0  0.86400  0.07900  0.46300  1.0000
  Li  Li30      1.0  0.63600  0.57900  0.46300  1.0000
  Li  Li31      1.0  0.10400  0.43800  0.48000  1.0000
  Li  Li32      1.0  0.39600  0.93800  0.48000  1.0000
  Li  Li33      1.0  0.60400  0.06170  0.52000  1.0000
  Li  Li34      1.0  0.89600  0.56200  0.52000  1.0000
  Li  Li35      1.0  0.36400  0.42100  0.53700  1.0000
  Li  Li36      1.0  0.13600  0.92100  0.53700  1.0000
  Li  Li37      1.0  0.09860  0.34600  0.62300  1.0000
  Li  Li38      1.0  0.40100  0.84600  0.62300  1.0000
  Li  Li39      1.0  0.86200  0.29700  0.62300  1.0000
  Li  Li40      1.0  0.63800  0.79700  0.62300  1.0000
  Li  Li41      1.0  0.04330  0.12000  0.62400  1.0000
  Li  Li42      1.0  0.45700  0.62000  0.62400  1.0000
  Li  Li43      1.0  0.79200  0.02810  0.62500  1.0000
  Li  Li44      1.0  0.70800  0.52800  0.62500  1.0000
  Li  Li45      1.0  0.30900  0.10500  0.71700  1.0000
  Li  Li46      1.0  0.19100  0.60500  0.71700  1.0000
  Li  Li47      1.0  0.67100  0.33800  0.72900  1.0000
  Li  Li48      1.0  0.82900  0.83800  0.72900  1.0000
  Li  Li49      1.0  0.17100  0.33800  0.77100  1.0000
  Li  Li50      1.0  0.32900  0.83800  0.77100  1.0000
  Li  Li51      1.0  0.80900  0.10500  0.78300  1.0000
  Li  Li52      1.0  0.69100  0.60500  0.78300  1.0000
  Li  Li53      1.0  0.29200  0.02810  0.87500  1.0000
  Li  Li54      1.0  0.20800  0.52800  0.87500  1.0000
  Li  Li55      1.0  0.54300  0.12000  0.87600  1.0000
  Li  Li56      1.0  0.95700  0.62000  0.87600  1.0000
  Li  Li57      1.0  0.36200  0.29700  0.87700  1.0000
  Li  Li58      1.0  0.13800  0.79700  0.87700  1.0000
  Li  Li59      1.0  0.59900  0.34600  0.87700  1.0000
  Li  Li60      1.0  0.90100  0.84600  0.87700  1.0000
  Li  Li61      1.0  0.86400  0.42100  0.96300  1.0000
  Li  Li62      1.0  0.63600  0.92100  0.96300  1.0000
  Li  Li63      1.0  0.10400  0.06170  0.98000  1.0000
  Li  Li64      1.0  0.39600  0.56200  0.98000  1.0000
  N   N1        1.0  0.73700  0.08680  0.00786  1.0000
  N   N2        1.0  0.76300  0.58700  0.00786  1.0000
  N   N3        1.0  0.98400  0.25000  0.01320  1.0000
  N   N4        1.0  0.51600  0.75000  0.01320  1.0000
  N   N5        1.0  0.44400  0.46000  0.11500  1.0000
  N   N6        1.0  0.05640  0.96000  0.11500  1.0000
  N   N7        1.0  0.68500  0.30600  0.12200  1.0000
  N   N8        1.0  0.81500  0.80600  0.12200  1.0000
  N   N9        1.0  0.53000  0.06580  0.13000  1.0000
  N   N10       1.0  0.97000  0.56600  0.13000  1.0000
  N   N11       1.0  0.28800  0.22000  0.13200  1.0000
  N   N12       1.0  0.21200  0.72000  0.13200  1.0000
  N   N13       1.0  0.83600  0.02560  0.23200  1.0000
  N   N14       1.0  0.66400  0.52600  0.23200  1.0000
  N   N15       1.0  0.99300  0.27500  0.23700  1.0000
  N   N16       1.0  0.50700  0.77500  0.23700  1.0000
  N   N17       1.0  0.49300  0.27500  0.26300  1.0000
  N   N18       1.0  0.00726  0.77500  0.26300  1.0000
  N   N19       1.0  0.33600  0.02560  0.26800  1.0000
  N   N20       1.0  0.16400  0.52600  0.26800  1.0000
  N   N21       1.0  0.78800  0.22000  0.36800  1.0000
  N   N22       1.0  0.71200  0.72000  0.36800  1.0000
  N   N23       1.0  0.03010  0.06580  0.37000  1.0000
  N   N24       1.0  0.47000  0.56600  0.37000  1.0000
  N   N25       1.0  0.18500  0.30600  0.37800  1.0000
  N   N26       1.0  0.31500  0.80600  0.37800  1.0000
  N   N27       1.0  0.94400  0.46000  0.38500  1.0000
  N   N28       1.0  0.55600  0.96000  0.38500  1.0000
  N   N29       1.0  0.48400  0.25000  0.48700  1.0000
  N   N30       1.0  0.01630  0.75000  0.48700  1.0000
  N   N31       1.0  0.23700  0.08680  0.49200  1.0000
  N   N32       1.0  0.26300  0.58700  0.49200  1.0000
  N   N33       1.0  0.73700  0.41300  0.50800  1.0000
  N   N34       1.0  0.76300  0.91300  0.50800  1.0000
  N   N35       1.0  0.98400  0.25000  0.51300  1.0000
  N   N36       1.0  0.51600  0.75000  0.51300  1.0000
  N   N37       1.0  0.44400  0.03990  0.61500  1.0000
  N   N38       1.0  0.05640  0.54000  0.61500  1.0000
  N   N39       1.0  0.68500  0.19400  0.62200  1.0000
  N   N40       1.0  0.81500  0.69400  0.62200  1.0000
  N   N41       1.0  0.53000  0.43400  0.63000  1.0000
  N   N42       1.0  0.97000  0.93400  0.63000  1.0000
  N   N43       1.0  0.28800  0.28000  0.63200  1.0000
  N   N44       1.0  0.21200  0.78000  0.63200  1.0000
  N   N45       1.0  0.83600  0.47400  0.73200  1.0000
  N   N46       1.0  0.66400  0.97400  0.73200  1.0000
  N   N47       1.0  0.99300  0.22500  0.73700  1.0000
  N   N48       1.0  0.50700  0.72500  0.73700  1.0000
  N   N49       1.0  0.49300  0.22500  0.76300  1.0000
  N   N50       1.0  0.00726  0.72500  0.76300  1.0000
  N   N51       1.0  0.33600  0.47400  0.76800  1.0000
  N   N52       1.0  0.16400  0.97400  0.76800  1.0000
  N   N53       1.0  0.78800  0.28000  0.86800  1.0000
  N   N54       1.0  0.71200  0.78000  0.86800  1.0000
  N   N55       1.0  0.03010  0.43400  0.87000  1.0000
  N   N56       1.0  0.47000  0.93400  0.87000  1.0000
  N   N57       1.0  0.18500  0.19400  0.87800  1.0000
  N   N58       1.0  0.31500  0.69400  0.87800  1.0000
  N   N59       1.0  0.94400  0.03990  0.88500  1.0000
  N   N60       1.0  0.55600  0.54000  0.88500  1.0000
  N   N61       1.0  0.48400  0.25000  0.98700  1.0000
  N   N62       1.0  0.01630  0.75000  0.98700  1.0000
  N   N63       1.0  0.23700  0.41300  0.99200  1.0000
  N   N64       1.0  0.26300  0.91300  0.99200  1.0000
  Si  Si1       1.0  0.35800  0.33400  0.05640  1.0000
  Si  Si2       1.0  0.14200  0.83400  0.05640  1.0000
  Si  Si3       1.0  0.60900  0.18000  0.05750  1.0000
  Si  Si4       1.0  0.89100  0.68000  0.05750  1.0000
  Si  Si5       1.0  0.56700  0.39500  0.18700  1.0000
  Si  Si6       1.0  0.93300  0.89500  0.18700  1.0000
  Si  Si7       1.0  0.41200  0.14400  0.20000  1.0000
  Si  Si8       1.0  0.08760  0.64400  0.20000  1.0000
  Si  Si9       1.0  0.91200  0.14400  0.30000  1.0000
  Si  Si10      1.0  0.58800  0.64400  0.30000  1.0000
  Si  Si11      1.0  0.06700  0.39500  0.31300  1.0000
  Si  Si12      1.0  0.43300  0.89500  0.31300  1.0000
  Si  Si13      1.0  0.10900  0.18000  0.44300  1.0000
  Si  Si14      1.0  0.39100  0.68000  0.44300  1.0000
  Si  Si15      1.0  0.85800  0.33400  0.44400  1.0000
  Si  Si16      1.0  0.64200  0.83400  0.44400  1.0000
  Si  Si17      1.0  0.35800  0.16600  0.55600  1.0000
  Si  Si18      1.0  0.14200  0.66600  0.55600  1.0000
  Si  Si19      1.0  0.60900  0.32000  0.55700  1.0000
  Si  Si20      1.0  0.89100  0.82000  0.55700  1.0000
  Si  Si21      1.0  0.56700  0.10500  0.68700  1.0000
  Si  Si22      1.0  0.93300  0.60500  0.68700  1.0000
  Si  Si23      1.0  0.41200  0.35600  0.70000  1.0000
  Si  Si24      1.0  0.08760  0.85600  0.70000  1.0000
  Si  Si25      1.0  0.91200  0.35600  0.80000  1.0000
  Si  Si26      1.0  0.58800  0.85600  0.80000  1.0000
  Si  Si27      1.0  0.06700  0.10500  0.81300  1.0000
  Si  Si28      1.0  0.43300  0.60500  0.81300  1.0000
  Si  Si29      1.0  0.10900  0.32000  0.94300  1.0000
  Si  Si30      1.0  0.39100  0.82000  0.94300  1.0000
  Si  Si31      1.0  0.85800  0.16600  0.94400  1.0000
  Si  Si32      1.0  0.64200  0.66600  0.94400  1.0000
