data_image0
_chemical_formula_structural       Pd4Sb4Se4
_chemical_formula_sum              "Pd4 Sb4 Se4"
_cell_length_a       6.39652
_cell_length_b       6.39652
_cell_length_c       6.39652
_cell_angle_alpha    90
_cell_angle_beta     90
_cell_angle_gamma    90

_space_group_name_H-M_alt    "P 1"
_space_group_IT_number       1

loop_
  _space_group_symop_operation_xyz
  'x, y, z'

loop_
  _atom_site_type_symbol
  _atom_site_label
  _atom_site_symmetry_multiplicity
  _atom_site_fract_x
  _atom_site_fract_y
  _atom_site_fract_z
  _atom_site_occupancy
  Pd  Pd1       1.0  0.49600  0.50400  0.00397  1.0000
  Pd  Pd2       1.0  0.50400  0.00397  0.49600  1.0000
  Pd  Pd3       1.0  0.00397  0.49600  0.50400  1.0000
  Pd  Pd4       1.0  0.99600  0.99600  0.99600  1.0000
  Sb  Sb1       1.0  0.87600  0.37600  0.12400  1.0000
  Sb  Sb2       1.0  0.12400  0.87600  0.37600  1.0000
  Sb  Sb3       1.0  0.62400  0.62400  0.62400  1.0000
  Sb  Sb4       1.0  0.37600  0.12400  0.87600  1.0000
  Se  Se1       1.0  0.61800  0.88200  0.11800  1.0000
  Se  Se2       1.0  0.38200  0.38200  0.38200  1.0000
  Se  Se3       1.0  0.88200  0.11800  0.61800  1.0000
  Se  Se4       1.0  0.11800  0.61800  0.88200  1.0000
