data_image0
_chemical_formula_structural       Na4S6U2
_chemical_formula_sum              "Na4 S6 U2"
_cell_length_a       6.96284
_cell_length_b       6.96284
_cell_length_c       6.97009
_cell_angle_alpha    99.6456
_cell_angle_beta     99.6456
_cell_angle_gamma    119.98

_space_group_name_H-M_alt    "P 1"
_space_group_IT_number       1

loop_
  _space_group_symop_operation_xyz
  'x, y, z'

loop_
  _atom_site_type_symbol
  _atom_site_label
  _atom_site_symmetry_multiplicity
  _atom_site_fract_x
  _atom_site_fract_y
  _atom_site_fract_z
  _atom_site_occupancy
  Na  Na1       1.0  0.00000  0.00000  0.00000  1.0000
  Na  Na2       1.0  0.83900  0.16100  0.50000  1.0000
  Na  Na3       1.0  0.50000  0.50000  0.50000  1.0000
  Na  Na4       1.0  0.16100  0.83900  0.50000  1.0000
  S   S1        1.0  0.43100  0.07630  0.22700  1.0000
  S   S2        1.0  0.07630  0.43100  0.22700  1.0000
  S   S3        1.0  0.72200  0.72200  0.23000  1.0000
  S   S4        1.0  0.27800  0.27800  0.77000  1.0000
  S   S5        1.0  0.92400  0.56900  0.77300  1.0000
  S   S6        1.0  0.56900  0.92400  0.77300  1.0000
  U   U1        1.0  0.66700  0.33300  0.00000  1.0000
  U   U2        1.0  0.33300  0.66700  0.00000  1.0000
