data_image0
_chemical_formula_structural       Cl8Er2Na2
_chemical_formula_sum              "Cl8 Er2 Na2"
_cell_length_a       6.33455
_cell_length_b       7.61726
_cell_length_c       6.75363
_cell_angle_alpha    90
_cell_angle_beta     92.2264
_cell_angle_gamma    90

_space_group_name_H-M_alt    "P 1"
_space_group_IT_number       1

loop_
  _space_group_symop_operation_xyz
  'x, y, z'

loop_
  _atom_site_type_symbol
  _atom_site_label
  _atom_site_symmetry_multiplicity
  _atom_site_fract_x
  _atom_site_fract_y
  _atom_site_fract_z
  _atom_site_occupancy
  Cl  Cl1       1.0  0.77400  0.10400  0.06650  1.0000
  Cl  Cl2       1.0  0.74500  0.62200  0.09240  1.0000
  Cl  Cl3       1.0  0.25500  0.62200  0.40800  1.0000
  Cl  Cl4       1.0  0.22600  0.10400  0.43400  1.0000
  Cl  Cl5       1.0  0.77400  0.89600  0.56600  1.0000
  Cl  Cl6       1.0  0.74500  0.37800  0.59200  1.0000
  Cl  Cl7       1.0  0.25500  0.37800  0.90800  1.0000
  Cl  Cl8       1.0  0.22600  0.89600  0.93400  1.0000
  Er  Er1       1.0  0.00000  0.84300  0.25000  1.0000
  Er  Er2       1.0  0.00000  0.15700  0.75000  1.0000
  Na  Na1       1.0  0.50000  0.35300  0.25000  1.0000
  Na  Na2       1.0  0.50000  0.64700  0.75000  1.0000
