data_image0
_chemical_formula_structural       Dy4Ge4Pt4
_chemical_formula_sum              "Dy4 Ge4 Pt4"
_cell_length_a       7.03484
_cell_length_b       4.37516
_cell_length_c       7.63616
_cell_angle_alpha    90
_cell_angle_beta     90
_cell_angle_gamma    90

_space_group_name_H-M_alt    "P 1"
_space_group_IT_number       1

loop_
  _space_group_symop_operation_xyz
  'x, y, z'

loop_
  _atom_site_type_symbol
  _atom_site_label
  _atom_site_symmetry_multiplicity
  _atom_site_fract_x
  _atom_site_fract_y
  _atom_site_fract_z
  _atom_site_occupancy
  Dy  Dy1       1.0  0.50300  0.75000  0.20300  1.0000
  Dy  Dy2       1.0  0.00268  0.75000  0.29700  1.0000
  Dy  Dy3       1.0  0.99700  0.25000  0.70300  1.0000
  Dy  Dy4       1.0  0.49700  0.25000  0.79700  1.0000
  Ge  Ge1       1.0  0.81100  0.25000  0.08840  1.0000
  Ge  Ge2       1.0  0.31100  0.25000  0.41200  1.0000
  Ge  Ge3       1.0  0.68900  0.75000  0.58800  1.0000
  Ge  Ge4       1.0  0.18900  0.75000  0.91200  1.0000
  Pt  Pt1       1.0  0.20400  0.25000  0.08500  1.0000
  Pt  Pt2       1.0  0.70400  0.25000  0.41500  1.0000
  Pt  Pt3       1.0  0.29600  0.75000  0.58500  1.0000
  Pt  Pt4       1.0  0.79600  0.75000  0.91500  1.0000
