data_image0
_chemical_formula_structural       Fe4Rb2Te6
_chemical_formula_sum              "Fe4 Rb2 Te6"
_cell_length_a       5.69634
_cell_length_b       8.11164
_cell_length_c       8.11164
_cell_angle_alpha    78.0534
_cell_angle_beta     90
_cell_angle_gamma    90

_space_group_name_H-M_alt    "P 1"
_space_group_IT_number       1

loop_
  _space_group_symop_operation_xyz
  'x, y, z'

loop_
  _atom_site_type_symbol
  _atom_site_label
  _atom_site_symmetry_multiplicity
  _atom_site_fract_x
  _atom_site_fract_y
  _atom_site_fract_z
  _atom_site_occupancy
  Fe  Fe1       1.0  0.00000  0.87600  0.12400  1.0000
  Fe  Fe2       1.0  0.50000  0.87600  0.12400  1.0000
  Fe  Fe3       1.0  0.00000  0.12400  0.87600  1.0000
  Fe  Fe4       1.0  0.50000  0.12400  0.87600  1.0000
  Rb  Rb1       1.0  0.75000  0.34400  0.34400  1.0000
  Rb  Rb2       1.0  0.25000  0.65600  0.65600  1.0000
  Te  Te1       1.0  0.25000  0.14000  0.14000  1.0000
  Te  Te2       1.0  0.25000  0.61100  0.15200  1.0000
  Te  Te3       1.0  0.75000  0.84800  0.38900  1.0000
  Te  Te4       1.0  0.25000  0.15200  0.61100  1.0000
  Te  Te5       1.0  0.75000  0.38900  0.84800  1.0000
  Te  Te6       1.0  0.75000  0.86000  0.86000  1.0000
