data_image0
_chemical_formula_structural       Cs2Fe4Se6
_chemical_formula_sum              "Cs2 Fe4 Se6"
_cell_length_a       5.50822
_cell_length_b       7.74892
_cell_length_c       7.74892
_cell_angle_alpha    79.3383
_cell_angle_beta     90
_cell_angle_gamma    90

_space_group_name_H-M_alt    "P 1"
_space_group_IT_number       1

loop_
  _space_group_symop_operation_xyz
  'x, y, z'

loop_
  _atom_site_type_symbol
  _atom_site_label
  _atom_site_symmetry_multiplicity
  _atom_site_fract_x
  _atom_site_fract_y
  _atom_site_fract_z
  _atom_site_occupancy
  Cs  Cs1       1.0  0.75000  0.33700  0.33700  1.0000
  Cs  Cs2       1.0  0.25000  0.66300  0.66300  1.0000
  Fe  Fe1       1.0  0.00000  0.87200  0.12800  1.0000
  Fe  Fe2       1.0  0.50000  0.87200  0.12800  1.0000
  Fe  Fe3       1.0  0.00000  0.12800  0.87200  1.0000
  Fe  Fe4       1.0  0.50000  0.12800  0.87200  1.0000
  Se  Se1       1.0  0.25000  0.12800  0.12800  1.0000
  Se  Se2       1.0  0.25000  0.62600  0.15900  1.0000
  Se  Se3       1.0  0.75000  0.84100  0.37400  1.0000
  Se  Se4       1.0  0.25000  0.15900  0.62600  1.0000
  Se  Se5       1.0  0.75000  0.37400  0.84100  1.0000
  Se  Se6       1.0  0.75000  0.87200  0.87200  1.0000
