data_image0
_chemical_formula_structural       As4Ni4Se4
_chemical_formula_sum              "As4 Ni4 Se4"
_cell_length_a       5.86178
_cell_length_b       5.86178
_cell_length_c       5.86178
_cell_angle_alpha    90
_cell_angle_beta     90
_cell_angle_gamma    90

_space_group_name_H-M_alt    "P 1"
_space_group_IT_number       1

loop_
  _space_group_symop_operation_xyz
  'x, y, z'

loop_
  _atom_site_type_symbol
  _atom_site_label
  _atom_site_symmetry_multiplicity
  _atom_site_fract_x
  _atom_site_fract_y
  _atom_site_fract_z
  _atom_site_occupancy
  As  As1       1.0  0.87600  0.37600  0.12400  1.0000
  As  As2       1.0  0.12400  0.87600  0.37600  1.0000
  As  As3       1.0  0.62400  0.62400  0.62400  1.0000
  As  As4       1.0  0.37600  0.12400  0.87600  1.0000
  Ni  Ni1       1.0  0.00300  0.00300  0.00300  1.0000
  Ni  Ni2       1.0  0.99700  0.50300  0.49700  1.0000
  Ni  Ni3       1.0  0.49700  0.99700  0.50300  1.0000
  Ni  Ni4       1.0  0.50300  0.49700  0.99700  1.0000
  Se  Se1       1.0  0.62200  0.87800  0.12200  1.0000
  Se  Se2       1.0  0.37800  0.37800  0.37800  1.0000
  Se  Se3       1.0  0.87800  0.12200  0.62200  1.0000
  Se  Se4       1.0  0.12200  0.62200  0.87800  1.0000
