data_image0
_chemical_formula_structural       Ni4P4S4
_chemical_formula_sum              "Ni4 P4 S4"
_cell_length_a       5.53762
_cell_length_b       5.53762
_cell_length_c       5.53762
_cell_angle_alpha    90
_cell_angle_beta     90
_cell_angle_gamma    90

_space_group_name_H-M_alt    "P 1"
_space_group_IT_number       1

loop_
  _space_group_symop_operation_xyz
  'x, y, z'

loop_
  _atom_site_type_symbol
  _atom_site_label
  _atom_site_symmetry_multiplicity
  _atom_site_fract_x
  _atom_site_fract_y
  _atom_site_fract_z
  _atom_site_occupancy
  Ni  Ni1       1.0  0.50400  0.49600  0.99600  1.0000
  Ni  Ni2       1.0  0.00436  0.00436  0.00436  1.0000
  Ni  Ni3       1.0  0.99600  0.50400  0.49600  1.0000
  Ni  Ni4       1.0  0.49600  0.99600  0.50400  1.0000
  P   P1        1.0  0.88700  0.38700  0.11300  1.0000
  P   P2        1.0  0.11300  0.88700  0.38700  1.0000
  P   P3        1.0  0.61300  0.61300  0.61300  1.0000
  P   P4        1.0  0.38700  0.11300  0.88700  1.0000
  S   S1        1.0  0.61100  0.88900  0.11100  1.0000
  S   S2        1.0  0.38900  0.38900  0.38900  1.0000
  S   S3        1.0  0.88900  0.11100  0.61100  1.0000
  S   S4        1.0  0.11100  0.61100  0.88900  1.0000
