data_image0
_chemical_formula_structural       Ge4Yb8
_chemical_formula_sum              "Ge4 Yb8"
_cell_length_a       7.4421
_cell_length_b       4.81263
_cell_length_c       8.95603
_cell_angle_alpha    90
_cell_angle_beta     90
_cell_angle_gamma    90

_space_group_name_H-M_alt    "P 1"
_space_group_IT_number       1

loop_
  _space_group_symop_operation_xyz
  'x, y, z'

loop_
  _atom_site_type_symbol
  _atom_site_label
  _atom_site_symmetry_multiplicity
  _atom_site_fract_x
  _atom_site_fract_y
  _atom_site_fract_z
  _atom_site_occupancy
  Ge  Ge1       1.0  0.75100  0.25000  0.10400  1.0000
  Ge  Ge2       1.0  0.25100  0.25000  0.39600  1.0000
  Ge  Ge3       1.0  0.74900  0.75000  0.60400  1.0000
  Ge  Ge4       1.0  0.24900  0.75000  0.89600  1.0000
  Yb  Yb1       1.0  0.15600  0.25000  0.07570  1.0000
  Yb  Yb2       1.0  0.48000  0.75000  0.18100  1.0000
  Yb  Yb3       1.0  0.98000  0.75000  0.31900  1.0000
  Yb  Yb4       1.0  0.65600  0.25000  0.42400  1.0000
  Yb  Yb5       1.0  0.34400  0.75000  0.57600  1.0000
  Yb  Yb6       1.0  0.01980  0.25000  0.68100  1.0000
  Yb  Yb7       1.0  0.52000  0.25000  0.81900  1.0000
  Yb  Yb8       1.0  0.84400  0.75000  0.92400  1.0000
