data_image0
_chemical_formula_structural       Cr2Lu2O8
_chemical_formula_sum              "Cr2 Lu2 O8"
_cell_length_a       5.81899
_cell_length_b       5.81899
_cell_length_c       5.81899
_cell_angle_alpha    106.273
_cell_angle_beta     116.076
_cell_angle_gamma    106.273

_space_group_name_H-M_alt    "P 1"
_space_group_IT_number       1

loop_
  _space_group_symop_operation_xyz
  'x, y, z'

loop_
  _atom_site_type_symbol
  _atom_site_label
  _atom_site_symmetry_multiplicity
  _atom_site_fract_x
  _atom_site_fract_y
  _atom_site_fract_z
  _atom_site_occupancy
  Cr  Cr1       1.0  0.75000  0.50000  0.25000  1.0000
  Cr  Cr2       1.0  0.50000  0.00000  0.50000  1.0000
  Lu  Lu1       1.0  0.00000  0.00000  0.00000  1.0000
  Lu  Lu2       1.0  0.25000  0.50000  0.75000  1.0000
  O   O1        1.0  0.38400  0.31100  0.07250  1.0000
  O   O2        1.0  0.76100  0.68900  0.07250  1.0000
  O   O3        1.0  0.32200  0.81100  0.13400  1.0000
  O   O4        1.0  0.92800  0.31100  0.23900  1.0000
  O   O5        1.0  0.32200  0.18900  0.51100  1.0000
  O   O6        1.0  0.92800  0.68900  0.61600  1.0000
  O   O7        1.0  0.48900  0.81100  0.67800  1.0000
  O   O8        1.0  0.86600  0.18900  0.67800  1.0000
