data_image0
_chemical_formula_structural       CaF8HfLi2
_chemical_formula_sum              "Ca1 F8 Hf1 Li2"
_cell_length_a       6.2765
_cell_length_b       5.02401
_cell_length_c       5.02401
_cell_angle_alpha    90
_cell_angle_beta     113.592
_cell_angle_gamma    113.592

_space_group_name_H-M_alt    "P 1"
_space_group_IT_number       1

loop_
  _space_group_symop_operation_xyz
  'x, y, z'

loop_
  _atom_site_type_symbol
  _atom_site_label
  _atom_site_symmetry_multiplicity
  _atom_site_fract_x
  _atom_site_fract_y
  _atom_site_fract_z
  _atom_site_occupancy
  Ca  Ca1       1.0  0.00000  0.00000  0.00000  1.0000
  F   F1        1.0  0.64300  0.60500  0.00366  1.0000
  F   F2        1.0  0.82400  0.12700  0.26400  1.0000
  F   F3        1.0  0.17600  0.73600  0.30300  1.0000
  F   F4        1.0  0.35700  0.36100  0.39500  1.0000
  F   F5        1.0  0.82400  0.69700  0.56000  1.0000
  F   F6        1.0  0.64300  0.03770  0.63900  1.0000
  F   F7        1.0  0.17600  0.44000  0.87300  1.0000
  F   F8        1.0  0.35700  0.99600  0.96200  1.0000
  Hf  Hf1       1.0  0.50000  0.75000  0.25000  1.0000
  Li  Li1       1.0  0.00000  0.50000  0.50000  1.0000
  Li  Li2       1.0  0.50000  0.25000  0.75000  1.0000
