data_image0
_chemical_formula_structural       Cu2Hf2S6Tl2
_chemical_formula_sum              "Cu2 Hf2 S6 Tl2"
_cell_length_a       7.36395
_cell_length_b       3.70169
_cell_length_c       9.75837
_cell_angle_alpha    90
_cell_angle_beta     90
_cell_angle_gamma    104.557

_space_group_name_H-M_alt    "P 1"
_space_group_IT_number       1

loop_
  _space_group_symop_operation_xyz
  'x, y, z'

loop_
  _atom_site_type_symbol
  _atom_site_label
  _atom_site_symmetry_multiplicity
  _atom_site_fract_x
  _atom_site_fract_y
  _atom_site_fract_z
  _atom_site_occupancy
  Cu  Cu1       1.0  0.92000  0.46000  0.25000  1.0000
  Cu  Cu2       1.0  0.07950  0.54000  0.75000  1.0000
  Hf  Hf1       1.0  0.00000  0.00000  0.00000  1.0000
  Hf  Hf2       1.0  0.00000  0.00000  0.50000  1.0000
  S   S1        1.0  0.75800  0.37900  0.04760  1.0000
  S   S2        1.0  0.12000  0.06000  0.25000  1.0000
  S   S3        1.0  0.75800  0.37900  0.45200  1.0000
  S   S4        1.0  0.24200  0.62100  0.54800  1.0000
  S   S5        1.0  0.88000  0.94000  0.75000  1.0000
  S   S6        1.0  0.24200  0.62100  0.95200  1.0000
  Tl  Tl1       1.0  0.48700  0.74400  0.25000  1.0000
  Tl  Tl2       1.0  0.51300  0.25600  0.75000  1.0000
