data_image0
_chemical_formula_structural       As4S4Sm4
_chemical_formula_sum              "As4 S4 Sm4"
_cell_length_a       17.3338
_cell_length_b       3.88341
_cell_length_c       3.92895
_cell_angle_alpha    90
_cell_angle_beta     90
_cell_angle_gamma    90

_space_group_name_H-M_alt    "P 1"
_space_group_IT_number       1

loop_
  _space_group_symop_operation_xyz
  'x, y, z'

loop_
  _atom_site_type_symbol
  _atom_site_label
  _atom_site_symmetry_multiplicity
  _atom_site_fract_x
  _atom_site_fract_y
  _atom_site_fract_z
  _atom_site_occupancy
  As  As1       1.0  0.50100  0.75000  0.21500  1.0000
  As  As2       1.0  0.00148  0.75000  0.28500  1.0000
  As  As3       1.0  0.99900  0.25000  0.71500  1.0000
  As  As4       1.0  0.49900  0.25000  0.78500  1.0000
  S   S1        1.0  0.68700  0.25000  0.24200  1.0000
  S   S2        1.0  0.18700  0.25000  0.25800  1.0000
  S   S3        1.0  0.81300  0.75000  0.74200  1.0000
  S   S4        1.0  0.31300  0.75000  0.75800  1.0000
  Sm  Sm1       1.0  0.85400  0.25000  0.24000  1.0000
  Sm  Sm2       1.0  0.35400  0.25000  0.26000  1.0000
  Sm  Sm3       1.0  0.64600  0.75000  0.74000  1.0000
  Sm  Sm4       1.0  0.14600  0.75000  0.76000  1.0000
