data_image0
_chemical_formula_structural       Ni2Ta
_chemical_formula_sum              "Ni2 Ta1"
_cell_length_a       3.1564
_cell_length_b       3.1564
_cell_length_c       4.53669
_cell_angle_alpha    110.357
_cell_angle_beta     110.357
_cell_angle_gamma    90

_space_group_name_H-M_alt    "P 1"
_space_group_IT_number       1

loop_
  _space_group_symop_operation_xyz
  'x, y, z'

loop_
  _atom_site_type_symbol
  _atom_site_label
  _atom_site_symmetry_multiplicity
  _atom_site_fract_x
  _atom_site_fract_y
  _atom_site_fract_z
  _atom_site_occupancy
  Ni  Ni1       1.0  0.66700  0.66700  0.33400  1.0000
  Ni  Ni2       1.0  0.33300  0.33300  0.66600  1.0000
  Ta  Ta1       1.0  0.00000  0.00000  0.00000  1.0000
