data_image0
_chemical_formula_structural       Ag6Rb2Te4
_chemical_formula_sum              "Ag6 Rb2 Te4"
_cell_length_a       4.62026
_cell_length_b       9.11552
_cell_length_c       9.19645
_cell_angle_alpha    112.378
_cell_angle_beta     90
_cell_angle_gamma    104.68

_space_group_name_H-M_alt    "P 1"
_space_group_IT_number       1

loop_
  _space_group_symop_operation_xyz
  'x, y, z'

loop_
  _atom_site_type_symbol
  _atom_site_label
  _atom_site_symmetry_multiplicity
  _atom_site_fract_x
  _atom_site_fract_y
  _atom_site_fract_z
  _atom_site_occupancy
  Ag  Ag1       1.0  0.41300  0.82500  0.37000  1.0000
  Ag  Ag2       1.0  0.06180  0.12400  0.40900  1.0000
  Ag  Ag3       1.0  0.69100  0.38200  0.45500  1.0000
  Ag  Ag4       1.0  0.30900  0.61800  0.54500  1.0000
  Ag  Ag5       1.0  0.93800  0.87600  0.59100  1.0000
  Ag  Ag6       1.0  0.58700  0.17500  0.63000  1.0000
  Rb  Rb1       1.0  0.13600  0.27100  0.04800  1.0000
  Rb  Rb2       1.0  0.86400  0.72900  0.95200  1.0000
  Te  Te1       1.0  0.52000  0.04060  0.21900  1.0000
  Te  Te2       1.0  0.79800  0.59600  0.29600  1.0000
  Te  Te3       1.0  0.20200  0.40400  0.70400  1.0000
  Te  Te4       1.0  0.48000  0.95900  0.78100  1.0000
