data_image0
_chemical_formula_structural       Se8U4
_chemical_formula_sum              "Se8 U4"
_cell_length_a       7.48866
_cell_length_b       4.13163
_cell_length_c       9.06802
_cell_angle_alpha    90
_cell_angle_beta     90
_cell_angle_gamma    90

_space_group_name_H-M_alt    "P 1"
_space_group_IT_number       1

loop_
  _space_group_symop_operation_xyz
  'x, y, z'

loop_
  _atom_site_type_symbol
  _atom_site_label
  _atom_site_symmetry_multiplicity
  _atom_site_fract_x
  _atom_site_fract_y
  _atom_site_fract_z
  _atom_site_occupancy
  Se  Se1       1.0  0.14100  0.25000  0.06930  1.0000
  Se  Se2       1.0  0.46800  0.75000  0.16500  1.0000
  Se  Se3       1.0  0.96800  0.75000  0.33500  1.0000
  Se  Se4       1.0  0.64100  0.25000  0.43100  1.0000
  Se  Se5       1.0  0.35900  0.75000  0.56900  1.0000
  Se  Se6       1.0  0.03160  0.25000  0.66500  1.0000
  Se  Se7       1.0  0.53200  0.25000  0.83500  1.0000
  Se  Se8       1.0  0.85900  0.75000  0.93100  1.0000
  U   U1        1.0  0.75400  0.25000  0.13000  1.0000
  U   U2        1.0  0.25400  0.25000  0.37000  1.0000
  U   U3        1.0  0.74600  0.75000  0.63000  1.0000
  U   U4        1.0  0.24600  0.75000  0.87000  1.0000
