data_image0
_chemical_formula_structural       Mo4P4Ru4
_chemical_formula_sum              "Mo4 P4 Ru4"
_cell_length_a       6.04131
_cell_length_b       3.89608
_cell_length_c       6.98763
_cell_angle_alpha    90
_cell_angle_beta     90
_cell_angle_gamma    90

_space_group_name_H-M_alt    "P 1"
_space_group_IT_number       1

loop_
  _space_group_symop_operation_xyz
  'x, y, z'

loop_
  _atom_site_type_symbol
  _atom_site_label
  _atom_site_symmetry_multiplicity
  _atom_site_fract_x
  _atom_site_fract_y
  _atom_site_fract_z
  _atom_site_occupancy
  Mo  Mo1       1.0  0.97400  0.75000  0.17000  1.0000
  Mo  Mo2       1.0  0.47400  0.75000  0.33000  1.0000
  Mo  Mo3       1.0  0.52600  0.25000  0.67000  1.0000
  Mo  Mo4       1.0  0.02580  0.25000  0.83000  1.0000
  P   P1        1.0  0.25500  0.25000  0.11600  1.0000
  P   P2        1.0  0.75500  0.25000  0.38400  1.0000
  P   P3        1.0  0.24500  0.75000  0.61600  1.0000
  P   P4        1.0  0.74500  0.75000  0.88400  1.0000
  Ru  Ru1       1.0  0.64000  0.25000  0.06860  1.0000
  Ru  Ru2       1.0  0.14000  0.25000  0.43100  1.0000
  Ru  Ru3       1.0  0.86000  0.75000  0.56900  1.0000
  Ru  Ru4       1.0  0.36000  0.75000  0.93100  1.0000
