data_image0
_chemical_formula_structural       Cu2Hf2Se6Tl2
_chemical_formula_sum              "Cu2 Hf2 Se6 Tl2"
_cell_length_a       7.6125
_cell_length_b       3.84503
_cell_length_c       10.1446
_cell_angle_alpha    90
_cell_angle_beta     90
_cell_angle_gamma    104.628

_space_group_name_H-M_alt    "P 1"
_space_group_IT_number       1

loop_
  _space_group_symop_operation_xyz
  'x, y, z'

loop_
  _atom_site_type_symbol
  _atom_site_label
  _atom_site_symmetry_multiplicity
  _atom_site_fract_x
  _atom_site_fract_y
  _atom_site_fract_z
  _atom_site_occupancy
  Cu  Cu1       1.0  0.92600  0.46300  0.25000  1.0000
  Cu  Cu2       1.0  0.07380  0.53700  0.75000  1.0000
  Hf  Hf1       1.0  0.00000  0.00000  0.00000  1.0000
  Hf  Hf2       1.0  0.00000  0.00000  0.50000  1.0000
  Se  Se1       1.0  0.75000  0.37500  0.04780  1.0000
  Se  Se2       1.0  0.13200  0.06620  0.25000  1.0000
  Se  Se3       1.0  0.75000  0.37500  0.45200  1.0000
  Se  Se4       1.0  0.25000  0.62500  0.54800  1.0000
  Se  Se5       1.0  0.86800  0.93400  0.75000  1.0000
  Se  Se6       1.0  0.25000  0.62500  0.95200  1.0000
  Tl  Tl1       1.0  0.50200  0.75100  0.25000  1.0000
  Tl  Tl2       1.0  0.49800  0.24900  0.75000  1.0000
