data_image0
_chemical_formula_structural       Cr3NaO8
_chemical_formula_sum              "Cr3 Na1 O8"
_cell_length_a       5.01004
_cell_length_b       5.01004
_cell_length_c       6.66866
_cell_angle_alpha    90.7746
_cell_angle_beta     90.7746
_cell_angle_gamma    66.4158

_space_group_name_H-M_alt    "P 1"
_space_group_IT_number       1

loop_
  _space_group_symop_operation_xyz
  'x, y, z'

loop_
  _atom_site_type_symbol
  _atom_site_label
  _atom_site_symmetry_multiplicity
  _atom_site_fract_x
  _atom_site_fract_y
  _atom_site_fract_z
  _atom_site_occupancy
  Cr  Cr1       1.0  0.63500  0.63500  0.26800  1.0000
  Cr  Cr2       1.0  0.00000  0.00000  0.50000  1.0000
  Cr  Cr3       1.0  0.36500  0.36500  0.73200  1.0000
  Na  Na1       1.0  0.00000  0.00000  0.00000  1.0000
  O   O1        1.0  0.71700  0.71700  0.05110  1.0000
  O   O2        1.0  0.77300  0.26700  0.28500  1.0000
  O   O3        1.0  0.26700  0.77300  0.28500  1.0000
  O   O4        1.0  0.76800  0.76800  0.45300  1.0000
  O   O5        1.0  0.23200  0.23200  0.54700  1.0000
  O   O6        1.0  0.73300  0.22700  0.71500  1.0000
  O   O7        1.0  0.22700  0.73300  0.71500  1.0000
  O   O8        1.0  0.28300  0.28300  0.94900  1.0000
