data_image0
_chemical_formula_structural       KO5S2Ti2Y2
_chemical_formula_sum              "K1 O5 S2 Ti2 Y2"
_cell_length_a       3.71129
_cell_length_b       3.71129
_cell_length_c       14.8501
_cell_angle_alpha    90
_cell_angle_beta     90
_cell_angle_gamma    90

_space_group_name_H-M_alt    "P 1"
_space_group_IT_number       1

loop_
  _space_group_symop_operation_xyz
  'x, y, z'

loop_
  _atom_site_type_symbol
  _atom_site_label
  _atom_site_symmetry_multiplicity
  _atom_site_fract_x
  _atom_site_fract_y
  _atom_site_fract_z
  _atom_site_occupancy
  K   K1        1.0  0.50000  0.50000  0.50000  1.0000
  O   O1        1.0  0.00000  0.00000  0.00000  1.0000
  O   O2        1.0  0.50000  0.00000  0.16900  1.0000
  O   O3        1.0  0.00000  0.50000  0.16900  1.0000
  O   O4        1.0  0.50000  0.00000  0.83100  1.0000
  O   O5        1.0  0.00000  0.50000  0.83100  1.0000
  S   S1        1.0  0.00000  0.00000  0.35300  1.0000
  S   S2        1.0  0.00000  0.00000  0.64700  1.0000
  Ti  Ti1       1.0  0.00000  0.00000  0.12300  1.0000
  Ti  Ti2       1.0  0.00000  0.00000  0.87700  1.0000
  Y   Y1        1.0  0.50000  0.50000  0.26100  1.0000
  Y   Y2        1.0  0.50000  0.50000  0.73900  1.0000
