data_image0
_chemical_formula_structural       Ni4Ta2Te6
_chemical_formula_sum              "Ni4 Ta2 Te6"
_cell_length_a       7.61428
_cell_length_b       3.73043
_cell_length_c       10.2492
_cell_angle_alpha    90
_cell_angle_beta     107.842
_cell_angle_gamma    90

_space_group_name_H-M_alt    "P 1"
_space_group_IT_number       1

loop_
  _space_group_symop_operation_xyz
  'x, y, z'

loop_
  _atom_site_type_symbol
  _atom_site_label
  _atom_site_symmetry_multiplicity
  _atom_site_fract_x
  _atom_site_fract_y
  _atom_site_fract_z
  _atom_site_occupancy
  Ni  Ni1       1.0  0.59900  0.25000  0.09190  1.0000
  Ni  Ni2       1.0  0.04150  0.25000  0.43200  1.0000
  Ni  Ni3       1.0  0.95900  0.75000  0.56800  1.0000
  Ni  Ni4       1.0  0.40100  0.75000  0.90800  1.0000
  Ta  Ta1       1.0  0.79300  0.75000  0.30000  1.0000
  Ta  Ta2       1.0  0.20700  0.25000  0.70000  1.0000
  Te  Te1       1.0  0.42200  0.75000  0.16400  1.0000
  Te  Te2       1.0  0.95200  0.25000  0.16700  1.0000
  Te  Te3       1.0  0.71900  0.25000  0.49500  1.0000
  Te  Te4       1.0  0.28100  0.75000  0.50500  1.0000
  Te  Te5       1.0  0.04810  0.75000  0.83300  1.0000
  Te  Te6       1.0  0.57800  0.25000  0.83600  1.0000
