data_image0
_chemical_formula_structural       Ba3Cl2O5Tl2
_chemical_formula_sum              "Ba3 Cl2 O5 Tl2"
_cell_length_a       4.37609
_cell_length_b       4.37609
_cell_length_c       13.0887
_cell_angle_alpha    99.6234
_cell_angle_beta     99.6234
_cell_angle_gamma    90

_space_group_name_H-M_alt    "P 1"
_space_group_IT_number       1

loop_
  _space_group_symop_operation_xyz
  'x, y, z'

loop_
  _atom_site_type_symbol
  _atom_site_label
  _atom_site_symmetry_multiplicity
  _atom_site_fract_x
  _atom_site_fract_y
  _atom_site_fract_z
  _atom_site_occupancy
  Ba  Ba1       1.0  0.00000  0.00000  0.00000  1.0000
  Ba  Ba2       1.0  0.16400  0.16400  0.32800  1.0000
  Ba  Ba3       1.0  0.83600  0.83600  0.67200  1.0000
  Cl  Cl1       1.0  0.70800  0.70800  0.41500  1.0000
  Cl  Cl2       1.0  0.29200  0.29200  0.58500  1.0000
  O   O1        1.0  0.50000  0.50000  0.00000  1.0000
  O   O2        1.0  0.59800  0.09780  0.19600  1.0000
  O   O3        1.0  0.09780  0.59800  0.19600  1.0000
  O   O4        1.0  0.90200  0.40200  0.80400  1.0000
  O   O5        1.0  0.40200  0.90200  0.80400  1.0000
  Tl  Tl1       1.0  0.58600  0.58600  0.17200  1.0000
  Tl  Tl2       1.0  0.41400  0.41400  0.82800  1.0000
