data_image0
_chemical_formula_structural       Ba2Eu3Si7
_chemical_formula_sum              "Ba2 Eu3 Si7"
_cell_length_a       9.30051
_cell_length_b       9.30051
_cell_length_c       4.10241
_cell_angle_alpha    90
_cell_angle_beta     90
_cell_angle_gamma    119.999

_space_group_name_H-M_alt    "P 1"
_space_group_IT_number       1

loop_
  _space_group_symop_operation_xyz
  'x, y, z'

loop_
  _atom_site_type_symbol
  _atom_site_label
  _atom_site_symmetry_multiplicity
  _atom_site_fract_x
  _atom_site_fract_y
  _atom_site_fract_z
  _atom_site_occupancy
  Ba  Ba1       1.0  0.66700  0.33300  0.00000  1.0000
  Ba  Ba2       1.0  0.33300  0.66700  0.00000  1.0000
  Eu  Eu1       1.0  0.25500  0.00001  0.50000  1.0000
  Eu  Eu2       1.0  0.00000  0.25500  0.50000  1.0000
  Eu  Eu3       1.0  0.74500  0.74500  0.50000  1.0000
  Si  Si1       1.0  0.00001  0.00001  0.00000  1.0000
  Si  Si2       1.0  0.74300  0.00001  0.00000  1.0000
  Si  Si3       1.0  0.25700  0.25700  0.00000  1.0000
  Si  Si4       1.0  0.00001  0.74300  0.00000  1.0000
  Si  Si5       1.0  0.60000  0.00002  0.50000  1.0000
  Si  Si6       1.0  0.40000  0.40000  0.50000  1.0000
  Si  Si7       1.0  0.00002  0.60000  0.50000  1.0000
