data_image0
_chemical_formula_structural       P4Pt2Si6
_chemical_formula_sum              "P4 Pt2 Si6"
_cell_length_a       4.88239
_cell_length_b       5.5181
_cell_length_c       8.146
_cell_angle_alpha    91.3708
_cell_angle_beta     93.5269
_cell_angle_gamma    107.933

_space_group_name_H-M_alt    "P 1"
_space_group_IT_number       1

loop_
  _space_group_symop_operation_xyz
  'x, y, z'

loop_
  _atom_site_type_symbol
  _atom_site_label
  _atom_site_symmetry_multiplicity
  _atom_site_fract_x
  _atom_site_fract_y
  _atom_site_fract_z
  _atom_site_occupancy
  P   P1        1.0  0.79500  0.27000  0.16300  1.0000
  P   P2        1.0  0.49500  0.69200  0.31800  1.0000
  P   P3        1.0  0.19200  0.11800  0.48000  1.0000
  P   P4        1.0  0.29500  0.39700  0.88600  1.0000
  Pt  Pt1       1.0  0.00015  0.99900  0.00088  1.0000
  Pt  Pt2       1.0  0.85200  0.71600  0.55800  1.0000
  Si  Si1       1.0  0.66700  0.60800  0.07370  1.0000
  Si  Si2       1.0  0.35300  0.02440  0.23300  1.0000
  Si  Si3       1.0  0.05590  0.45200  0.39700  1.0000
  Si  Si4       1.0  0.56100  0.33100  0.67000  1.0000
  Si  Si5       1.0  0.66700  0.96300  0.75500  1.0000
  Si  Si6       1.0  0.17800  0.75500  0.80400  1.0000
