data_image0
_chemical_formula_structural       Ge4Pt4Tb4
_chemical_formula_sum              "Ge4 Pt4 Tb4"
_cell_length_a       7.06923
_cell_length_b       4.38319
_cell_length_c       7.64657
_cell_angle_alpha    90
_cell_angle_beta     90
_cell_angle_gamma    90

_space_group_name_H-M_alt    "P 1"
_space_group_IT_number       1

loop_
  _space_group_symop_operation_xyz
  'x, y, z'

loop_
  _atom_site_type_symbol
  _atom_site_label
  _atom_site_symmetry_multiplicity
  _atom_site_fract_x
  _atom_site_fract_y
  _atom_site_fract_z
  _atom_site_occupancy
  Ge  Ge1       1.0  0.81200  0.25000  0.08850  1.0000
  Ge  Ge2       1.0  0.31200  0.25000  0.41100  1.0000
  Ge  Ge3       1.0  0.68800  0.75000  0.58900  1.0000
  Ge  Ge4       1.0  0.18800  0.75000  0.91100  1.0000
  Pt  Pt1       1.0  0.20500  0.25000  0.08420  1.0000
  Pt  Pt2       1.0  0.70500  0.25000  0.41600  1.0000
  Pt  Pt3       1.0  0.29500  0.75000  0.58400  1.0000
  Pt  Pt4       1.0  0.79500  0.75000  0.91600  1.0000
  Tb  Tb1       1.0  0.50300  0.75000  0.20300  1.0000
  Tb  Tb2       1.0  0.00326  0.75000  0.29700  1.0000
  Tb  Tb3       1.0  0.99700  0.25000  0.70300  1.0000
  Tb  Tb4       1.0  0.49700  0.25000  0.79700  1.0000
