data_image0
_chemical_formula_structural       I4In4Te4
_chemical_formula_sum              "I4 In4 Te4"
_cell_length_a       8.25345
_cell_length_b       7.79166
_cell_length_c       8.54618
_cell_angle_alpha    90
_cell_angle_beta     117.146
_cell_angle_gamma    90

_space_group_name_H-M_alt    "P 1"
_space_group_IT_number       1

loop_
  _space_group_symop_operation_xyz
  'x, y, z'

loop_
  _atom_site_type_symbol
  _atom_site_label
  _atom_site_symmetry_multiplicity
  _atom_site_fract_x
  _atom_site_fract_y
  _atom_site_fract_z
  _atom_site_occupancy
  I   I1        1.0  0.33800  0.11200  0.10400  1.0000
  I   I2        1.0  0.66200  0.61200  0.39600  1.0000
  I   I3        1.0  0.33800  0.38800  0.60400  1.0000
  I   I4        1.0  0.66200  0.88800  0.89600  1.0000
  In  In1       1.0  0.96200  0.69600  0.10900  1.0000
  In  In2       1.0  0.03790  0.19600  0.39100  1.0000
  In  In3       1.0  0.96200  0.80400  0.60900  1.0000
  In  In4       1.0  0.03790  0.30400  0.89100  1.0000
  Te  Te1       1.0  0.81300  0.35700  0.06580  1.0000
  Te  Te2       1.0  0.18700  0.85700  0.43400  1.0000
  Te  Te3       1.0  0.81300  0.14300  0.56600  1.0000
  Te  Te4       1.0  0.18700  0.64300  0.93400  1.0000
