data_image0
_chemical_formula_structural       Ca7N2Tl3
_chemical_formula_sum              "Ca7 N2 Tl3"
_cell_length_a       4.93061
_cell_length_b       4.97262
_cell_length_c       12.7459
_cell_angle_alpha    78.7513
_cell_angle_beta     90
_cell_angle_gamma    90

_space_group_name_H-M_alt    "P 1"
_space_group_IT_number       1

loop_
  _space_group_symop_operation_xyz
  'x, y, z'

loop_
  _atom_site_type_symbol
  _atom_site_label
  _atom_site_symmetry_multiplicity
  _atom_site_fract_x
  _atom_site_fract_y
  _atom_site_fract_z
  _atom_site_occupancy
  Ca  Ca1       1.0  0.00000  0.00000  0.00000  1.0000
  Ca  Ca2       1.0  0.50000  0.90000  0.20000  1.0000
  Ca  Ca3       1.0  0.00000  0.40000  0.20000  1.0000
  Ca  Ca4       1.0  0.00000  0.80200  0.39500  1.0000
  Ca  Ca5       1.0  0.00000  0.19800  0.60500  1.0000
  Ca  Ca6       1.0  0.00000  0.60000  0.80000  1.0000
  Ca  Ca7       1.0  0.50000  0.09990  0.80000  1.0000
  N   N1        1.0  0.00000  0.89700  0.20600  1.0000
  N   N2        1.0  0.00000  0.10300  0.79400  1.0000
  Tl  Tl1       1.0  0.50000  0.50000  0.00000  1.0000
  Tl  Tl2       1.0  0.50000  0.29300  0.41300  1.0000
  Tl  Tl3       1.0  0.50000  0.70700  0.58700  1.0000
