data_image0
_chemical_formula_structural       I4Nb4Se4
_chemical_formula_sum              "I4 Nb4 Se4"
_cell_length_a       7.71407
_cell_length_b       7.71407
_cell_length_c       7.71407
_cell_angle_alpha    120
_cell_angle_beta     90
_cell_angle_gamma    120

_space_group_name_H-M_alt    "P 1"
_space_group_IT_number       1

loop_
  _space_group_symop_operation_xyz
  'x, y, z'

loop_
  _atom_site_type_symbol
  _atom_site_label
  _atom_site_symmetry_multiplicity
  _atom_site_fract_x
  _atom_site_fract_y
  _atom_site_fract_z
  _atom_site_occupancy
  I   I1        1.0  0.38300  0.25500  0.12800  1.0000
  I   I2        1.0  0.87200  0.25500  0.12800  1.0000
  I   I3        1.0  0.87200  0.74500  0.12800  1.0000
  I   I4        1.0  0.87200  0.74500  0.61700  1.0000
  Nb  Nb1       1.0  0.59800  0.19700  0.40200  1.0000
  Nb  Nb2       1.0  0.20500  0.80300  0.40200  1.0000
  Nb  Nb3       1.0  0.59800  0.80300  0.40200  1.0000
  Nb  Nb4       1.0  0.59800  0.19700  0.79500  1.0000
  Se  Se1       1.0  0.36800  0.73700  0.10500  1.0000
  Se  Se2       1.0  0.36800  0.26300  0.63200  1.0000
  Se  Se3       1.0  0.89500  0.26300  0.63200  1.0000
  Se  Se4       1.0  0.36800  0.73700  0.63200  1.0000
