data_image0
_chemical_formula_structural       Mn4Si4Yb4
_chemical_formula_sum              "Mn4 Si4 Yb4"
_cell_length_a       7.12687
_cell_length_b       4.18555
_cell_length_c       7.25474
_cell_angle_alpha    90
_cell_angle_beta     90
_cell_angle_gamma    90

_space_group_name_H-M_alt    "P 1"
_space_group_IT_number       1

loop_
  _space_group_symop_operation_xyz
  'x, y, z'

loop_
  _atom_site_type_symbol
  _atom_site_label
  _atom_site_symmetry_multiplicity
  _atom_site_fract_x
  _atom_site_fract_y
  _atom_site_fract_z
  _atom_site_occupancy
  Mn  Mn1       1.0  0.13300  0.25000  0.06060  1.0000
  Mn  Mn2       1.0  0.63300  0.25000  0.43900  1.0000
  Mn  Mn3       1.0  0.36700  0.75000  0.56100  1.0000
  Mn  Mn4       1.0  0.86700  0.75000  0.93900  1.0000
  Si  Si1       1.0  0.80000  0.25000  0.11200  1.0000
  Si  Si2       1.0  0.30000  0.25000  0.38800  1.0000
  Si  Si3       1.0  0.70000  0.75000  0.61200  1.0000
  Si  Si4       1.0  0.20000  0.75000  0.88800  1.0000
  Yb  Yb1       1.0  0.49600  0.75000  0.17700  1.0000
  Yb  Yb2       1.0  0.99600  0.75000  0.32300  1.0000
  Yb  Yb3       1.0  0.00362  0.25000  0.67700  1.0000
  Yb  Yb4       1.0  0.50400  0.25000  0.82300  1.0000
