data_image0
_chemical_formula_structural       O8Ta2Yb2
_chemical_formula_sum              "O8 Ta2 Yb2"
_cell_length_a       5.06009
_cell_length_b       5.33194
_cell_length_c       6.39308
_cell_angle_alpha    112.663
_cell_angle_beta     111.245
_cell_angle_gamma    94.5938

_space_group_name_H-M_alt    "P 1"
_space_group_IT_number       1

loop_
  _space_group_symop_operation_xyz
  'x, y, z'

loop_
  _atom_site_type_symbol
  _atom_site_label
  _atom_site_symmetry_multiplicity
  _atom_site_fract_x
  _atom_site_fract_y
  _atom_site_fract_z
  _atom_site_occupancy
  O   O1        1.0  0.79800  0.10700  0.06240  1.0000
  O   O2        1.0  0.26500  0.45600  0.06240  1.0000
  O   O3        1.0  0.44700  0.23800  0.44500  1.0000
  O   O4        1.0  0.99800  0.70700  0.44500  1.0000
  O   O5        1.0  0.00174  0.29300  0.55500  1.0000
  O   O6        1.0  0.55300  0.76200  0.55500  1.0000
  O   O7        1.0  0.73500  0.54400  0.93800  1.0000
  O   O8        1.0  0.20200  0.89300  0.93800  1.0000
  Ta  Ta1       1.0  0.14600  0.39600  0.29300  1.0000
  Ta  Ta2       1.0  0.85400  0.60400  0.70700  1.0000
  Yb  Yb1       1.0  0.62200  0.87200  0.24400  1.0000
  Yb  Yb2       1.0  0.37800  0.12800  0.75600  1.0000
