data_image0
_chemical_formula_structural       Cu2Se6Tl2Zr2
_chemical_formula_sum              "Cu2 Se6 Tl2 Zr2"
_cell_length_a       7.61898
_cell_length_b       3.87126
_cell_length_c       10.1952
_cell_angle_alpha    90
_cell_angle_beta     90
_cell_angle_gamma    104.718

_space_group_name_H-M_alt    "P 1"
_space_group_IT_number       1

loop_
  _space_group_symop_operation_xyz
  'x, y, z'

loop_
  _atom_site_type_symbol
  _atom_site_label
  _atom_site_symmetry_multiplicity
  _atom_site_fract_x
  _atom_site_fract_y
  _atom_site_fract_z
  _atom_site_occupancy
  Cu  Cu1       1.0  0.92800  0.46400  0.25000  1.0000
  Cu  Cu2       1.0  0.07150  0.53600  0.75000  1.0000
  Se  Se1       1.0  0.74700  0.37400  0.05070  1.0000
  Se  Se2       1.0  0.13500  0.06740  0.25000  1.0000
  Se  Se3       1.0  0.74700  0.37400  0.44900  1.0000
  Se  Se4       1.0  0.25300  0.62600  0.55100  1.0000
  Se  Se5       1.0  0.86500  0.93300  0.75000  1.0000
  Se  Se6       1.0  0.25300  0.62600  0.94900  1.0000
  Tl  Tl1       1.0  0.50100  0.75100  0.25000  1.0000
  Tl  Tl2       1.0  0.49900  0.24900  0.75000  1.0000
  Zr  Zr1       1.0  0.00000  0.00000  0.00000  1.0000
  Zr  Zr2       1.0  0.00000  0.00000  0.50000  1.0000
