data_image0
_chemical_formula_structural       Cr3O8Rb
_chemical_formula_sum              "Cr3 O8 Rb1"
_cell_length_a       5.0523
_cell_length_b       5.0523
_cell_length_c       7.80094
_cell_angle_alpha    95.0558
_cell_angle_beta     95.0558
_cell_angle_gamma    65.3748

_space_group_name_H-M_alt    "P 1"
_space_group_IT_number       1

loop_
  _space_group_symop_operation_xyz
  'x, y, z'

loop_
  _atom_site_type_symbol
  _atom_site_label
  _atom_site_symmetry_multiplicity
  _atom_site_fract_x
  _atom_site_fract_y
  _atom_site_fract_z
  _atom_site_occupancy
  Cr  Cr1       1.0  0.62100  0.62100  0.29700  1.0000
  Cr  Cr2       1.0  0.00000  0.00000  0.50000  1.0000
  Cr  Cr3       1.0  0.37900  0.37900  0.70300  1.0000
  O   O1        1.0  0.67900  0.67900  0.10500  1.0000
  O   O2        1.0  0.76100  0.25800  0.31600  1.0000
  O   O3        1.0  0.25800  0.76100  0.31600  1.0000
  O   O4        1.0  0.76900  0.76900  0.45200  1.0000
  O   O5        1.0  0.23100  0.23100  0.54800  1.0000
  O   O6        1.0  0.74200  0.23900  0.68400  1.0000
  O   O7        1.0  0.23900  0.74200  0.68400  1.0000
  O   O8        1.0  0.32100  0.32100  0.89500  1.0000
  Rb  Rb1       1.0  0.00000  0.00000  0.00000  1.0000
