data_image0
_chemical_formula_structural       Ag4S6Te2
_chemical_formula_sum              "Ag4 S6 Te2"
_cell_length_a       6.76451
_cell_length_b       6.76451
_cell_length_c       7.89272
_cell_angle_alpha    102.658
_cell_angle_beta     102.658
_cell_angle_gamma    118.594

_space_group_name_H-M_alt    "P 1"
_space_group_IT_number       1

loop_
  _space_group_symop_operation_xyz
  'x, y, z'

loop_
  _atom_site_type_symbol
  _atom_site_label
  _atom_site_symmetry_multiplicity
  _atom_site_fract_x
  _atom_site_fract_y
  _atom_site_fract_z
  _atom_site_occupancy
  Ag  Ag1       1.0  0.26500  0.16100  0.08530  1.0000
  Ag  Ag2       1.0  0.93700  0.49100  0.12500  1.0000
  Ag  Ag3       1.0  0.16100  0.26500  0.58500  1.0000
  Ag  Ag4       1.0  0.49100  0.93700  0.62500  1.0000
  S   S1        1.0  0.41500  0.49900  0.40500  1.0000
  S   S2        1.0  0.05910  0.80800  0.44500  1.0000
  S   S3        1.0  0.75500  0.21400  0.47700  1.0000
  S   S4        1.0  0.49900  0.41500  0.90500  1.0000
  S   S5        1.0  0.80800  0.05910  0.94500  1.0000
  S   S6        1.0  0.21400  0.75500  0.97700  1.0000
  Te  Te1       1.0  0.59600  0.80400  0.10200  1.0000
  Te  Te2       1.0  0.80400  0.59600  0.60200  1.0000
