data_image0
_chemical_formula_structural       Cu4Ge2S6
_chemical_formula_sum              "Cu4 Ge2 S6"
_cell_length_a       6.4843
_cell_length_b       6.46012
_cell_length_c       6.51356
_cell_angle_alpha    60.271
_cell_angle_beta     99.2105
_cell_angle_gamma    108.831

_space_group_name_H-M_alt    "P 1"
_space_group_IT_number       1

loop_
  _space_group_symop_operation_xyz
  'x, y, z'

loop_
  _atom_site_type_symbol
  _atom_site_label
  _atom_site_symmetry_multiplicity
  _atom_site_fract_x
  _atom_site_fract_y
  _atom_site_fract_z
  _atom_site_occupancy
  Cu  Cu1       1.0  0.36000  0.02750  0.17300  1.0000
  Cu  Cu2       1.0  0.35900  0.37200  0.49500  1.0000
  Cu  Cu3       1.0  0.85900  0.86700  0.50500  1.0000
  Cu  Cu4       1.0  0.86000  0.20000  0.82700  1.0000
  Ge  Ge1       1.0  0.88000  0.55100  0.17400  1.0000
  Ge  Ge2       1.0  0.38000  0.72500  0.82600  1.0000
  S   S1        1.0  0.49400  0.41200  0.16600  1.0000
  S   S2        1.0  0.98500  0.91900  0.16800  1.0000
  S   S3        1.0  0.98700  0.24900  0.49400  1.0000
  S   S4        1.0  0.48700  0.74300  0.50600  1.0000
  S   S5        1.0  0.48500  0.08760  0.83200  1.0000
  S   S6        1.0  0.99400  0.57800  0.83400  1.0000
