data_image0
_chemical_formula_structural       Fe4Hf4P4
_chemical_formula_sum              "Fe4 Hf4 P4"
_cell_length_a       6.22399
_cell_length_b       3.72616
_cell_length_c       7.02661
_cell_angle_alpha    90
_cell_angle_beta     90
_cell_angle_gamma    90

_space_group_name_H-M_alt    "P 1"
_space_group_IT_number       1

loop_
  _space_group_symop_operation_xyz
  'x, y, z'

loop_
  _atom_site_type_symbol
  _atom_site_label
  _atom_site_symmetry_multiplicity
  _atom_site_fract_x
  _atom_site_fract_y
  _atom_site_fract_z
  _atom_site_occupancy
  Fe  Fe1       1.0  0.35100  0.75000  0.06190  1.0000
  Fe  Fe2       1.0  0.85100  0.75000  0.43800  1.0000
  Fe  Fe3       1.0  0.14900  0.25000  0.56200  1.0000
  Fe  Fe4       1.0  0.64900  0.25000  0.93800  1.0000
  Hf  Hf1       1.0  0.01740  0.25000  0.18500  1.0000
  Hf  Hf2       1.0  0.51700  0.25000  0.31500  1.0000
  Hf  Hf3       1.0  0.48300  0.75000  0.68500  1.0000
  Hf  Hf4       1.0  0.98300  0.75000  0.81500  1.0000
  P   P1        1.0  0.72000  0.75000  0.11500  1.0000
  P   P2        1.0  0.22000  0.75000  0.38500  1.0000
  P   P3        1.0  0.78000  0.25000  0.61500  1.0000
  P   P4        1.0  0.28000  0.25000  0.88500  1.0000
