data_image0
_chemical_formula_structural       Cu6K2S4
_chemical_formula_sum              "Cu6 K2 S4"
_cell_length_a       3.89875
_cell_length_b       7.56854
_cell_length_c       8.23929
_cell_angle_alpha    112.639
_cell_angle_beta     90
_cell_angle_gamma    104.926

_space_group_name_H-M_alt    "P 1"
_space_group_IT_number       1

loop_
  _space_group_symop_operation_xyz
  'x, y, z'

loop_
  _atom_site_type_symbol
  _atom_site_label
  _atom_site_symmetry_multiplicity
  _atom_site_fract_x
  _atom_site_fract_y
  _atom_site_fract_z
  _atom_site_occupancy
  Cu  Cu1       1.0  0.40500  0.81100  0.35900  1.0000
  Cu  Cu2       1.0  0.06200  0.12400  0.40800  1.0000
  Cu  Cu3       1.0  0.68800  0.37700  0.42100  1.0000
  Cu  Cu4       1.0  0.31200  0.62300  0.57900  1.0000
  Cu  Cu5       1.0  0.93800  0.87600  0.59200  1.0000
  Cu  Cu6       1.0  0.59500  0.18900  0.64100  1.0000
  K   K1        1.0  0.13500  0.27100  0.04550  1.0000
  K   K2        1.0  0.86500  0.72900  0.95500  1.0000
  S   S1        1.0  0.52100  0.04140  0.23700  1.0000
  S   S2        1.0  0.80600  0.61200  0.31100  1.0000
  S   S3        1.0  0.19400  0.38800  0.68900  1.0000
  S   S4        1.0  0.47900  0.95900  0.76300  1.0000
