data_image0
_chemical_formula_structural       Ga10Pd2
_chemical_formula_sum              "Ga10 Pd2"
_cell_length_a       6.48788
_cell_length_b       6.48788
_cell_length_c       6.81433
_cell_angle_alpha    118.428
_cell_angle_beta     118.428
_cell_angle_gamma    90

_space_group_name_H-M_alt    "P 1"
_space_group_IT_number       1

loop_
  _space_group_symop_operation_xyz
  'x, y, z'

loop_
  _atom_site_type_symbol
  _atom_site_label
  _atom_site_symmetry_multiplicity
  _atom_site_fract_x
  _atom_site_fract_y
  _atom_site_fract_z
  _atom_site_occupancy
  Ga  Ga1       1.0  0.00000  0.00000  0.00000  1.0000
  Ga  Ga2       1.0  0.50000  0.50000  0.00000  1.0000
  Ga  Ga3       1.0  0.49400  0.28500  0.27900  1.0000
  Ga  Ga4       1.0  0.99400  0.49400  0.27900  1.0000
  Ga  Ga5       1.0  0.28500  0.78500  0.27900  1.0000
  Ga  Ga6       1.0  0.78500  0.99400  0.27900  1.0000
  Ga  Ga7       1.0  0.21500  0.00627  0.72100  1.0000
  Ga  Ga8       1.0  0.71500  0.21500  0.72100  1.0000
  Ga  Ga9       1.0  0.00627  0.50600  0.72100  1.0000
  Ga  Ga10      1.0  0.50600  0.71500  0.72100  1.0000
  Pd  Pd1       1.0  0.25000  0.25000  0.50000  1.0000
  Pd  Pd2       1.0  0.75000  0.75000  0.50000  1.0000
