data_image0
_chemical_formula_structural       Er8Pt4
_chemical_formula_sum              "Er8 Pt4"
_cell_length_a       7.10816
_cell_length_b       4.71598
_cell_length_c       8.63099
_cell_angle_alpha    90
_cell_angle_beta     90
_cell_angle_gamma    90

_space_group_name_H-M_alt    "P 1"
_space_group_IT_number       1

loop_
  _space_group_symop_operation_xyz
  'x, y, z'

loop_
  _atom_site_type_symbol
  _atom_site_label
  _atom_site_symmetry_multiplicity
  _atom_site_fract_x
  _atom_site_fract_y
  _atom_site_fract_z
  _atom_site_occupancy
  Er  Er1       1.0  0.85500  0.25000  0.07970  1.0000
  Er  Er2       1.0  0.51200  0.75000  0.16900  1.0000
  Er  Er3       1.0  0.01170  0.75000  0.33100  1.0000
  Er  Er4       1.0  0.35500  0.25000  0.42000  1.0000
  Er  Er5       1.0  0.64500  0.75000  0.58000  1.0000
  Er  Er6       1.0  0.98800  0.25000  0.66900  1.0000
  Er  Er7       1.0  0.48800  0.25000  0.83100  1.0000
  Er  Er8       1.0  0.14500  0.75000  0.92000  1.0000
  Pt  Pt1       1.0  0.25500  0.25000  0.09390  1.0000
  Pt  Pt2       1.0  0.75500  0.25000  0.40600  1.0000
  Pt  Pt3       1.0  0.24500  0.75000  0.59400  1.0000
  Pt  Pt4       1.0  0.74500  0.75000  0.90600  1.0000
