data_image0
_chemical_formula_structural       In2Nb2O8
_chemical_formula_sum              "In2 Nb2 O8"
_cell_length_a       5.1731
_cell_length_b       5.81554
_cell_length_c       4.86687
_cell_angle_alpha    90
_cell_angle_beta     90.9109
_cell_angle_gamma    90

_space_group_name_H-M_alt    "P 1"
_space_group_IT_number       1

loop_
  _space_group_symop_operation_xyz
  'x, y, z'

loop_
  _atom_site_type_symbol
  _atom_site_label
  _atom_site_symmetry_multiplicity
  _atom_site_fract_x
  _atom_site_fract_y
  _atom_site_fract_z
  _atom_site_occupancy
  In  In1       1.0  0.75000  0.68200  0.50000  1.0000
  In  In2       1.0  0.25000  0.31800  0.50000  1.0000
  Nb  Nb1       1.0  0.75000  0.18100  0.00000  1.0000
  Nb  Nb2       1.0  0.25000  0.81900  0.00000  1.0000
  O   O1        1.0  0.93800  0.90000  0.21700  1.0000
  O   O2        1.0  0.43800  0.10000  0.21700  1.0000
  O   O3        1.0  0.90300  0.38600  0.26000  1.0000
  O   O4        1.0  0.40300  0.61400  0.26000  1.0000
  O   O5        1.0  0.09660  0.61400  0.74000  1.0000
  O   O6        1.0  0.59700  0.38600  0.74000  1.0000
  O   O7        1.0  0.56200  0.90000  0.78300  1.0000
  O   O8        1.0  0.06190  0.10000  0.78300  1.0000
