data_image0
_chemical_formula_structural       F8Mg2Sm2
_chemical_formula_sum              "F8 Mg2 Sm2"
_cell_length_a       3.87628
_cell_length_b       5.54172
_cell_length_c       7.44854
_cell_angle_alpha    90
_cell_angle_beta     74.9178
_cell_angle_gamma    90

_space_group_name_H-M_alt    "P 1"
_space_group_IT_number       1

loop_
  _space_group_symop_operation_xyz
  'x, y, z'

loop_
  _atom_site_type_symbol
  _atom_site_label
  _atom_site_symmetry_multiplicity
  _atom_site_fract_x
  _atom_site_fract_y
  _atom_site_fract_z
  _atom_site_occupancy
  F   F1        1.0  0.00000  0.00000  0.00000  1.0000
  F   F2        1.0  0.00000  0.50000  0.00000  1.0000
  F   F3        1.0  0.38600  0.25000  0.22900  1.0000
  F   F4        1.0  0.80700  0.00000  0.38500  1.0000
  F   F5        1.0  0.80700  0.50000  0.38500  1.0000
  F   F6        1.0  0.19300  0.00036  0.61500  1.0000
  F   F7        1.0  0.19300  0.50000  0.61500  1.0000
  F   F8        1.0  0.61400  0.75000  0.77100  1.0000
  Mg  Mg1       1.0  0.91300  0.25000  0.17400  1.0000
  Mg  Mg2       1.0  0.08720  0.75000  0.82600  1.0000
  Sm  Sm1       1.0  0.33500  0.75000  0.33100  1.0000
  Sm  Sm2       1.0  0.66500  0.25000  0.66900  1.0000
