data_image0
_chemical_formula_structural       Dy4Pd4Sn4
_chemical_formula_sum              "Dy4 Pd4 Sn4"
_cell_length_a       7.19692
_cell_length_b       4.63083
_cell_length_c       7.9565
_cell_angle_alpha    90
_cell_angle_beta     90
_cell_angle_gamma    90

_space_group_name_H-M_alt    "P 1"
_space_group_IT_number       1

loop_
  _space_group_symop_operation_xyz
  'x, y, z'

loop_
  _atom_site_type_symbol
  _atom_site_label
  _atom_site_symmetry_multiplicity
  _atom_site_fract_x
  _atom_site_fract_y
  _atom_site_fract_z
  _atom_site_occupancy
  Dy  Dy1       1.0  0.50900  0.75000  0.20600  1.0000
  Dy  Dy2       1.0  0.00915  0.75000  0.29400  1.0000
  Dy  Dy3       1.0  0.99100  0.25000  0.70600  1.0000
  Dy  Dy4       1.0  0.49100  0.25000  0.79400  1.0000
  Pd  Pd1       1.0  0.20500  0.25000  0.08440  1.0000
  Pd  Pd2       1.0  0.70500  0.25000  0.41600  1.0000
  Pd  Pd3       1.0  0.29500  0.75000  0.58400  1.0000
  Pd  Pd4       1.0  0.79500  0.75000  0.91600  1.0000
  Sn  Sn1       1.0  0.80500  0.25000  0.08730  1.0000
  Sn  Sn2       1.0  0.30500  0.25000  0.41300  1.0000
  Sn  Sn3       1.0  0.69500  0.75000  0.58700  1.0000
  Sn  Sn4       1.0  0.19500  0.75000  0.91300  1.0000
