data_image0
_chemical_formula_structural       Gd4Ni4Sn4
_chemical_formula_sum              "Gd4 Ni4 Sn4"
_cell_length_a       7.23024
_cell_length_b       4.49493
_cell_length_c       7.6905
_cell_angle_alpha    90
_cell_angle_beta     90
_cell_angle_gamma    90

_space_group_name_H-M_alt    "P 1"
_space_group_IT_number       1

loop_
  _space_group_symop_operation_xyz
  'x, y, z'

loop_
  _atom_site_type_symbol
  _atom_site_label
  _atom_site_symmetry_multiplicity
  _atom_site_fract_x
  _atom_site_fract_y
  _atom_site_fract_z
  _atom_site_occupancy
  Gd  Gd1       1.0  0.51400  0.75000  0.20200  1.0000
  Gd  Gd2       1.0  0.01440  0.75000  0.29800  1.0000
  Gd  Gd3       1.0  0.98600  0.25000  0.70200  1.0000
  Gd  Gd4       1.0  0.48600  0.25000  0.79800  1.0000
  Ni  Ni1       1.0  0.19900  0.25000  0.08630  1.0000
  Ni  Ni2       1.0  0.69900  0.25000  0.41400  1.0000
  Ni  Ni3       1.0  0.30100  0.75000  0.58600  1.0000
  Ni  Ni4       1.0  0.80100  0.75000  0.91400  1.0000
  Sn  Sn1       1.0  0.81000  0.25000  0.08630  1.0000
  Sn  Sn2       1.0  0.31000  0.25000  0.41400  1.0000
  Sn  Sn3       1.0  0.69000  0.75000  0.58600  1.0000
  Sn  Sn4       1.0  0.19000  0.75000  0.91400  1.0000
