data_image0
_chemical_formula_structural       Nb2O8Y2
_chemical_formula_sum              "Nb2 O8 Y2"
_cell_length_a       5.09423
_cell_length_b       5.30888
_cell_length_c       6.52991
_cell_angle_alpha    112.052
_cell_angle_beta     110.959
_cell_angle_gamma    94.5664

_space_group_name_H-M_alt    "P 1"
_space_group_IT_number       1

loop_
  _space_group_symop_operation_xyz
  'x, y, z'

loop_
  _atom_site_type_symbol
  _atom_site_label
  _atom_site_symmetry_multiplicity
  _atom_site_fract_x
  _atom_site_fract_y
  _atom_site_fract_z
  _atom_site_occupancy
  Nb  Nb1       1.0  0.14400  0.89400  0.28800  1.0000
  Nb  Nb2       1.0  0.85600  0.10600  0.71200  1.0000
  O   O1        1.0  0.78800  0.62800  0.07610  1.0000
  O   O2        1.0  0.28800  0.94800  0.07610  1.0000
  O   O3        1.0  0.00803  0.21700  0.43700  1.0000
  O   O4        1.0  0.42900  0.72000  0.43700  1.0000
  O   O5        1.0  0.57100  0.28000  0.56300  1.0000
  O   O6        1.0  0.99200  0.78300  0.56300  1.0000
  O   O7        1.0  0.71200  0.05230  0.92400  1.0000
  O   O8        1.0  0.21200  0.37200  0.92400  1.0000
  Y   Y1        1.0  0.62100  0.37100  0.24200  1.0000
  Y   Y2        1.0  0.37900  0.62900  0.75800  1.0000
