data_image0
_chemical_formula_structural       K4Te6U2
_chemical_formula_sum              "K4 Te6 U2"
_cell_length_a       8.09169
_cell_length_b       8.09221
_cell_length_c       8.59233
_cell_angle_alpha    99.1593
_cell_angle_beta     108.565
_cell_angle_gamma    60.0021

_space_group_name_H-M_alt    "P 1"
_space_group_IT_number       1

loop_
  _space_group_symop_operation_xyz
  'x, y, z'

loop_
  _atom_site_type_symbol
  _atom_site_label
  _atom_site_symmetry_multiplicity
  _atom_site_fract_x
  _atom_site_fract_y
  _atom_site_fract_z
  _atom_site_occupancy
  K   K1        1.0  0.50000  0.00000  0.00000  1.0000
  K   K2        1.0  0.65500  0.69000  0.50000  1.0000
  K   K3        1.0  0.34500  0.31000  0.50000  1.0000
  K   K4        1.0  0.00000  0.00000  0.50000  1.0000
  Te  Te1       1.0  0.20300  0.00000  0.21000  1.0000
  Te  Te2       1.0  0.94200  0.63100  0.21300  1.0000
  Te  Te3       1.0  0.57200  0.36900  0.21300  1.0000
  Te  Te4       1.0  0.42800  0.63100  0.78700  1.0000
  Te  Te5       1.0  0.05820  0.36900  0.78700  1.0000
  Te  Te6       1.0  0.79700  0.00000  0.79000  1.0000
  U   U1        1.0  0.83200  0.33600  0.00000  1.0000
  U   U2        1.0  0.16800  0.66400  0.00000  1.0000
