data_image0
_chemical_formula_structural       Hf4Pt4Si4
_chemical_formula_sum              "Hf4 Pt4 Si4"
_cell_length_a       6.58878
_cell_length_b       3.90573
_cell_length_c       7.57142
_cell_angle_alpha    90
_cell_angle_beta     90
_cell_angle_gamma    90

_space_group_name_H-M_alt    "P 1"
_space_group_IT_number       1

loop_
  _space_group_symop_operation_xyz
  'x, y, z'

loop_
  _atom_site_type_symbol
  _atom_site_label
  _atom_site_symmetry_multiplicity
  _atom_site_fract_x
  _atom_site_fract_y
  _atom_site_fract_z
  _atom_site_occupancy
  Hf  Hf1       1.0  0.02600  0.25000  0.17700  1.0000
  Hf  Hf2       1.0  0.52600  0.25000  0.32300  1.0000
  Hf  Hf3       1.0  0.47400  0.75000  0.67700  1.0000
  Hf  Hf4       1.0  0.97400  0.75000  0.82300  1.0000
  Pt  Pt1       1.0  0.35400  0.75000  0.06520  1.0000
  Pt  Pt2       1.0  0.85400  0.75000  0.43500  1.0000
  Pt  Pt3       1.0  0.14600  0.25000  0.56500  1.0000
  Pt  Pt4       1.0  0.64600  0.25000  0.93500  1.0000
  Si  Si1       1.0  0.74000  0.75000  0.12300  1.0000
  Si  Si2       1.0  0.24000  0.75000  0.37700  1.0000
  Si  Si3       1.0  0.76000  0.25000  0.62300  1.0000
  Si  Si4       1.0  0.26000  0.25000  0.87700  1.0000
