data_image0
_chemical_formula_structural       Gd8Pt4
_chemical_formula_sum              "Gd8 Pt4"
_cell_length_a       7.19037
_cell_length_b       4.81291
_cell_length_c       8.85515
_cell_angle_alpha    90
_cell_angle_beta     90
_cell_angle_gamma    90

_space_group_name_H-M_alt    "P 1"
_space_group_IT_number       1

loop_
  _space_group_symop_operation_xyz
  'x, y, z'

loop_
  _atom_site_type_symbol
  _atom_site_label
  _atom_site_symmetry_multiplicity
  _atom_site_fract_x
  _atom_site_fract_y
  _atom_site_fract_z
  _atom_site_occupancy
  Gd  Gd1       1.0  0.85600  0.25000  0.08250  1.0000
  Gd  Gd2       1.0  0.50900  0.75000  0.16900  1.0000
  Gd  Gd3       1.0  0.00930  0.75000  0.33100  1.0000
  Gd  Gd4       1.0  0.35600  0.25000  0.41700  1.0000
  Gd  Gd5       1.0  0.64400  0.75000  0.58300  1.0000
  Gd  Gd6       1.0  0.99100  0.25000  0.66900  1.0000
  Gd  Gd7       1.0  0.49100  0.25000  0.83100  1.0000
  Gd  Gd8       1.0  0.14400  0.75000  0.91700  1.0000
  Pt  Pt1       1.0  0.25900  0.25000  0.09200  1.0000
  Pt  Pt2       1.0  0.75900  0.25000  0.40800  1.0000
  Pt  Pt3       1.0  0.24100  0.75000  0.59200  1.0000
  Pt  Pt4       1.0  0.74100  0.75000  0.90800  1.0000
