data_image0
_chemical_formula_structural       Hf4Pd4Si4
_chemical_formula_sum              "Hf4 Pd4 Si4"
_cell_length_a       6.58448
_cell_length_b       3.878
_cell_length_c       7.60312
_cell_angle_alpha    90
_cell_angle_beta     90
_cell_angle_gamma    90

_space_group_name_H-M_alt    "P 1"
_space_group_IT_number       1

loop_
  _space_group_symop_operation_xyz
  'x, y, z'

loop_
  _atom_site_type_symbol
  _atom_site_label
  _atom_site_symmetry_multiplicity
  _atom_site_fract_x
  _atom_site_fract_y
  _atom_site_fract_z
  _atom_site_occupancy
  Hf  Hf1       1.0  0.02820  0.25000  0.17900  1.0000
  Hf  Hf2       1.0  0.52800  0.25000  0.32100  1.0000
  Hf  Hf3       1.0  0.47200  0.75000  0.67900  1.0000
  Hf  Hf4       1.0  0.97200  0.75000  0.82100  1.0000
  Pd  Pd1       1.0  0.35700  0.75000  0.06200  1.0000
  Pd  Pd2       1.0  0.85700  0.75000  0.43800  1.0000
  Pd  Pd3       1.0  0.14300  0.25000  0.56200  1.0000
  Pd  Pd4       1.0  0.64300  0.25000  0.93800  1.0000
  Si  Si1       1.0  0.74200  0.75000  0.12500  1.0000
  Si  Si2       1.0  0.24200  0.75000  0.37500  1.0000
  Si  Si3       1.0  0.75800  0.25000  0.62500  1.0000
  Si  Si4       1.0  0.25800  0.25000  0.87500  1.0000
