data_image0
_chemical_formula_structural       Gd4Pd4Sn4
_chemical_formula_sum              "Gd4 Pd4 Sn4"
_cell_length_a       7.28425
_cell_length_b       4.65444
_cell_length_c       7.9661
_cell_angle_alpha    90
_cell_angle_beta     90
_cell_angle_gamma    90

_space_group_name_H-M_alt    "P 1"
_space_group_IT_number       1

loop_
  _space_group_symop_operation_xyz
  'x, y, z'

loop_
  _atom_site_type_symbol
  _atom_site_label
  _atom_site_symmetry_multiplicity
  _atom_site_fract_x
  _atom_site_fract_y
  _atom_site_fract_z
  _atom_site_occupancy
  Gd  Gd1       1.0  0.50900  0.75000  0.20500  1.0000
  Gd  Gd2       1.0  0.00912  0.75000  0.29500  1.0000
  Gd  Gd3       1.0  0.99100  0.25000  0.70500  1.0000
  Gd  Gd4       1.0  0.49100  0.25000  0.79500  1.0000
  Pd  Pd1       1.0  0.20300  0.25000  0.08480  1.0000
  Pd  Pd2       1.0  0.70300  0.25000  0.41500  1.0000
  Pd  Pd3       1.0  0.29700  0.75000  0.58500  1.0000
  Pd  Pd4       1.0  0.79700  0.75000  0.91500  1.0000
  Sn  Sn1       1.0  0.80600  0.25000  0.08710  1.0000
  Sn  Sn2       1.0  0.30600  0.25000  0.41300  1.0000
  Sn  Sn3       1.0  0.69400  0.75000  0.58700  1.0000
  Sn  Sn4       1.0  0.19400  0.75000  0.91300  1.0000
