data_image0
_chemical_formula_structural       Al10Mo2
_chemical_formula_sum              "Al10 Mo2"
_cell_length_a       4.95055
_cell_length_b       4.95055
_cell_length_c       9.21624
_cell_angle_alpha    90
_cell_angle_beta     105.58
_cell_angle_gamma    60

_space_group_name_H-M_alt    "P 1"
_space_group_IT_number       1

loop_
  _space_group_symop_operation_xyz
  'x, y, z'

loop_
  _atom_site_type_symbol
  _atom_site_label
  _atom_site_symmetry_multiplicity
  _atom_site_fract_x
  _atom_site_fract_y
  _atom_site_fract_z
  _atom_site_occupancy
  Al  Al1       1.0  0.33800  0.33100  0.00719  1.0000
  Al  Al2       1.0  0.15500  0.25000  0.25000  1.0000
  Al  Al3       1.0  0.50000  0.59500  0.25000  1.0000
  Al  Al4       1.0  0.84500  0.90500  0.25000  1.0000
  Al  Al5       1.0  0.66200  0.16900  0.49300  1.0000
  Al  Al6       1.0  0.33800  0.83100  0.50700  1.0000
  Al  Al7       1.0  0.15500  0.09540  0.75000  1.0000
  Al  Al8       1.0  0.50000  0.40500  0.75000  1.0000
  Al  Al9       1.0  0.84500  0.75000  0.75000  1.0000
  Al  Al10      1.0  0.66200  0.66900  0.99300  1.0000
  Mo  Mo1       1.0  0.00000  0.00000  0.00000  1.0000
  Mo  Mo2       1.0  0.00000  0.50000  0.50000  1.0000
