data_image0
_chemical_formula_structural       Rh4Si4Ta4
_chemical_formula_sum              "Rh4 Si4 Ta4"
_cell_length_a       6.40867
_cell_length_b       3.76712
_cell_length_c       7.34346
_cell_angle_alpha    90
_cell_angle_beta     90
_cell_angle_gamma    90

_space_group_name_H-M_alt    "P 1"
_space_group_IT_number       1

loop_
  _space_group_symop_operation_xyz
  'x, y, z'

loop_
  _atom_site_type_symbol
  _atom_site_label
  _atom_site_symmetry_multiplicity
  _atom_site_fract_x
  _atom_site_fract_y
  _atom_site_fract_z
  _atom_site_occupancy
  Rh  Rh1       1.0  0.35500  0.75000  0.06380  1.0000
  Rh  Rh2       1.0  0.85500  0.75000  0.43600  1.0000
  Rh  Rh3       1.0  0.14500  0.25000  0.56400  1.0000
  Rh  Rh4       1.0  0.64500  0.25000  0.93600  1.0000
  Si  Si1       1.0  0.73300  0.75000  0.12500  1.0000
  Si  Si2       1.0  0.23300  0.75000  0.37500  1.0000
  Si  Si3       1.0  0.76700  0.25000  0.62500  1.0000
  Si  Si4       1.0  0.26700  0.25000  0.87500  1.0000
  Ta  Ta1       1.0  0.02600  0.25000  0.17300  1.0000
  Ta  Ta2       1.0  0.52600  0.25000  0.32700  1.0000
  Ta  Ta3       1.0  0.47400  0.75000  0.67300  1.0000
  Ta  Ta4       1.0  0.97400  0.75000  0.82700  1.0000
