data_image0
_chemical_formula_structural       Pb4Yb8
_chemical_formula_sum              "Pb4 Yb8"
_cell_length_a       7.4691
_cell_length_b       5.21403
_cell_length_c       9.57534
_cell_angle_alpha    90
_cell_angle_beta     90
_cell_angle_gamma    90

_space_group_name_H-M_alt    "P 1"
_space_group_IT_number       1

loop_
  _space_group_symop_operation_xyz
  'x, y, z'

loop_
  _atom_site_type_symbol
  _atom_site_label
  _atom_site_symmetry_multiplicity
  _atom_site_fract_x
  _atom_site_fract_y
  _atom_site_fract_z
  _atom_site_occupancy
  Pb  Pb1       1.0  0.26000  0.25000  0.10200  1.0000
  Pb  Pb2       1.0  0.76000  0.25000  0.39800  1.0000
  Pb  Pb3       1.0  0.24000  0.75000  0.60200  1.0000
  Pb  Pb4       1.0  0.74000  0.75000  0.89800  1.0000
  Yb  Yb1       1.0  0.82300  0.25000  0.07310  1.0000
  Yb  Yb2       1.0  0.52000  0.75000  0.20000  1.0000
  Yb  Yb3       1.0  0.02000  0.75000  0.30000  1.0000
  Yb  Yb4       1.0  0.32300  0.25000  0.42700  1.0000
  Yb  Yb5       1.0  0.67700  0.75000  0.57300  1.0000
  Yb  Yb6       1.0  0.98000  0.25000  0.70000  1.0000
  Yb  Yb7       1.0  0.48000  0.25000  0.80000  1.0000
  Yb  Yb8       1.0  0.17700  0.75000  0.92700  1.0000
