data_image0
_chemical_formula_structural       Pb4Sr8
_chemical_formula_sum              "Pb4 Sr8"
_cell_length_a       8.39975
_cell_length_b       5.45416
_cell_length_c       10.1915
_cell_angle_alpha    90
_cell_angle_beta     90
_cell_angle_gamma    90

_space_group_name_H-M_alt    "P 1"
_space_group_IT_number       1

loop_
  _space_group_symop_operation_xyz
  'x, y, z'

loop_
  _atom_site_type_symbol
  _atom_site_label
  _atom_site_symmetry_multiplicity
  _atom_site_fract_x
  _atom_site_fract_y
  _atom_site_fract_z
  _atom_site_occupancy
  Pb  Pb1       1.0  0.25200  0.25000  0.10500  1.0000
  Pb  Pb2       1.0  0.75200  0.25000  0.39500  1.0000
  Pb  Pb3       1.0  0.24800  0.75000  0.60500  1.0000
  Pb  Pb4       1.0  0.74800  0.75000  0.89500  1.0000
  Sr  Sr1       1.0  0.84000  0.25000  0.07300  1.0000
  Sr  Sr2       1.0  0.52000  0.75000  0.18500  1.0000
  Sr  Sr3       1.0  0.02010  0.75000  0.31500  1.0000
  Sr  Sr4       1.0  0.34000  0.25000  0.42700  1.0000
  Sr  Sr5       1.0  0.66000  0.75000  0.57300  1.0000
  Sr  Sr6       1.0  0.98000  0.25000  0.68500  1.0000
  Sr  Sr7       1.0  0.48000  0.25000  0.81500  1.0000
  Sr  Sr8       1.0  0.16000  0.75000  0.92700  1.0000
