data_image0
_chemical_formula_structural       Ag6Rb2Se4
_chemical_formula_sum              "Ag6 Rb2 Se4"
_cell_length_a       4.42337
_cell_length_b       8.64319
_cell_length_c       8.90054
_cell_angle_alpha    113.193
_cell_angle_beta     90
_cell_angle_gamma    104.826

_space_group_name_H-M_alt    "P 1"
_space_group_IT_number       1

loop_
  _space_group_symop_operation_xyz
  'x, y, z'

loop_
  _atom_site_type_symbol
  _atom_site_label
  _atom_site_symmetry_multiplicity
  _atom_site_fract_x
  _atom_site_fract_y
  _atom_site_fract_z
  _atom_site_occupancy
  Ag  Ag1       1.0  0.40800  0.81700  0.35400  1.0000
  Ag  Ag2       1.0  0.05670  0.11300  0.40100  1.0000
  Ag  Ag3       1.0  0.68800  0.37600  0.43800  1.0000
  Ag  Ag4       1.0  0.31200  0.62400  0.56200  1.0000
  Ag  Ag5       1.0  0.94300  0.88700  0.59900  1.0000
  Ag  Ag6       1.0  0.59200  0.18300  0.64600  1.0000
  Rb  Rb1       1.0  0.13700  0.27400  0.04810  1.0000
  Rb  Rb2       1.0  0.86300  0.72600  0.95200  1.0000
  Se  Se1       1.0  0.51900  0.03700  0.21300  1.0000
  Se  Se2       1.0  0.80000  0.60100  0.29800  1.0000
  Se  Se3       1.0  0.20000  0.39900  0.70200  1.0000
  Se  Se4       1.0  0.48100  0.96300  0.78700  1.0000
