data_image0
_chemical_formula_structural       Ge4Lu4Rh4
_chemical_formula_sum              "Ge4 Lu4 Rh4"
_cell_length_a       6.79074
_cell_length_b       4.27353
_cell_length_c       7.52162
_cell_angle_alpha    90
_cell_angle_beta     90
_cell_angle_gamma    90

_space_group_name_H-M_alt    "P 1"
_space_group_IT_number       1

loop_
  _space_group_symop_operation_xyz
  'x, y, z'

loop_
  _atom_site_type_symbol
  _atom_site_label
  _atom_site_symmetry_multiplicity
  _atom_site_fract_x
  _atom_site_fract_y
  _atom_site_fract_z
  _atom_site_occupancy
  Ge  Ge1       1.0  0.71600  0.75000  0.10900  1.0000
  Ge  Ge2       1.0  0.21600  0.75000  0.39100  1.0000
  Ge  Ge3       1.0  0.78400  0.25000  0.60900  1.0000
  Ge  Ge4       1.0  0.28400  0.25000  0.89100  1.0000
  Lu  Lu1       1.0  0.00553  0.25000  0.19700  1.0000
  Lu  Lu2       1.0  0.50600  0.25000  0.30300  1.0000
  Lu  Lu3       1.0  0.49400  0.75000  0.69700  1.0000
  Lu  Lu4       1.0  0.99400  0.75000  0.80300  1.0000
  Rh  Rh1       1.0  0.34300  0.75000  0.06410  1.0000
  Rh  Rh2       1.0  0.84300  0.75000  0.43600  1.0000
  Rh  Rh3       1.0  0.15700  0.25000  0.56400  1.0000
  Rh  Rh4       1.0  0.65700  0.25000  0.93600  1.0000
