data_image0
_chemical_formula_structural       K2O7SrTa2
_chemical_formula_sum              "K2 O7 Sr1 Ta2"
_cell_length_a       3.98493
_cell_length_b       3.98493
_cell_length_c       11.1944
_cell_angle_alpha    100.253
_cell_angle_beta     100.253
_cell_angle_gamma    90

_space_group_name_H-M_alt    "P 1"
_space_group_IT_number       1

loop_
  _space_group_symop_operation_xyz
  'x, y, z'

loop_
  _atom_site_type_symbol
  _atom_site_label
  _atom_site_symmetry_multiplicity
  _atom_site_fract_x
  _atom_site_fract_y
  _atom_site_fract_z
  _atom_site_occupancy
  K   K1        1.0  0.19400  0.19400  0.38800  1.0000
  K   K2        1.0  0.80600  0.80600  0.61200  1.0000
  O   O1        1.0  0.50000  0.50000  0.00000  1.0000
  O   O2        1.0  0.58800  0.08820  0.17600  1.0000
  O   O3        1.0  0.08820  0.58800  0.17600  1.0000
  O   O4        1.0  0.68400  0.68400  0.36700  1.0000
  O   O5        1.0  0.31600  0.31600  0.63300  1.0000
  O   O6        1.0  0.91200  0.41200  0.82400  1.0000
  O   O7        1.0  0.41200  0.91200  0.82400  1.0000
  Sr  Sr1       1.0  0.00000  0.00000  0.00000  1.0000
  Ta  Ta1       1.0  0.59700  0.59700  0.19500  1.0000
  Ta  Ta2       1.0  0.40300  0.40300  0.80500  1.0000
