data_image0
_chemical_formula_structural       Pd4Sm4Sn4
_chemical_formula_sum              "Pd4 Sm4 Sn4"
_cell_length_a       7.37905
_cell_length_b       4.68129
_cell_length_c       8.00315
_cell_angle_alpha    90
_cell_angle_beta     90
_cell_angle_gamma    90

_space_group_name_H-M_alt    "P 1"
_space_group_IT_number       1

loop_
  _space_group_symop_operation_xyz
  'x, y, z'

loop_
  _atom_site_type_symbol
  _atom_site_label
  _atom_site_symmetry_multiplicity
  _atom_site_fract_x
  _atom_site_fract_y
  _atom_site_fract_z
  _atom_site_occupancy
  Pd  Pd1       1.0  0.20200  0.25000  0.08440  1.0000
  Pd  Pd2       1.0  0.70200  0.25000  0.41600  1.0000
  Pd  Pd3       1.0  0.29800  0.75000  0.58400  1.0000
  Pd  Pd4       1.0  0.79800  0.75000  0.91600  1.0000
  Sm  Sm1       1.0  0.51100  0.75000  0.20400  1.0000
  Sm  Sm2       1.0  0.01100  0.75000  0.29600  1.0000
  Sm  Sm3       1.0  0.98900  0.25000  0.70400  1.0000
  Sm  Sm4       1.0  0.48900  0.25000  0.79600  1.0000
  Sn  Sn1       1.0  0.80800  0.25000  0.08720  1.0000
  Sn  Sn2       1.0  0.30800  0.25000  0.41300  1.0000
  Sn  Sn3       1.0  0.69200  0.75000  0.58700  1.0000
  Sn  Sn4       1.0  0.19200  0.75000  0.91300  1.0000
