data_image0
_chemical_formula_structural       Bi2O8V2
_chemical_formula_sum              "Bi2 O8 V2"
_cell_length_a       5.11768
_cell_length_b       5.15352
_cell_length_c       6.83541
_cell_angle_alpha    112.085
_cell_angle_beta     111.922
_cell_angle_gamma    90.1523

_space_group_name_H-M_alt    "P 1"
_space_group_IT_number       1

loop_
  _space_group_symop_operation_xyz
  'x, y, z'

loop_
  _atom_site_type_symbol
  _atom_site_label
  _atom_site_symmetry_multiplicity
  _atom_site_fract_x
  _atom_site_fract_y
  _atom_site_fract_z
  _atom_site_occupancy
  Bi  Bi1       1.0  0.87500  0.62500  0.25100  1.0000
  Bi  Bi2       1.0  0.12500  0.37500  0.74900  1.0000
  O   O1        1.0  0.43800  0.79500  0.08970  1.0000
  O   O2        1.0  0.15200  0.29500  0.08970  1.0000
  O   O3        1.0  0.70600  0.34800  0.41000  1.0000
  O   O4        1.0  0.20400  0.06200  0.41000  1.0000
  O   O5        1.0  0.79600  0.93800  0.59000  1.0000
  O   O6        1.0  0.29400  0.65200  0.59000  1.0000
  O   O7        1.0  0.84800  0.70500  0.91000  1.0000
  O   O8        1.0  0.56200  0.20500  0.91000  1.0000
  V   V1        1.0  0.37400  0.12400  0.24900  1.0000
  V   V2        1.0  0.62600  0.87600  0.75100  1.0000
