data_image0
_chemical_formula_structural       Cd4I2P6
_chemical_formula_sum              "Cd4 I2 P6"
_cell_length_a       6.26856
_cell_length_b       6.26856
_cell_length_c       7.56461
_cell_angle_alpha    96.4286
_cell_angle_beta     96.4286
_cell_angle_gamma    96.891

_space_group_name_H-M_alt    "P 1"
_space_group_IT_number       1

loop_
  _space_group_symop_operation_xyz
  'x, y, z'

loop_
  _atom_site_type_symbol
  _atom_site_label
  _atom_site_symmetry_multiplicity
  _atom_site_fract_x
  _atom_site_fract_y
  _atom_site_fract_z
  _atom_site_occupancy
  Cd  Cd1       1.0  0.85600  0.14500  0.00753  1.0000
  Cd  Cd2       1.0  0.36000  0.64900  0.07420  1.0000
  Cd  Cd3       1.0  0.14500  0.85600  0.50800  1.0000
  Cd  Cd4       1.0  0.64900  0.36000  0.57400  1.0000
  I   I1        1.0  0.87200  0.63400  0.04490  1.0000
  I   I2        1.0  0.63400  0.87200  0.54500  1.0000
  P   P1        1.0  0.44700  0.05910  0.04300  1.0000
  P   P2        1.0  0.40900  0.32000  0.25500  1.0000
  P   P3        1.0  0.09540  0.18700  0.32900  1.0000
  P   P4        1.0  0.05910  0.44700  0.54300  1.0000
  P   P5        1.0  0.32000  0.40900  0.75500  1.0000
  P   P6        1.0  0.18700  0.09540  0.82900  1.0000
