data_image0
_chemical_formula_structural       As6Br2Cd4
_chemical_formula_sum              "As6 Br2 Cd4"
_cell_length_a       6.35233
_cell_length_b       6.35233
_cell_length_c       8.09754
_cell_angle_alpha    97.6048
_cell_angle_beta     97.6048
_cell_angle_gamma    97.4349

_space_group_name_H-M_alt    "P 1"
_space_group_IT_number       1

loop_
  _space_group_symop_operation_xyz
  'x, y, z'

loop_
  _atom_site_type_symbol
  _atom_site_label
  _atom_site_symmetry_multiplicity
  _atom_site_fract_x
  _atom_site_fract_y
  _atom_site_fract_z
  _atom_site_occupancy
  As  As1       1.0  0.91900  0.82400  0.02630  1.0000
  As  As2       1.0  0.21000  0.79000  0.25000  1.0000
  As  As3       1.0  0.17600  0.08070  0.47400  1.0000
  As  As4       1.0  0.82400  0.91900  0.52600  1.0000
  As  As5       1.0  0.79000  0.21000  0.75000  1.0000
  As  As6       1.0  0.08070  0.17600  0.97400  1.0000
  Br  Br1       1.0  0.63500  0.36500  0.25000  1.0000
  Br  Br2       1.0  0.36500  0.63500  0.75000  1.0000
  Cd  Cd1       1.0  0.61000  0.91200  0.20500  1.0000
  Cd  Cd2       1.0  0.08770  0.39000  0.29500  1.0000
  Cd  Cd3       1.0  0.91200  0.61000  0.70500  1.0000
  Cd  Cd4       1.0  0.39000  0.08770  0.79500  1.0000
