data_image0
_chemical_formula_structural       Ag2Al7Gd3
_chemical_formula_sum              "Ag2 Al7 Gd3"
_cell_length_a       5.57354
_cell_length_b       5.57354
_cell_length_c       9.37647
_cell_angle_alpha    90
_cell_angle_beta     107.29
_cell_angle_gamma    60

_space_group_name_H-M_alt    "P 1"
_space_group_IT_number       1

loop_
  _space_group_symop_operation_xyz
  'x, y, z'

loop_
  _atom_site_type_symbol
  _atom_site_label
  _atom_site_symmetry_multiplicity
  _atom_site_fract_x
  _atom_site_fract_y
  _atom_site_fract_z
  _atom_site_occupancy
  Ag  Ag1       1.0  0.67100  0.66400  0.00664  1.0000
  Ag  Ag2       1.0  0.32900  0.33600  0.99300  1.0000
  Al  Al1       1.0  0.66300  0.41200  0.25100  1.0000
  Al  Al2       1.0  0.17500  0.41200  0.25100  1.0000
  Al  Al3       1.0  0.66300  0.92400  0.25100  1.0000
  Al  Al4       1.0  0.00000  0.50000  0.50000  1.0000
  Al  Al5       1.0  0.33700  0.07590  0.74900  1.0000
  Al  Al6       1.0  0.33700  0.58800  0.74900  1.0000
  Al  Al7       1.0  0.82500  0.58800  0.74900  1.0000
  Gd  Gd1       1.0  0.00000  0.00000  0.00000  1.0000
  Gd  Gd2       1.0  0.28400  0.85800  0.42600  1.0000
  Gd  Gd3       1.0  0.71600  0.14200  0.57400  1.0000
