data_image0
_chemical_formula_structural       Cd4Cl2P6
_chemical_formula_sum              "Cd4 Cl2 P6"
_cell_length_a       6.06966
_cell_length_b       6.06966
_cell_length_c       7.60371
_cell_angle_alpha    97.1829
_cell_angle_beta     97.1829
_cell_angle_gamma    96.718

_space_group_name_H-M_alt    "P 1"
_space_group_IT_number       1

loop_
  _space_group_symop_operation_xyz
  'x, y, z'

loop_
  _atom_site_type_symbol
  _atom_site_label
  _atom_site_symmetry_multiplicity
  _atom_site_fract_x
  _atom_site_fract_y
  _atom_site_fract_z
  _atom_site_occupancy
  Cd  Cd1       1.0  0.84900  0.15700  0.99300  1.0000
  Cd  Cd2       1.0  0.33400  0.64200  0.07230  1.0000
  Cd  Cd3       1.0  0.15700  0.84900  0.49300  1.0000
  Cd  Cd4       1.0  0.64200  0.33400  0.57200  1.0000
  Cl  Cl1       1.0  0.87900  0.61200  0.02950  1.0000
  Cl  Cl2       1.0  0.61200  0.87900  0.53000  1.0000
  P   P1        1.0  0.44100  0.04950  0.03210  1.0000
  P   P2        1.0  0.40700  0.31500  0.24900  1.0000
  P   P3        1.0  0.08290  0.17400  0.31500  1.0000
  P   P4        1.0  0.04950  0.44100  0.53200  1.0000
  P   P5        1.0  0.31500  0.40700  0.74900  1.0000
  P   P6        1.0  0.17400  0.08290  0.81500  1.0000
