data_image0
_chemical_formula_structural       B3Nd3Pt6
_chemical_formula_sum              "B3 Nd3 Pt6"
_cell_length_a       5.4715
_cell_length_b       5.4715
_cell_length_c       8.04127
_cell_angle_alpha    90
_cell_angle_beta     90
_cell_angle_gamma    120

_space_group_name_H-M_alt    "P 1"
_space_group_IT_number       1

loop_
  _space_group_symop_operation_xyz
  'x, y, z'

loop_
  _atom_site_type_symbol
  _atom_site_label
  _atom_site_symmetry_multiplicity
  _atom_site_fract_x
  _atom_site_fract_y
  _atom_site_fract_z
  _atom_site_occupancy
  B   B1        1.0  0.00000  0.50000  0.16700  1.0000
  B   B2        1.0  0.50000  0.00000  0.50000  1.0000
  B   B3        1.0  0.50000  0.50000  0.83300  1.0000
  Nd  Nd1       1.0  0.50000  0.00000  0.00000  1.0000
  Nd  Nd2       1.0  0.50000  0.50000  0.33300  1.0000
  Nd  Nd3       1.0  0.00000  0.50000  0.66700  1.0000
  Pt  Pt1       1.0  0.15400  0.30800  0.00000  1.0000
  Pt  Pt2       1.0  0.84600  0.69200  0.00000  1.0000
  Pt  Pt3       1.0  0.84600  0.15400  0.33300  1.0000
  Pt  Pt4       1.0  0.15400  0.84600  0.33300  1.0000
  Pt  Pt5       1.0  0.30800  0.15400  0.66700  1.0000
  Pt  Pt6       1.0  0.69200  0.84600  0.66700  1.0000
