data_image0
_chemical_formula_structural       Ga4Ho4Ni4
_chemical_formula_sum              "Ga4 Ho4 Ni4"
_cell_length_a       6.83282
_cell_length_b       4.29806
_cell_length_c       7.29875
_cell_angle_alpha    90
_cell_angle_beta     90
_cell_angle_gamma    90

_space_group_name_H-M_alt    "P 1"
_space_group_IT_number       1

loop_
  _space_group_symop_operation_xyz
  'x, y, z'

loop_
  _atom_site_type_symbol
  _atom_site_label
  _atom_site_symmetry_multiplicity
  _atom_site_fract_x
  _atom_site_fract_y
  _atom_site_fract_z
  _atom_site_occupancy
  Ga  Ga1       1.0  0.32000  0.75000  0.08010  1.0000
  Ga  Ga2       1.0  0.82000  0.75000  0.42000  1.0000
  Ga  Ga3       1.0  0.18000  0.25000  0.58000  1.0000
  Ga  Ga4       1.0  0.68000  0.25000  0.92000  1.0000
  Ho  Ho1       1.0  0.01800  0.25000  0.19700  1.0000
  Ho  Ho2       1.0  0.51800  0.25000  0.30300  1.0000
  Ho  Ho3       1.0  0.48200  0.75000  0.69700  1.0000
  Ho  Ho4       1.0  0.98200  0.75000  0.80300  1.0000
  Ni  Ni1       1.0  0.70700  0.75000  0.09150  1.0000
  Ni  Ni2       1.0  0.20700  0.75000  0.40900  1.0000
  Ni  Ni3       1.0  0.79300  0.25000  0.59100  1.0000
  Ni  Ni4       1.0  0.29300  0.25000  0.90900  1.0000
