data_image0
_chemical_formula_structural       Cu6K2Te4
_chemical_formula_sum              "Cu6 K2 Te4"
_cell_length_a       4.26945
_cell_length_b       8.47912
_cell_length_c       8.67908
_cell_angle_alpha    110.886
_cell_angle_beta     90
_cell_angle_gamma    104.582

_space_group_name_H-M_alt    "P 1"
_space_group_IT_number       1

loop_
  _space_group_symop_operation_xyz
  'x, y, z'

loop_
  _atom_site_type_symbol
  _atom_site_label
  _atom_site_symmetry_multiplicity
  _atom_site_fract_x
  _atom_site_fract_y
  _atom_site_fract_z
  _atom_site_occupancy
  Cu  Cu1       1.0  0.41700  0.83300  0.40000  1.0000
  Cu  Cu2       1.0  0.07020  0.14000  0.41700  1.0000
  Cu  Cu3       1.0  0.69600  0.39200  0.47100  1.0000
  Cu  Cu4       1.0  0.30400  0.60800  0.52900  1.0000
  Cu  Cu5       1.0  0.93000  0.86000  0.58300  1.0000
  Cu  Cu6       1.0  0.58300  0.16700  0.60000  1.0000
  K   K1        1.0  0.13400  0.26800  0.04580  1.0000
  K   K2        1.0  0.86600  0.73200  0.95400  1.0000
  Te  Te1       1.0  0.52100  0.04160  0.23800  1.0000
  Te  Te2       1.0  0.79800  0.59600  0.30400  1.0000
  Te  Te3       1.0  0.20200  0.40400  0.69600  1.0000
  Te  Te4       1.0  0.47900  0.95800  0.76200  1.0000
