data_image0
_chemical_formula_structural       Ag2Ba2Se6Y2
_chemical_formula_sum              "Ag2 Ba2 Se6 Y2"
_cell_length_a       4.28506
_cell_length_b       7.41419
_cell_length_c       10.7548
_cell_angle_alpha    90
_cell_angle_beta     90
_cell_angle_gamma    73.2033

_space_group_name_H-M_alt    "P 1"
_space_group_IT_number       1

loop_
  _space_group_symop_operation_xyz
  'x, y, z'

loop_
  _atom_site_type_symbol
  _atom_site_label
  _atom_site_symmetry_multiplicity
  _atom_site_fract_x
  _atom_site_fract_y
  _atom_site_fract_z
  _atom_site_occupancy
  Ag  Ag1       1.0  0.53200  0.93700  0.25000  1.0000
  Ag  Ag2       1.0  0.46800  0.06310  0.75000  1.0000
  Ba  Ba1       1.0  0.25000  0.50100  0.25000  1.0000
  Ba  Ba2       1.0  0.75000  0.49900  0.75000  1.0000
  Se  Se1       1.0  0.63800  0.72500  0.04890  1.0000
  Se  Se2       1.0  0.92100  0.15800  0.25000  1.0000
  Se  Se3       1.0  0.63800  0.72500  0.45100  1.0000
  Se  Se4       1.0  0.36200  0.27500  0.54900  1.0000
  Se  Se5       1.0  0.07910  0.84200  0.75000  1.0000
  Se  Se6       1.0  0.36200  0.27500  0.95100  1.0000
  Y   Y1        1.0  0.00000  0.00000  0.00000  1.0000
  Y   Y2        1.0  0.00000  0.00000  0.50000  1.0000
