data_image0
_chemical_formula_structural       Br2Cd4P6
_chemical_formula_sum              "Br2 Cd4 P6"
_cell_length_a       6.13199
_cell_length_b       6.13199
_cell_length_c       7.58255
_cell_angle_alpha    96.9227
_cell_angle_beta     96.9227
_cell_angle_gamma    96.5334

_space_group_name_H-M_alt    "P 1"
_space_group_IT_number       1

loop_
  _space_group_symop_operation_xyz
  'x, y, z'

loop_
  _atom_site_type_symbol
  _atom_site_label
  _atom_site_symmetry_multiplicity
  _atom_site_fract_x
  _atom_site_fract_y
  _atom_site_fract_z
  _atom_site_occupancy
  Br  Br1       1.0  0.87700  0.62900  0.04870  1.0000
  Br  Br2       1.0  0.62900  0.87700  0.54900  1.0000
  Cd  Cd1       1.0  0.85600  0.15000  0.00209  1.0000
  Cd  Cd2       1.0  0.35200  0.64800  0.08000  1.0000
  Cd  Cd3       1.0  0.15000  0.85600  0.50200  1.0000
  Cd  Cd4       1.0  0.64800  0.35200  0.58000  1.0000
  P   P1        1.0  0.44800  0.05680  0.04360  1.0000
  P   P2        1.0  0.41100  0.32000  0.25900  1.0000
  P   P3        1.0  0.08960  0.18500  0.32700  1.0000
  P   P4        1.0  0.05680  0.44800  0.54400  1.0000
  P   P5        1.0  0.32000  0.41100  0.75900  1.0000
  P   P6        1.0  0.18500  0.08960  0.82700  1.0000
