data_image0
_chemical_formula_structural       Au4Ca4Ga4
_chemical_formula_sum              "Au4 Ca4 Ga4"
_cell_length_a       7.32588
_cell_length_b       4.58906
_cell_length_c       7.77555
_cell_angle_alpha    90
_cell_angle_beta     90
_cell_angle_gamma    90

_space_group_name_H-M_alt    "P 1"
_space_group_IT_number       1

loop_
  _space_group_symop_operation_xyz
  'x, y, z'

loop_
  _atom_site_type_symbol
  _atom_site_label
  _atom_site_symmetry_multiplicity
  _atom_site_fract_x
  _atom_site_fract_y
  _atom_site_fract_z
  _atom_site_occupancy
  Au  Au1       1.0  0.79400  0.25000  0.09390  1.0000
  Au  Au2       1.0  0.29400  0.25000  0.40600  1.0000
  Au  Au3       1.0  0.70600  0.75000  0.59400  1.0000
  Au  Au4       1.0  0.20600  0.75000  0.90600  1.0000
  Ca  Ca1       1.0  0.49400  0.75000  0.19900  1.0000
  Ca  Ca2       1.0  0.99400  0.75000  0.30100  1.0000
  Ca  Ca3       1.0  0.00618  0.25000  0.69900  1.0000
  Ca  Ca4       1.0  0.50600  0.25000  0.80100  1.0000
  Ga  Ga1       1.0  0.18100  0.25000  0.07940  1.0000
  Ga  Ga2       1.0  0.68100  0.25000  0.42100  1.0000
  Ga  Ga3       1.0  0.31900  0.75000  0.57900  1.0000
  Ga  Ga4       1.0  0.81900  0.75000  0.92100  1.0000
