data_image0
_chemical_formula_structural       Ce4Ni4Sn4
_chemical_formula_sum              "Ce4 Ni4 Sn4"
_cell_length_a       7.63804
_cell_length_b       7.63379
_cell_length_c       4.65653
_cell_angle_alpha    90
_cell_angle_beta     90
_cell_angle_gamma    90

_space_group_name_H-M_alt    "P 1"
_space_group_IT_number       1

loop_
  _space_group_symop_operation_xyz
  'x, y, z'

loop_
  _atom_site_type_symbol
  _atom_site_label
  _atom_site_symmetry_multiplicity
  _atom_site_fract_x
  _atom_site_fract_y
  _atom_site_fract_z
  _atom_site_occupancy
  Ce  Ce1       1.0  0.02090  0.69600  0.25300  1.0000
  Ce  Ce2       1.0  0.52100  0.80400  0.25300  1.0000
  Ce  Ce3       1.0  0.47900  0.19600  0.75300  1.0000
  Ce  Ce4       1.0  0.97900  0.30400  0.75300  1.0000
  Ni  Ni1       1.0  0.81300  0.07920  0.25100  1.0000
  Ni  Ni2       1.0  0.31300  0.42100  0.25100  1.0000
  Ni  Ni3       1.0  0.68700  0.57900  0.75100  1.0000
  Ni  Ni4       1.0  0.18700  0.92100  0.75100  1.0000
  Sn  Sn1       1.0  0.18400  0.09240  0.25100  1.0000
  Sn  Sn2       1.0  0.68400  0.40800  0.25100  1.0000
  Sn  Sn3       1.0  0.31600  0.59200  0.75100  1.0000
  Sn  Sn4       1.0  0.81600  0.90800  0.75100  1.0000
