data_image0
_chemical_formula_structural       Nb4Sn8
_chemical_formula_sum              "Nb4 Sn8"
_cell_length_a       5.6898
_cell_length_b       5.71958
_cell_length_c       10.0386
_cell_angle_alpha    98.1034
_cell_angle_beta     106.463
_cell_angle_gamma    60.1721

_space_group_name_H-M_alt    "P 1"
_space_group_IT_number       1

loop_
  _space_group_symop_operation_xyz
  'x, y, z'

loop_
  _atom_site_type_symbol
  _atom_site_label
  _atom_site_symmetry_multiplicity
  _atom_site_fract_x
  _atom_site_fract_y
  _atom_site_fract_z
  _atom_site_occupancy
  Nb  Nb1       1.0  0.62300  0.50000  0.24600  1.0000
  Nb  Nb2       1.0  0.12700  0.00000  0.25400  1.0000
  Nb  Nb3       1.0  0.87300  0.00000  0.74600  1.0000
  Nb  Nb4       1.0  0.87700  0.50000  0.75400  1.0000
  Sn  Sn1       1.0  0.83100  0.33800  0.00000  1.0000
  Sn  Sn2       1.0  0.16900  0.66200  0.00000  1.0000
  Sn  Sn3       1.0  0.58300  0.00000  0.16500  1.0000
  Sn  Sn4       1.0  0.16700  0.50000  0.33500  1.0000
  Sn  Sn5       1.0  0.91900  0.16200  0.50000  1.0000
  Sn  Sn6       1.0  0.58100  0.83800  0.50000  1.0000
  Sn  Sn7       1.0  0.33300  0.50000  0.66500  1.0000
  Sn  Sn8       1.0  0.41700  0.00000  0.83500  1.0000
