data_image0
_chemical_formula_structural       As2Pb4Pd6
_chemical_formula_sum              "As2 Pb4 Pd6"
_cell_length_a       5.87014
_cell_length_b       6.94023
_cell_length_c       6.94023
_cell_angle_alpha    59.7796
_cell_angle_beta     90
_cell_angle_gamma    90

_space_group_name_H-M_alt    "P 1"
_space_group_IT_number       1

loop_
  _space_group_symop_operation_xyz
  'x, y, z'

loop_
  _atom_site_type_symbol
  _atom_site_label
  _atom_site_symmetry_multiplicity
  _atom_site_fract_x
  _atom_site_fract_y
  _atom_site_fract_z
  _atom_site_occupancy
  As  As1       1.0  0.20300  0.70700  0.29300  1.0000
  As  As2       1.0  0.70300  0.29300  0.70700  1.0000
  Pb  Pb1       1.0  0.30800  0.34300  0.01590  1.0000
  Pb  Pb2       1.0  0.80800  0.01590  0.34300  1.0000
  Pb  Pb3       1.0  0.30800  0.98400  0.65700  1.0000
  Pb  Pb4       1.0  0.80800  0.65700  0.98400  1.0000
  Pd  Pd1       1.0  0.52100  0.94700  0.05340  1.0000
  Pd  Pd2       1.0  0.50000  0.42400  0.33500  1.0000
  Pd  Pd3       1.0  0.00028  0.33500  0.42400  1.0000
  Pd  Pd4       1.0  0.50000  0.66500  0.57600  1.0000
  Pd  Pd5       1.0  0.00028  0.57600  0.66500  1.0000
  Pd  Pd6       1.0  0.02090  0.05340  0.94700  1.0000
