data_image0
_chemical_formula_structural       Lu2NiRb
_chemical_formula_sum              "Lu2 Ni1 Rb1"
_cell_length_a       5.06148
_cell_length_b       5.06148
_cell_length_c       5.06148
_cell_angle_alpha    67.0045
_cell_angle_beta     67.0045
_cell_angle_gamma    67.0045

_space_group_name_H-M_alt    "P 1"
_space_group_IT_number       1

loop_
  _space_group_symop_operation_xyz
  'x, y, z'

loop_
  _atom_site_type_symbol
  _atom_site_label
  _atom_site_symmetry_multiplicity
  _atom_site_fract_x
  _atom_site_fract_y
  _atom_site_fract_z
  _atom_site_occupancy
  Lu  Lu1       1.0  0.02130  0.02130  0.02130  1.0000
  Lu  Lu2       1.0  0.47900  0.47900  0.47900  1.0000
  Ni  Ni1       1.0  0.25300  0.25300  0.25300  1.0000
  Rb  Rb1       1.0  0.74700  0.74700  0.74700  1.0000
