data_image0
_chemical_formula_structural       Rh8Sn4
_chemical_formula_sum              "Rh8 Sn4"
_cell_length_a       5.58042
_cell_length_b       4.27159
_cell_length_c       8.11851
_cell_angle_alpha    90
_cell_angle_beta     90
_cell_angle_gamma    90

_space_group_name_H-M_alt    "P 1"
_space_group_IT_number       1

loop_
  _space_group_symop_operation_xyz
  'x, y, z'

loop_
  _atom_site_type_symbol
  _atom_site_label
  _atom_site_symmetry_multiplicity
  _atom_site_fract_x
  _atom_site_fract_y
  _atom_site_fract_z
  _atom_site_occupancy
  Rh  Rh1       1.0  0.33000  0.75000  0.07000  1.0000
  Rh  Rh2       1.0  0.04500  0.25000  0.22500  1.0000
  Rh  Rh3       1.0  0.54500  0.25000  0.27500  1.0000
  Rh  Rh4       1.0  0.83000  0.75000  0.43000  1.0000
  Rh  Rh5       1.0  0.17000  0.25000  0.57000  1.0000
  Rh  Rh6       1.0  0.45500  0.75000  0.72500  1.0000
  Rh  Rh7       1.0  0.95500  0.75000  0.77500  1.0000
  Rh  Rh8       1.0  0.67000  0.25000  0.93000  1.0000
  Sn  Sn1       1.0  0.80800  0.75000  0.10100  1.0000
  Sn  Sn2       1.0  0.30800  0.75000  0.39900  1.0000
  Sn  Sn3       1.0  0.69200  0.25000  0.60100  1.0000
  Sn  Sn4       1.0  0.19200  0.25000  0.89900  1.0000
