data_image0
_chemical_formula_structural       Ga8Hf4
_chemical_formula_sum              "Ga8 Hf4"
_cell_length_a       4.05516
_cell_length_b       4.05516
_cell_length_c       13.0732
_cell_angle_alpha    98.9223
_cell_angle_beta     98.9223
_cell_angle_gamma    90

_space_group_name_H-M_alt    "P 1"
_space_group_IT_number       1

loop_
  _space_group_symop_operation_xyz
  'x, y, z'

loop_
  _atom_site_type_symbol
  _atom_site_label
  _atom_site_symmetry_multiplicity
  _atom_site_fract_x
  _atom_site_fract_y
  _atom_site_fract_z
  _atom_site_occupancy
  Ga  Ga1       1.0  0.99900  0.49900  0.99800  1.0000
  Ga  Ga2       1.0  0.50100  0.00078  0.00157  1.0000
  Ga  Ga3       1.0  0.58800  0.58800  0.17600  1.0000
  Ga  Ga4       1.0  0.66200  0.16200  0.32400  1.0000
  Ga  Ga5       1.0  0.74900  0.74900  0.49800  1.0000
  Ga  Ga6       1.0  0.25100  0.25100  0.50200  1.0000
  Ga  Ga7       1.0  0.83800  0.33800  0.67600  1.0000
  Ga  Ga8       1.0  0.41200  0.41200  0.82400  1.0000
  Hf  Hf1       1.0  0.07570  0.07570  0.15100  1.0000
  Hf  Hf2       1.0  0.17400  0.67400  0.34900  1.0000
  Hf  Hf3       1.0  0.32600  0.82600  0.65100  1.0000
  Hf  Hf4       1.0  0.92400  0.92400  0.84900  1.0000
