data_image0
_chemical_formula_structural       Pt4Sc8
_chemical_formula_sum              "Pt4 Sc8"
_cell_length_a       6.56554
_cell_length_b       4.49
_cell_length_c       8.21604
_cell_angle_alpha    90
_cell_angle_beta     90
_cell_angle_gamma    90

_space_group_name_H-M_alt    "P 1"
_space_group_IT_number       1

loop_
  _space_group_symop_operation_xyz
  'x, y, z'

loop_
  _atom_site_type_symbol
  _atom_site_label
  _atom_site_symmetry_multiplicity
  _atom_site_fract_x
  _atom_site_fract_y
  _atom_site_fract_z
  _atom_site_occupancy
  Pt  Pt1       1.0  0.26000  0.25000  0.09950  1.0000
  Pt  Pt2       1.0  0.76000  0.25000  0.40000  1.0000
  Pt  Pt3       1.0  0.24000  0.75000  0.60000  1.0000
  Pt  Pt4       1.0  0.74000  0.75000  0.90000  1.0000
  Sc  Sc1       1.0  0.85100  0.25000  0.07510  1.0000
  Sc  Sc2       1.0  0.51500  0.75000  0.17500  1.0000
  Sc  Sc3       1.0  0.01500  0.75000  0.32500  1.0000
  Sc  Sc4       1.0  0.35100  0.25000  0.42500  1.0000
  Sc  Sc5       1.0  0.64900  0.75000  0.57500  1.0000
  Sc  Sc6       1.0  0.98500  0.25000  0.67500  1.0000
  Sc  Sc7       1.0  0.48500  0.25000  0.82500  1.0000
  Sc  Sc8       1.0  0.14900  0.75000  0.92500  1.0000
