data_image0
_chemical_formula_structural       Ga10Yb2
_chemical_formula_sum              "Ga10 Yb2"
_cell_length_a       4.29992
_cell_length_b       4.29992
_cell_length_c       13.3768
_cell_angle_alpha    99.2489
_cell_angle_beta     99.2489
_cell_angle_gamma    90

_space_group_name_H-M_alt    "P 1"
_space_group_IT_number       1

loop_
  _space_group_symop_operation_xyz
  'x, y, z'

loop_
  _atom_site_type_symbol
  _atom_site_label
  _atom_site_symmetry_multiplicity
  _atom_site_fract_x
  _atom_site_fract_y
  _atom_site_fract_z
  _atom_site_occupancy
  Ga  Ga1       1.0  0.54800  0.04750  0.09510  1.0000
  Ga  Ga2       1.0  0.04750  0.54800  0.09510  1.0000
  Ga  Ga3       1.0  0.60100  0.60100  0.20100  1.0000
  Ga  Ga4       1.0  0.69400  0.69400  0.38900  1.0000
  Ga  Ga5       1.0  0.75000  0.25000  0.50000  1.0000
  Ga  Ga6       1.0  0.25000  0.75000  0.50000  1.0000
  Ga  Ga7       1.0  0.30600  0.30600  0.61100  1.0000
  Ga  Ga8       1.0  0.39900  0.39900  0.79900  1.0000
  Ga  Ga9       1.0  0.95200  0.45200  0.90500  1.0000
  Ga  Ga10      1.0  0.45200  0.95200  0.90500  1.0000
  Yb  Yb1       1.0  0.14900  0.14900  0.29800  1.0000
  Yb  Yb2       1.0  0.85100  0.85100  0.70200  1.0000
