data_image0
_chemical_formula_structural       Mg4Tm2
_chemical_formula_sum              "Mg4 Tm2"
_cell_length_a       3.34254
_cell_length_b       8.79954
_cell_length_c       5.388
_cell_angle_alpha    90
_cell_angle_beta     90
_cell_angle_gamma    79.0515

_space_group_name_H-M_alt    "P 1"
_space_group_IT_number       1

loop_
  _space_group_symop_operation_xyz
  'x, y, z'

loop_
  _atom_site_type_symbol
  _atom_site_label
  _atom_site_symmetry_multiplicity
  _atom_site_fract_x
  _atom_site_fract_y
  _atom_site_fract_z
  _atom_site_occupancy
  Mg  Mg1       1.0  0.99500  0.00961  0.00000  1.0000
  Mg  Mg2       1.0  0.33400  0.33300  0.00000  1.0000
  Mg  Mg3       1.0  0.67000  0.66000  0.00000  1.0000
  Mg  Mg4       1.0  0.44300  0.11300  0.50000  1.0000
  Tm  Tm1       1.0  0.78200  0.43600  0.50000  1.0000
  Tm  Tm2       1.0  0.10900  0.78200  0.50000  1.0000
