data_image0
_chemical_formula_structural       Sc4Sn8
_chemical_formula_sum              "Sc4 Sn8"
_cell_length_a       15.8773
_cell_length_b       4.26125
_cell_length_c       4.26125
_cell_angle_alpha    90
_cell_angle_beta     97.712
_cell_angle_gamma    97.712

_space_group_name_H-M_alt    "P 1"
_space_group_IT_number       1

loop_
  _space_group_symop_operation_xyz
  'x, y, z'

loop_
  _atom_site_type_symbol
  _atom_site_label
  _atom_site_symmetry_multiplicity
  _atom_site_fract_x
  _atom_site_fract_y
  _atom_site_fract_z
  _atom_site_occupancy
  Sc  Sc1       1.0  0.90300  0.45200  0.20200  1.0000
  Sc  Sc2       1.0  0.40300  0.20200  0.45200  1.0000
  Sc  Sc3       1.0  0.59700  0.79800  0.54800  1.0000
  Sc  Sc4       1.0  0.09680  0.54800  0.79800  1.0000
  Sn  Sn1       1.0  0.56700  0.28300  0.03330  1.0000
  Sn  Sn2       1.0  0.75000  0.87500  0.12500  1.0000
  Sn  Sn3       1.0  0.06650  0.03330  0.28300  1.0000
  Sn  Sn4       1.0  0.25000  0.62500  0.37500  1.0000
  Sn  Sn5       1.0  0.75000  0.37500  0.62500  1.0000
  Sn  Sn6       1.0  0.93300  0.96700  0.71700  1.0000
  Sn  Sn7       1.0  0.25000  0.12500  0.87500  1.0000
  Sn  Sn8       1.0  0.43300  0.71700  0.96700  1.0000
