data_image0
_chemical_formula_structural       Eu8In4
_chemical_formula_sum              "Eu8 In4"
_cell_length_a       7.32685
_cell_length_b       5.48607
_cell_length_c       10.1553
_cell_angle_alpha    90
_cell_angle_beta     90
_cell_angle_gamma    90

_space_group_name_H-M_alt    "P 1"
_space_group_IT_number       1

loop_
  _space_group_symop_operation_xyz
  'x, y, z'

loop_
  _atom_site_type_symbol
  _atom_site_label
  _atom_site_symmetry_multiplicity
  _atom_site_fract_x
  _atom_site_fract_y
  _atom_site_fract_z
  _atom_site_occupancy
  Eu  Eu1       1.0  0.17900  0.25000  0.07040  1.0000
  Eu  Eu2       1.0  0.47000  0.75000  0.20200  1.0000
  Eu  Eu3       1.0  0.97000  0.75000  0.29800  1.0000
  Eu  Eu4       1.0  0.67900  0.25000  0.43000  1.0000
  Eu  Eu5       1.0  0.32100  0.75000  0.57000  1.0000
  Eu  Eu6       1.0  0.02970  0.25000  0.70200  1.0000
  Eu  Eu7       1.0  0.53000  0.25000  0.79800  1.0000
  Eu  Eu8       1.0  0.82100  0.75000  0.93000  1.0000
  In  In1       1.0  0.72400  0.25000  0.10700  1.0000
  In  In2       1.0  0.22400  0.25000  0.39300  1.0000
  In  In3       1.0  0.77600  0.75000  0.60700  1.0000
  In  In4       1.0  0.27600  0.75000  0.89300  1.0000
