data_image0
_chemical_formula_structural       Ba2F8Pd2
_chemical_formula_sum              "Ba2 F8 Pd2"
_cell_length_a       6.06005
_cell_length_b       6.06005
_cell_length_c       6.91077
_cell_angle_alpha    116.005
_cell_angle_beta     116.005
_cell_angle_gamma    90

_space_group_name_H-M_alt    "P 1"
_space_group_IT_number       1

loop_
  _space_group_symop_operation_xyz
  'x, y, z'

loop_
  _atom_site_type_symbol
  _atom_site_label
  _atom_site_symmetry_multiplicity
  _atom_site_fract_x
  _atom_site_fract_y
  _atom_site_fract_z
  _atom_site_occupancy
  Ba  Ba1       1.0  0.25000  0.25000  0.50000  1.0000
  Ba  Ba2       1.0  0.75000  0.75000  0.50000  1.0000
  F   F1        1.0  0.79400  0.29400  0.25400  1.0000
  F   F2        1.0  0.29400  0.46000  0.25400  1.0000
  F   F3        1.0  0.96000  0.79400  0.25400  1.0000
  F   F4        1.0  0.46000  0.96000  0.25400  1.0000
  F   F5        1.0  0.54000  0.03950  0.74600  1.0000
  F   F6        1.0  0.03950  0.20600  0.74600  1.0000
  F   F7        1.0  0.70600  0.54000  0.74600  1.0000
  F   F8        1.0  0.20600  0.70600  0.74600  1.0000
  Pd  Pd1       1.0  0.50000  0.00000  0.00000  1.0000
  Pd  Pd2       1.0  0.00000  0.50000  0.00000  1.0000
