data_image0
_chemical_formula_structural       Ga4Pt4Tb4
_chemical_formula_sum              "Ga4 Pt4 Tb4"
_cell_length_a       6.9439
_cell_length_b       4.44684
_cell_length_c       7.70707
_cell_angle_alpha    90
_cell_angle_beta     90
_cell_angle_gamma    90

_space_group_name_H-M_alt    "P 1"
_space_group_IT_number       1

loop_
  _space_group_symop_operation_xyz
  'x, y, z'

loop_
  _atom_site_type_symbol
  _atom_site_label
  _atom_site_symmetry_multiplicity
  _atom_site_fract_x
  _atom_site_fract_y
  _atom_site_fract_z
  _atom_site_occupancy
  Ga  Ga1       1.0  0.82900  0.25000  0.07520  1.0000
  Ga  Ga2       1.0  0.32900  0.25000  0.42500  1.0000
  Ga  Ga3       1.0  0.67100  0.75000  0.57500  1.0000
  Ga  Ga4       1.0  0.17100  0.75000  0.92500  1.0000
  Pt  Pt1       1.0  0.22300  0.25000  0.09820  1.0000
  Pt  Pt2       1.0  0.72300  0.25000  0.40200  1.0000
  Pt  Pt3       1.0  0.27700  0.75000  0.59800  1.0000
  Pt  Pt4       1.0  0.77700  0.75000  0.90200  1.0000
  Tb  Tb1       1.0  0.51600  0.75000  0.19800  1.0000
  Tb  Tb2       1.0  0.01560  0.75000  0.30200  1.0000
  Tb  Tb3       1.0  0.98400  0.25000  0.69800  1.0000
  Tb  Tb4       1.0  0.48400  0.25000  0.80200  1.0000
