data_image0
_chemical_formula_structural       F8Pb2Pd2
_chemical_formula_sum              "F8 Pb2 Pd2"
_cell_length_a       5.79965
_cell_length_b       5.79965
_cell_length_c       6.75045
_cell_angle_alpha    115.441
_cell_angle_beta     115.441
_cell_angle_gamma    90

_space_group_name_H-M_alt    "P 1"
_space_group_IT_number       1

loop_
  _space_group_symop_operation_xyz
  'x, y, z'

loop_
  _atom_site_type_symbol
  _atom_site_label
  _atom_site_symmetry_multiplicity
  _atom_site_fract_x
  _atom_site_fract_y
  _atom_site_fract_z
  _atom_site_occupancy
  F   F1        1.0  0.80400  0.30400  0.26000  1.0000
  F   F2        1.0  0.30400  0.45600  0.26000  1.0000
  F   F3        1.0  0.95600  0.80400  0.26000  1.0000
  F   F4        1.0  0.45600  0.95600  0.26000  1.0000
  F   F5        1.0  0.54400  0.04450  0.74000  1.0000
  F   F6        1.0  0.04450  0.19600  0.74000  1.0000
  F   F7        1.0  0.69600  0.54400  0.74000  1.0000
  F   F8        1.0  0.19600  0.69600  0.74000  1.0000
  Pb  Pb1       1.0  0.25000  0.25000  0.50000  1.0000
  Pb  Pb2       1.0  0.75000  0.75000  0.50000  1.0000
  Pd  Pd1       1.0  0.50000  0.00000  0.00000  1.0000
  Pd  Pd2       1.0  0.00000  0.50000  0.00000  1.0000
