data_image0
_chemical_formula_structural       Ca8Cu4
_chemical_formula_sum              "Ca8 Cu4"
_cell_length_a       6.07737
_cell_length_b       4.13375
_cell_length_c       14.4169
_cell_angle_alpha    90
_cell_angle_beta     90
_cell_angle_gamma    90

_space_group_name_H-M_alt    "P 1"
_space_group_IT_number       1

loop_
  _space_group_symop_operation_xyz
  'x, y, z'

loop_
  _atom_site_type_symbol
  _atom_site_label
  _atom_site_symmetry_multiplicity
  _atom_site_fract_x
  _atom_site_fract_y
  _atom_site_fract_z
  _atom_site_occupancy
  Ca  Ca1       1.0  0.63400  0.25000  0.09270  1.0000
  Ca  Ca2       1.0  0.13600  0.75000  0.16900  1.0000
  Ca  Ca3       1.0  0.63600  0.75000  0.33100  1.0000
  Ca  Ca4       1.0  0.13400  0.25000  0.40700  1.0000
  Ca  Ca5       1.0  0.86600  0.75000  0.59300  1.0000
  Ca  Ca6       1.0  0.36400  0.25000  0.66900  1.0000
  Ca  Ca7       1.0  0.86400  0.25000  0.83100  1.0000
  Ca  Ca8       1.0  0.36600  0.75000  0.90700  1.0000
  Cu  Cu1       1.0  0.10900  0.25000  0.01490  1.0000
  Cu  Cu2       1.0  0.60900  0.25000  0.48500  1.0000
  Cu  Cu3       1.0  0.39100  0.75000  0.51500  1.0000
  Cu  Cu4       1.0  0.89100  0.75000  0.98500  1.0000
