data_image0
_chemical_formula_structural       F8Pd2Sr2
_chemical_formula_sum              "F8 Pd2 Sr2"
_cell_length_a       5.7259
_cell_length_b       5.7259
_cell_length_c       6.68026
_cell_angle_alpha    115.377
_cell_angle_beta     115.377
_cell_angle_gamma    90

_space_group_name_H-M_alt    "P 1"
_space_group_IT_number       1

loop_
  _space_group_symop_operation_xyz
  'x, y, z'

loop_
  _atom_site_type_symbol
  _atom_site_label
  _atom_site_symmetry_multiplicity
  _atom_site_fract_x
  _atom_site_fract_y
  _atom_site_fract_z
  _atom_site_occupancy
  F   F1        1.0  0.45700  0.30600  0.26400  1.0000
  F   F2        1.0  0.95700  0.45700  0.26400  1.0000
  F   F3        1.0  0.30600  0.80600  0.26400  1.0000
  F   F4        1.0  0.80600  0.95700  0.26400  1.0000
  F   F5        1.0  0.19400  0.04280  0.73600  1.0000
  F   F6        1.0  0.69400  0.19400  0.73600  1.0000
  F   F7        1.0  0.04280  0.54300  0.73600  1.0000
  F   F8        1.0  0.54300  0.69400  0.73600  1.0000
  Pd  Pd1       1.0  0.50000  0.00000  0.00000  1.0000
  Pd  Pd2       1.0  0.00000  0.50000  0.00000  1.0000
  Sr  Sr1       1.0  0.25000  0.25000  0.50000  1.0000
  Sr  Sr2       1.0  0.75000  0.75000  0.50000  1.0000
