data_image0
_chemical_formula_structural       Cu2Eu2In8
_chemical_formula_sum              "Cu2 Eu2 In8"
_cell_length_a       4.5119
_cell_length_b       7.46884
_cell_length_c       8.79852
_cell_angle_alpha    90
_cell_angle_beta     75.1434
_cell_angle_gamma    90

_space_group_name_H-M_alt    "P 1"
_space_group_IT_number       1

loop_
  _space_group_symop_operation_xyz
  'x, y, z'

loop_
  _atom_site_type_symbol
  _atom_site_label
  _atom_site_symmetry_multiplicity
  _atom_site_fract_x
  _atom_site_fract_y
  _atom_site_fract_z
  _atom_site_occupancy
  Cu  Cu1       1.0  0.77000  0.75000  0.46000  1.0000
  Cu  Cu2       1.0  0.23000  0.25000  0.54000  1.0000
  Eu  Eu1       1.0  0.87800  0.25000  0.24400  1.0000
  Eu  Eu2       1.0  0.12200  0.75000  0.75600  1.0000
  In  In1       1.0  0.50000  0.00000  0.00000  1.0000
  In  In2       1.0  0.50000  0.50000  0.00000  1.0000
  In  In3       1.0  0.92800  0.75000  0.14300  1.0000
  In  In4       1.0  0.31500  0.54900  0.37000  1.0000
  In  In5       1.0  0.31500  0.95100  0.37000  1.0000
  In  In6       1.0  0.68500  0.04940  0.63000  1.0000
  In  In7       1.0  0.68500  0.45100  0.63000  1.0000
  In  In8       1.0  0.07150  0.25000  0.85700  1.0000
