data_image0
_chemical_formula_structural       Pt4Tb8
_chemical_formula_sum              "Pt4 Tb8"
_cell_length_a       7.16434
_cell_length_b       4.79061
_cell_length_c       8.81078
_cell_angle_alpha    90
_cell_angle_beta     90
_cell_angle_gamma    90

_space_group_name_H-M_alt    "P 1"
_space_group_IT_number       1

loop_
  _space_group_symop_operation_xyz
  'x, y, z'

loop_
  _atom_site_type_symbol
  _atom_site_label
  _atom_site_symmetry_multiplicity
  _atom_site_fract_x
  _atom_site_fract_y
  _atom_site_fract_z
  _atom_site_occupancy
  Pt  Pt1       1.0  0.25900  0.25000  0.09270  1.0000
  Pt  Pt2       1.0  0.75900  0.25000  0.40700  1.0000
  Pt  Pt3       1.0  0.24100  0.75000  0.59300  1.0000
  Pt  Pt4       1.0  0.74100  0.75000  0.90700  1.0000
  Tb  Tb1       1.0  0.85500  0.25000  0.08130  1.0000
  Tb  Tb2       1.0  0.51000  0.75000  0.16900  1.0000
  Tb  Tb3       1.0  0.00986  0.75000  0.33100  1.0000
  Tb  Tb4       1.0  0.35500  0.25000  0.41900  1.0000
  Tb  Tb5       1.0  0.64500  0.75000  0.58100  1.0000
  Tb  Tb6       1.0  0.99000  0.25000  0.66900  1.0000
  Tb  Tb7       1.0  0.49000  0.25000  0.83100  1.0000
  Tb  Tb8       1.0  0.14500  0.75000  0.91900  1.0000
