data_image0
_chemical_formula_structural       As4Ce4S4
_chemical_formula_sum              "As4 Ce4 S4"
_cell_length_a       4.04706
_cell_length_b       17.8119
_cell_length_c       3.96912
_cell_angle_alpha    90
_cell_angle_beta     90.0155
_cell_angle_gamma    90

_space_group_name_H-M_alt    "P 1"
_space_group_IT_number       1

loop_
  _space_group_symop_operation_xyz
  'x, y, z'

loop_
  _atom_site_type_symbol
  _atom_site_label
  _atom_site_symmetry_multiplicity
  _atom_site_fract_x
  _atom_site_fract_y
  _atom_site_fract_z
  _atom_site_occupancy
  As  As1       1.0  0.20500  0.50200  0.25000  1.0000
  As  As2       1.0  0.29500  0.00215  0.25000  1.0000
  As  As3       1.0  0.70500  0.99800  0.75000  1.0000
  As  As4       1.0  0.79500  0.49800  0.75000  1.0000
  Ce  Ce1       1.0  0.73000  0.64600  0.25000  1.0000
  Ce  Ce2       1.0  0.77000  0.14600  0.25000  1.0000
  Ce  Ce3       1.0  0.23000  0.85400  0.75000  1.0000
  Ce  Ce4       1.0  0.27000  0.35400  0.75000  1.0000
  S   S1        1.0  0.76800  0.31400  0.25000  1.0000
  S   S2        1.0  0.73200  0.81400  0.25000  1.0000
  S   S3        1.0  0.26800  0.18600  0.75000  1.0000
  S   S4        1.0  0.23200  0.68600  0.75000  1.0000
