data_image0
_chemical_formula_structural       Re8Th4
_chemical_formula_sum              "Re8 Th4"
_cell_length_a       5.37622
_cell_length_b       5.37609
_cell_length_c       9.47076
_cell_angle_alpha    90
_cell_angle_beta     90
_cell_angle_gamma    120.001

_space_group_name_H-M_alt    "P 1"
_space_group_IT_number       1

loop_
  _space_group_symop_operation_xyz
  'x, y, z'

loop_
  _atom_site_type_symbol
  _atom_site_label
  _atom_site_symmetry_multiplicity
  _atom_site_fract_x
  _atom_site_fract_y
  _atom_site_fract_z
  _atom_site_occupancy
  Re  Re1       1.0  0.00000  0.00000  0.00000  1.0000
  Re  Re2       1.0  0.33900  0.17000  0.25000  1.0000
  Re  Re3       1.0  0.83000  0.17000  0.25000  1.0000
  Re  Re4       1.0  0.83000  0.66100  0.25000  1.0000
  Re  Re5       1.0  0.00000  0.00000  0.50000  1.0000
  Re  Re6       1.0  0.17000  0.33900  0.75000  1.0000
  Re  Re7       1.0  0.17000  0.83000  0.75000  1.0000
  Re  Re8       1.0  0.66100  0.83000  0.75000  1.0000
  Th  Th1       1.0  0.33300  0.66700  0.06040  1.0000
  Th  Th2       1.0  0.33300  0.66700  0.44000  1.0000
  Th  Th3       1.0  0.66700  0.33300  0.56000  1.0000
  Th  Th4       1.0  0.66700  0.33300  0.94000  1.0000
