data_image0
_chemical_formula_structural       Nb2O8Sc2
_chemical_formula_sum              "Nb2 O8 Sc2"
_cell_length_a       5.1026
_cell_length_b       5.68561
_cell_length_c       4.83277
_cell_angle_alpha    90
_cell_angle_beta     91.0549
_cell_angle_gamma    90

_space_group_name_H-M_alt    "P 1"
_space_group_IT_number       1

loop_
  _space_group_symop_operation_xyz
  'x, y, z'

loop_
  _atom_site_type_symbol
  _atom_site_label
  _atom_site_symmetry_multiplicity
  _atom_site_fract_x
  _atom_site_fract_y
  _atom_site_fract_z
  _atom_site_occupancy
  Nb  Nb1       1.0  0.75000  0.18600  0.00000  1.0000
  Nb  Nb2       1.0  0.25000  0.81400  0.00000  1.0000
  O   O1        1.0  0.43600  0.10500  0.22100  1.0000
  O   O2        1.0  0.93600  0.89500  0.22100  1.0000
  O   O3        1.0  0.41100  0.61000  0.26500  1.0000
  O   O4        1.0  0.91100  0.39000  0.26500  1.0000
  O   O5        1.0  0.58900  0.39000  0.73500  1.0000
  O   O6        1.0  0.08940  0.61000  0.73500  1.0000
  O   O7        1.0  0.56400  0.89500  0.77900  1.0000
  O   O8        1.0  0.06370  0.10500  0.77900  1.0000
  Sc  Sc1       1.0  0.75000  0.68300  0.50000  1.0000
  Sc  Sc2       1.0  0.25000  0.31700  0.50000  1.0000
