data_image0
_chemical_formula_structural       Nb2O8Tb2
_chemical_formula_sum              "Nb2 O8 Tb2"
_cell_length_a       5.09403
_cell_length_b       5.331
_cell_length_c       6.5413
_cell_angle_alpha    112.041
_cell_angle_beta     110.833
_cell_angle_gamma    94.7473

_space_group_name_H-M_alt    "P 1"
_space_group_IT_number       1

loop_
  _space_group_symop_operation_xyz
  'x, y, z'

loop_
  _atom_site_type_symbol
  _atom_site_label
  _atom_site_symmetry_multiplicity
  _atom_site_fract_x
  _atom_site_fract_y
  _atom_site_fract_z
  _atom_site_occupancy
  Nb  Nb1       1.0  0.64500  0.89500  0.28900  1.0000
  Nb  Nb2       1.0  0.35500  0.10500  0.71100  1.0000
  O   O1        1.0  0.78900  0.94700  0.07730  1.0000
  O   O2        1.0  0.28800  0.63100  0.07730  1.0000
  O   O3        1.0  0.92800  0.72000  0.43700  1.0000
  O   O4        1.0  0.50900  0.21700  0.43700  1.0000
  O   O5        1.0  0.49100  0.78300  0.56300  1.0000
  O   O6        1.0  0.07200  0.28000  0.56300  1.0000
  O   O7        1.0  0.71200  0.36900  0.92300  1.0000
  O   O8        1.0  0.21100  0.05340  0.92300  1.0000
  Tb  Tb1       1.0  0.12100  0.37100  0.24200  1.0000
  Tb  Tb2       1.0  0.87900  0.62900  0.75800  1.0000
