data_image0
_chemical_formula_structural       Al8Hf4
_chemical_formula_sum              "Al8 Hf4"
_cell_length_a       5.25016
_cell_length_b       5.25017
_cell_length_c       8.69149
_cell_angle_alpha    90
_cell_angle_beta     90
_cell_angle_gamma    120

_space_group_name_H-M_alt    "P 1"
_space_group_IT_number       1

loop_
  _space_group_symop_operation_xyz
  'x, y, z'

loop_
  _atom_site_type_symbol
  _atom_site_label
  _atom_site_symmetry_multiplicity
  _atom_site_fract_x
  _atom_site_fract_y
  _atom_site_fract_z
  _atom_site_occupancy
  Al  Al1       1.0  0.00000  0.00000  0.00000  1.0000
  Al  Al2       1.0  0.34200  0.17100  0.25000  1.0000
  Al  Al3       1.0  0.82900  0.17100  0.25000  1.0000
  Al  Al4       1.0  0.82900  0.65800  0.25000  1.0000
  Al  Al5       1.0  0.00000  0.00000  0.50000  1.0000
  Al  Al6       1.0  0.17100  0.34200  0.75000  1.0000
  Al  Al7       1.0  0.17100  0.82900  0.75000  1.0000
  Al  Al8       1.0  0.65800  0.82900  0.75000  1.0000
  Hf  Hf1       1.0  0.33300  0.66700  0.06440  1.0000
  Hf  Hf2       1.0  0.33300  0.66700  0.43600  1.0000
  Hf  Hf3       1.0  0.66700  0.33300  0.56400  1.0000
  Hf  Hf4       1.0  0.66700  0.33300  0.93600  1.0000
