data_image0
_chemical_formula_structural       Nb2O8Tm2
_chemical_formula_sum              "Nb2 O8 Tm2"
_cell_length_a       5.06001
_cell_length_b       5.2287
_cell_length_c       6.45043
_cell_angle_alpha    112.02
_cell_angle_beta     111.152
_cell_angle_gamma    94.4402

_space_group_name_H-M_alt    "P 1"
_space_group_IT_number       1

loop_
  _space_group_symop_operation_xyz
  'x, y, z'

loop_
  _atom_site_type_symbol
  _atom_site_label
  _atom_site_symmetry_multiplicity
  _atom_site_fract_x
  _atom_site_fract_y
  _atom_site_fract_z
  _atom_site_occupancy
  Nb  Nb1       1.0  0.64300  0.89300  0.28500  1.0000
  Nb  Nb2       1.0  0.35700  0.10700  0.71500  1.0000
  O   O1        1.0  0.79000  0.95000  0.07320  1.0000
  O   O2        1.0  0.28300  0.62300  0.07320  1.0000
  O   O3        1.0  0.93200  0.71700  0.43700  1.0000
  O   O4        1.0  0.50600  0.22000  0.43700  1.0000
  O   O5        1.0  0.49400  0.78000  0.56300  1.0000
  O   O6        1.0  0.06810  0.28300  0.56300  1.0000
  O   O7        1.0  0.71700  0.37700  0.92700  1.0000
  O   O8        1.0  0.21000  0.05020  0.92700  1.0000
  Tm  Tm1       1.0  0.12100  0.37100  0.24200  1.0000
  Tm  Tm2       1.0  0.87900  0.62900  0.75800  1.0000
