data_image0
_chemical_formula_structural       O8Sc2Ta2
_chemical_formula_sum              "O8 Sc2 Ta2"
_cell_length_a       5.11264
_cell_length_b       5.67915
_cell_length_c       4.80557
_cell_angle_alpha    90
_cell_angle_beta     91.4676
_cell_angle_gamma    90

_space_group_name_H-M_alt    "P 1"
_space_group_IT_number       1

loop_
  _space_group_symop_operation_xyz
  'x, y, z'

loop_
  _atom_site_type_symbol
  _atom_site_label
  _atom_site_symmetry_multiplicity
  _atom_site_fract_x
  _atom_site_fract_y
  _atom_site_fract_z
  _atom_site_occupancy
  O   O1        1.0  0.93500  0.89400  0.21900  1.0000
  O   O2        1.0  0.43500  0.10600  0.21900  1.0000
  O   O3        1.0  0.90700  0.38700  0.26400  1.0000
  O   O4        1.0  0.40700  0.61300  0.26400  1.0000
  O   O5        1.0  0.59300  0.38700  0.73600  1.0000
  O   O6        1.0  0.09260  0.61300  0.73600  1.0000
  O   O7        1.0  0.56500  0.89400  0.78100  1.0000
  O   O8        1.0  0.06490  0.10600  0.78100  1.0000
  Sc  Sc1       1.0  0.75000  0.67800  0.50000  1.0000
  Sc  Sc2       1.0  0.25000  0.32200  0.50000  1.0000
  Ta  Ta1       1.0  0.75000  0.17800  0.00000  1.0000
  Ta  Ta2       1.0  0.25000  0.82200  0.00000  1.0000
