data_image0
_chemical_formula_structural       Dy2Nb2O8
_chemical_formula_sum              "Dy2 Nb2 O8"
_cell_length_a       5.08904
_cell_length_b       5.29987
_cell_length_c       6.52174
_cell_angle_alpha    112.02
_cell_angle_beta     110.944
_cell_angle_gamma    94.6163

_space_group_name_H-M_alt    "P 1"
_space_group_IT_number       1

loop_
  _space_group_symop_operation_xyz
  'x, y, z'

loop_
  _atom_site_type_symbol
  _atom_site_label
  _atom_site_symmetry_multiplicity
  _atom_site_fract_x
  _atom_site_fract_y
  _atom_site_fract_z
  _atom_site_occupancy
  Dy  Dy1       1.0  0.12100  0.37100  0.24200  1.0000
  Dy  Dy2       1.0  0.87900  0.62900  0.75800  1.0000
  Nb  Nb1       1.0  0.64400  0.89400  0.28800  1.0000
  Nb  Nb2       1.0  0.35600  0.10600  0.71200  1.0000
  O   O1        1.0  0.28800  0.62700  0.07640  1.0000
  O   O2        1.0  0.78900  0.94900  0.07640  1.0000
  O   O3        1.0  0.50700  0.21700  0.43600  1.0000
  O   O4        1.0  0.93000  0.71900  0.43600  1.0000
  O   O5        1.0  0.07040  0.28100  0.56400  1.0000
  O   O6        1.0  0.49300  0.78300  0.56400  1.0000
  O   O7        1.0  0.21100  0.05070  0.92400  1.0000
  O   O8        1.0  0.71200  0.37300  0.92400  1.0000
