data_image0
_chemical_formula_structural       Mn8Nb4
_chemical_formula_sum              "Mn8 Nb4"
_cell_length_a       4.79745
_cell_length_b       4.79743
_cell_length_c       7.87172
_cell_angle_alpha    90
_cell_angle_beta     90
_cell_angle_gamma    120

_space_group_name_H-M_alt    "P 1"
_space_group_IT_number       1

loop_
  _space_group_symop_operation_xyz
  'x, y, z'

loop_
  _atom_site_type_symbol
  _atom_site_label
  _atom_site_symmetry_multiplicity
  _atom_site_fract_x
  _atom_site_fract_y
  _atom_site_fract_z
  _atom_site_occupancy
  Mn  Mn1       1.0  0.00000  0.00000  0.00000  1.0000
  Mn  Mn2       1.0  0.34300  0.17100  0.25000  1.0000
  Mn  Mn3       1.0  0.82900  0.17100  0.25000  1.0000
  Mn  Mn4       1.0  0.82900  0.65700  0.25000  1.0000
  Mn  Mn5       1.0  0.00000  0.00000  0.50000  1.0000
  Mn  Mn6       1.0  0.17100  0.34300  0.75000  1.0000
  Mn  Mn7       1.0  0.17100  0.82900  0.75000  1.0000
  Mn  Mn8       1.0  0.65700  0.82900  0.75000  1.0000
  Nb  Nb1       1.0  0.33300  0.66700  0.06210  1.0000
  Nb  Nb2       1.0  0.33300  0.66700  0.43800  1.0000
  Nb  Nb3       1.0  0.66700  0.33300  0.56200  1.0000
  Nb  Nb4       1.0  0.66700  0.33300  0.93800  1.0000
