data_image0
_chemical_formula_structural       Al4Nd4Pt4
_chemical_formula_sum              "Al4 Nd4 Pt4"
_cell_length_a       7.15362
_cell_length_b       4.49957
_cell_length_c       7.86484
_cell_angle_alpha    90
_cell_angle_beta     90
_cell_angle_gamma    90

_space_group_name_H-M_alt    "P 1"
_space_group_IT_number       1

loop_
  _space_group_symop_operation_xyz
  'x, y, z'

loop_
  _atom_site_type_symbol
  _atom_site_label
  _atom_site_symmetry_multiplicity
  _atom_site_fract_x
  _atom_site_fract_y
  _atom_site_fract_z
  _atom_site_occupancy
  Al  Al1       1.0  0.85500  0.75000  0.06650  1.0000
  Al  Al2       1.0  0.35500  0.75000  0.43400  1.0000
  Al  Al3       1.0  0.64500  0.25000  0.56600  1.0000
  Al  Al4       1.0  0.14500  0.25000  0.93400  1.0000
  Nd  Nd1       1.0  0.52900  0.25000  0.18300  1.0000
  Nd  Nd2       1.0  0.02870  0.25000  0.31700  1.0000
  Nd  Nd3       1.0  0.97100  0.75000  0.68300  1.0000
  Nd  Nd4       1.0  0.47100  0.75000  0.81700  1.0000
  Pt  Pt1       1.0  0.21900  0.75000  0.11200  1.0000
  Pt  Pt2       1.0  0.71900  0.75000  0.38800  1.0000
  Pt  Pt3       1.0  0.28100  0.25000  0.61200  1.0000
  Pt  Pt4       1.0  0.78100  0.25000  0.88800  1.0000
