data_image0
_chemical_formula_structural       Al4Pr4Pt4
_chemical_formula_sum              "Al4 Pr4 Pt4"
_cell_length_a       7.22319
_cell_length_b       4.50755
_cell_length_c       7.88722
_cell_angle_alpha    90
_cell_angle_beta     90
_cell_angle_gamma    90

_space_group_name_H-M_alt    "P 1"
_space_group_IT_number       1

loop_
  _space_group_symop_operation_xyz
  'x, y, z'

loop_
  _atom_site_type_symbol
  _atom_site_label
  _atom_site_symmetry_multiplicity
  _atom_site_fract_x
  _atom_site_fract_y
  _atom_site_fract_z
  _atom_site_occupancy
  Al  Al1       1.0  0.85400  0.75000  0.06720  1.0000
  Al  Al2       1.0  0.35400  0.75000  0.43300  1.0000
  Al  Al3       1.0  0.64600  0.25000  0.56700  1.0000
  Al  Al4       1.0  0.14600  0.25000  0.93300  1.0000
  Pr  Pr1       1.0  0.52900  0.25000  0.18200  1.0000
  Pr  Pr2       1.0  0.02860  0.25000  0.31800  1.0000
  Pr  Pr3       1.0  0.97100  0.75000  0.68200  1.0000
  Pr  Pr4       1.0  0.47100  0.75000  0.81800  1.0000
  Pt  Pt1       1.0  0.21500  0.75000  0.11000  1.0000
  Pt  Pt2       1.0  0.71500  0.75000  0.39000  1.0000
  Pt  Pt3       1.0  0.28500  0.25000  0.61000  1.0000
  Pt  Pt4       1.0  0.78500  0.25000  0.89000  1.0000
