data_image0
_chemical_formula_structural       Ni4Sn4Yb4
_chemical_formula_sum              "Ni4 Sn4 Yb4"
_cell_length_a       7.17283
_cell_length_b       4.48983
_cell_length_c       7.57676
_cell_angle_alpha    90
_cell_angle_beta     90
_cell_angle_gamma    90

_space_group_name_H-M_alt    "P 1"
_space_group_IT_number       1

loop_
  _space_group_symop_operation_xyz
  'x, y, z'

loop_
  _atom_site_type_symbol
  _atom_site_label
  _atom_site_symmetry_multiplicity
  _atom_site_fract_x
  _atom_site_fract_y
  _atom_site_fract_z
  _atom_site_occupancy
  Ni  Ni1       1.0  0.20000  0.25000  0.09640  1.0000
  Ni  Ni2       1.0  0.70000  0.25000  0.40400  1.0000
  Ni  Ni3       1.0  0.30000  0.75000  0.59600  1.0000
  Ni  Ni4       1.0  0.80000  0.75000  0.90400  1.0000
  Sn  Sn1       1.0  0.82600  0.25000  0.08130  1.0000
  Sn  Sn2       1.0  0.32600  0.25000  0.41900  1.0000
  Sn  Sn3       1.0  0.67400  0.75000  0.58100  1.0000
  Sn  Sn4       1.0  0.17400  0.75000  0.91900  1.0000
  Yb  Yb1       1.0  0.52300  0.75000  0.18800  1.0000
  Yb  Yb2       1.0  0.02310  0.75000  0.31200  1.0000
  Yb  Yb3       1.0  0.97700  0.25000  0.68800  1.0000
  Yb  Yb4       1.0  0.47700  0.25000  0.81200  1.0000
