data_image0
_chemical_formula_structural       Eu8Pb4
_chemical_formula_sum              "Eu8 Pb4"
_cell_length_a       7.67812
_cell_length_b       5.39771
_cell_length_c       9.89347
_cell_angle_alpha    90
_cell_angle_beta     90
_cell_angle_gamma    90

_space_group_name_H-M_alt    "P 1"
_space_group_IT_number       1

loop_
  _space_group_symop_operation_xyz
  'x, y, z'

loop_
  _atom_site_type_symbol
  _atom_site_label
  _atom_site_symmetry_multiplicity
  _atom_site_fract_x
  _atom_site_fract_y
  _atom_site_fract_z
  _atom_site_occupancy
  Eu  Eu1       1.0  0.82000  0.25000  0.07700  1.0000
  Eu  Eu2       1.0  0.51700  0.75000  0.19900  1.0000
  Eu  Eu3       1.0  0.01690  0.75000  0.30100  1.0000
  Eu  Eu4       1.0  0.32000  0.25000  0.42300  1.0000
  Eu  Eu5       1.0  0.68000  0.75000  0.57700  1.0000
  Eu  Eu6       1.0  0.98300  0.25000  0.69900  1.0000
  Eu  Eu7       1.0  0.48300  0.25000  0.80100  1.0000
  Eu  Eu8       1.0  0.18000  0.75000  0.92300  1.0000
  Pb  Pb1       1.0  0.25800  0.25000  0.09870  1.0000
  Pb  Pb2       1.0  0.75800  0.25000  0.40100  1.0000
  Pb  Pb3       1.0  0.24200  0.75000  0.59900  1.0000
  Pb  Pb4       1.0  0.74200  0.75000  0.90100  1.0000
