data_image0
_chemical_formula_structural       Cu2P2Zr8
_chemical_formula_sum              "Cu2 P2 Zr8"
_cell_length_a       6.50784
_cell_length_b       6.50784
_cell_length_c       5.36435
_cell_angle_alpha    90
_cell_angle_beta     90
_cell_angle_gamma    90

_space_group_name_H-M_alt    "P 1"
_space_group_IT_number       1

loop_
  _space_group_symop_operation_xyz
  'x, y, z'

loop_
  _atom_site_type_symbol
  _atom_site_label
  _atom_site_symmetry_multiplicity
  _atom_site_fract_x
  _atom_site_fract_y
  _atom_site_fract_z
  _atom_site_occupancy
  Cu  Cu1       1.0  0.00000  0.00000  0.25000  1.0000
  Cu  Cu2       1.0  0.00000  0.00000  0.75000  1.0000
  P   P1        1.0  0.50000  0.50000  0.25000  1.0000
  P   P2        1.0  0.50000  0.50000  0.75000  1.0000
  Zr  Zr1       1.0  0.34800  0.16100  0.00000  1.0000
  Zr  Zr2       1.0  0.83900  0.34800  0.00000  1.0000
  Zr  Zr3       1.0  0.16100  0.65200  0.00000  1.0000
  Zr  Zr4       1.0  0.65200  0.83900  0.00000  1.0000
  Zr  Zr5       1.0  0.65200  0.16100  0.50000  1.0000
  Zr  Zr6       1.0  0.16100  0.34800  0.50000  1.0000
  Zr  Zr7       1.0  0.83900  0.65200  0.50000  1.0000
  Zr  Zr8       1.0  0.34800  0.83900  0.50000  1.0000
