data_image0
_chemical_formula_structural       Cr4Fe4P4
_chemical_formula_sum              "Cr4 Fe4 P4"
_cell_length_a       5.73868
_cell_length_b       3.52732
_cell_length_c       6.54564
_cell_angle_alpha    90
_cell_angle_beta     90
_cell_angle_gamma    90

_space_group_name_H-M_alt    "P 1"
_space_group_IT_number       1

loop_
  _space_group_symop_operation_xyz
  'x, y, z'

loop_
  _atom_site_type_symbol
  _atom_site_label
  _atom_site_symmetry_multiplicity
  _atom_site_fract_x
  _atom_site_fract_y
  _atom_site_fract_z
  _atom_site_occupancy
  Cr  Cr1       1.0  0.02390  0.25000  0.17000  1.0000
  Cr  Cr2       1.0  0.52400  0.25000  0.33000  1.0000
  Cr  Cr3       1.0  0.47600  0.75000  0.67000  1.0000
  Cr  Cr4       1.0  0.97600  0.75000  0.83000  1.0000
  Fe  Fe1       1.0  0.35600  0.75000  0.06160  1.0000
  Fe  Fe2       1.0  0.85600  0.75000  0.43800  1.0000
  Fe  Fe3       1.0  0.14400  0.25000  0.56200  1.0000
  Fe  Fe4       1.0  0.64400  0.25000  0.93800  1.0000
  P   P1        1.0  0.73500  0.75000  0.12400  1.0000
  P   P2        1.0  0.23500  0.75000  0.37600  1.0000
  P   P3        1.0  0.76500  0.25000  0.62400  1.0000
  P   P4        1.0  0.26500  0.25000  0.87600  1.0000
