data_image0
_chemical_formula_structural       Os8Sm4
_chemical_formula_sum              "Os8 Sm4"
_cell_length_a       5.34093
_cell_length_b       5.3409
_cell_length_c       8.99832
_cell_angle_alpha    90
_cell_angle_beta     90
_cell_angle_gamma    120

_space_group_name_H-M_alt    "P 1"
_space_group_IT_number       1

loop_
  _space_group_symop_operation_xyz
  'x, y, z'

loop_
  _atom_site_type_symbol
  _atom_site_label
  _atom_site_symmetry_multiplicity
  _atom_site_fract_x
  _atom_site_fract_y
  _atom_site_fract_z
  _atom_site_occupancy
  Os  Os1       1.0  0.00000  0.00000  0.00000  1.0000
  Os  Os2       1.0  0.34100  0.17000  0.25000  1.0000
  Os  Os3       1.0  0.83000  0.17000  0.25000  1.0000
  Os  Os4       1.0  0.83000  0.65900  0.25000  1.0000
  Os  Os5       1.0  0.00000  0.00000  0.50000  1.0000
  Os  Os6       1.0  0.17000  0.34100  0.75000  1.0000
  Os  Os7       1.0  0.17000  0.83000  0.75000  1.0000
  Os  Os8       1.0  0.65900  0.83000  0.75000  1.0000
  Sm  Sm1       1.0  0.33300  0.66700  0.06480  1.0000
  Sm  Sm2       1.0  0.33300  0.66700  0.43500  1.0000
  Sm  Sm3       1.0  0.66700  0.33300  0.56500  1.0000
  Sm  Sm4       1.0  0.66700  0.33300  0.93500  1.0000
