data_image0
_chemical_formula_structural       Nb2O8Pr2
_chemical_formula_sum              "Nb2 O8 Pr2"
_cell_length_a       5.17933
_cell_length_b       5.50359
_cell_length_c       6.74748
_cell_angle_alpha    112.196
_cell_angle_beta     110.602
_cell_angle_gamma    94.4904

_space_group_name_H-M_alt    "P 1"
_space_group_IT_number       1

loop_
  _space_group_symop_operation_xyz
  'x, y, z'

loop_
  _atom_site_type_symbol
  _atom_site_label
  _atom_site_symmetry_multiplicity
  _atom_site_fract_x
  _atom_site_fract_y
  _atom_site_fract_z
  _atom_site_occupancy
  Nb  Nb1       1.0  0.64600  0.89600  0.29300  1.0000
  Nb  Nb2       1.0  0.35400  0.10400  0.70700  1.0000
  O   O1        1.0  0.78400  0.94300  0.08420  1.0000
  O   O2        1.0  0.30000  0.64100  0.08420  1.0000
  O   O3        1.0  0.92300  0.72700  0.43600  1.0000
  O   O4        1.0  0.51300  0.20900  0.43600  1.0000
  O   O5        1.0  0.48700  0.79100  0.56400  1.0000
  O   O6        1.0  0.07670  0.27300  0.56400  1.0000
  O   O7        1.0  0.70000  0.35900  0.91600  1.0000
  O   O8        1.0  0.21600  0.05660  0.91600  1.0000
  Pr  Pr1       1.0  0.12100  0.37100  0.24100  1.0000
  Pr  Pr2       1.0  0.87900  0.62900  0.75900  1.0000
