data_image0
_chemical_formula_structural       Dy2O8Ta2
_chemical_formula_sum              "Dy2 O8 Ta2"
_cell_length_a       5.26378
_cell_length_b       5.45016
_cell_length_c       5.07481
_cell_angle_alpha    90
_cell_angle_beta     86.8428
_cell_angle_gamma    90

_space_group_name_H-M_alt    "P 1"
_space_group_IT_number       1

loop_
  _space_group_symop_operation_xyz
  'x, y, z'

loop_
  _atom_site_type_symbol
  _atom_site_label
  _atom_site_symmetry_multiplicity
  _atom_site_fract_x
  _atom_site_fract_y
  _atom_site_fract_z
  _atom_site_occupancy
  Dy  Dy1       1.0  0.75000  0.23600  0.50000  1.0000
  Dy  Dy2       1.0  0.25000  0.76400  0.50000  1.0000
  O   O1        1.0  0.98800  0.55700  0.23600  1.0000
  O   O2        1.0  0.48800  0.44300  0.23600  1.0000
  O   O3        1.0  0.59100  0.92200  0.24700  1.0000
  O   O4        1.0  0.09100  0.07800  0.24700  1.0000
  O   O5        1.0  0.90900  0.92200  0.75300  1.0000
  O   O6        1.0  0.40900  0.07800  0.75300  1.0000
  O   O7        1.0  0.51200  0.55700  0.76400  1.0000
  O   O8        1.0  0.01240  0.44300  0.76400  1.0000
  Ta  Ta1       1.0  0.75000  0.70600  0.00000  1.0000
  Ta  Ta2       1.0  0.25000  0.29400  0.00000  1.0000
