data_image0
_chemical_formula_structural       O8Sm2Ta2
_chemical_formula_sum              "O8 Sm2 Ta2"
_cell_length_a       5.10246
_cell_length_b       5.43258
_cell_length_c       6.59821
_cell_angle_alpha    111.992
_cell_angle_beta     110.308
_cell_angle_gamma    95.5195

_space_group_name_H-M_alt    "P 1"
_space_group_IT_number       1

loop_
  _space_group_symop_operation_xyz
  'x, y, z'

loop_
  _atom_site_type_symbol
  _atom_site_label
  _atom_site_symmetry_multiplicity
  _atom_site_fract_x
  _atom_site_fract_y
  _atom_site_fract_z
  _atom_site_occupancy
  O   O1        1.0  0.29800  0.63800  0.08180  1.0000
  O   O2        1.0  0.78400  0.94400  0.08180  1.0000
  O   O3        1.0  0.50000  0.20900  0.43800  1.0000
  O   O4        1.0  0.93800  0.73000  0.43800  1.0000
  O   O5        1.0  0.06160  0.27000  0.56200  1.0000
  O   O6        1.0  0.50000  0.79100  0.56200  1.0000
  O   O7        1.0  0.21600  0.05590  0.91800  1.0000
  O   O8        1.0  0.70200  0.36200  0.91800  1.0000
  Sm  Sm1       1.0  0.11800  0.36800  0.23700  1.0000
  Sm  Sm2       1.0  0.88200  0.63200  0.76300  1.0000
  Ta  Ta1       1.0  0.65000  0.90000  0.30100  1.0000
  Ta  Ta2       1.0  0.35000  0.09970  0.69900  1.0000
