data_image0
_chemical_formula_structural       O8Ta2Y2
_chemical_formula_sum              "O8 Ta2 Y2"
_cell_length_a       5.27247
_cell_length_b       5.44341
_cell_length_c       5.07993
_cell_angle_alpha    90
_cell_angle_beta     87.1262
_cell_angle_gamma    90

_space_group_name_H-M_alt    "P 1"
_space_group_IT_number       1

loop_
  _space_group_symop_operation_xyz
  'x, y, z'

loop_
  _atom_site_type_symbol
  _atom_site_label
  _atom_site_symmetry_multiplicity
  _atom_site_fract_x
  _atom_site_fract_y
  _atom_site_fract_z
  _atom_site_occupancy
  O   O1        1.0  0.48400  0.44500  0.23600  1.0000
  O   O2        1.0  0.98400  0.55500  0.23600  1.0000
  O   O3        1.0  0.09030  0.07640  0.24500  1.0000
  O   O4        1.0  0.59000  0.92400  0.24500  1.0000
  O   O5        1.0  0.41000  0.07640  0.75500  1.0000
  O   O6        1.0  0.91000  0.92400  0.75500  1.0000
  O   O7        1.0  0.01580  0.44500  0.76400  1.0000
  O   O8        1.0  0.51600  0.55500  0.76400  1.0000
  Ta  Ta1       1.0  0.25000  0.29300  0.00000  1.0000
  Ta  Ta2       1.0  0.75000  0.70700  0.00000  1.0000
  Y   Y1        1.0  0.25000  0.76300  0.50000  1.0000
  Y   Y2        1.0  0.75000  0.23700  0.50000  1.0000
