data_image0
_chemical_formula_structural       O8Ta2Tb2
_chemical_formula_sum              "O8 Ta2 Tb2"
_cell_length_a       5.07176
_cell_length_b       5.3444
_cell_length_c       6.50313
_cell_angle_alpha    111.898
_cell_angle_beta     110.485
_cell_angle_gamma    95.5853

_space_group_name_H-M_alt    "P 1"
_space_group_IT_number       1

loop_
  _space_group_symop_operation_xyz
  'x, y, z'

loop_
  _atom_site_type_symbol
  _atom_site_label
  _atom_site_symmetry_multiplicity
  _atom_site_fract_x
  _atom_site_fract_y
  _atom_site_fract_z
  _atom_site_occupancy
  O   O1        1.0  0.79300  0.63100  0.07690  1.0000
  O   O2        1.0  0.28400  0.94600  0.07690  1.0000
  O   O3        1.0  0.99900  0.21200  0.43900  1.0000
  O   O4        1.0  0.44000  0.72700  0.43900  1.0000
  O   O5        1.0  0.56000  0.27300  0.56100  1.0000
  O   O6        1.0  0.00102  0.78800  0.56100  1.0000
  O   O7        1.0  0.71600  0.05370  0.92300  1.0000
  O   O8        1.0  0.20700  0.36900  0.92300  1.0000
  Ta  Ta1       1.0  0.14800  0.89800  0.29700  1.0000
  Ta  Ta2       1.0  0.85200  0.10200  0.70300  1.0000
  Tb  Tb1       1.0  0.61900  0.36900  0.23700  1.0000
  Tb  Tb2       1.0  0.38100  0.63100  0.76300  1.0000
