data_image0
_chemical_formula_structural       Br6Cu4Rb2
_chemical_formula_sum              "Br6 Cu4 Rb2"
_cell_length_a       5.38534
_cell_length_b       8.06821
_cell_length_c       8.06821
_cell_angle_alpha    103.553
_cell_angle_beta     90
_cell_angle_gamma    90

_space_group_name_H-M_alt    "P 1"
_space_group_IT_number       1

loop_
  _space_group_symop_operation_xyz
  'x, y, z'

loop_
  _atom_site_type_symbol
  _atom_site_label
  _atom_site_symmetry_multiplicity
  _atom_site_fract_x
  _atom_site_fract_y
  _atom_site_fract_z
  _atom_site_occupancy
  Br  Br1       1.0  0.25000  0.88500  0.11500  1.0000
  Br  Br2       1.0  0.25000  0.41600  0.16400  1.0000
  Br  Br3       1.0  0.75000  0.16400  0.41600  1.0000
  Br  Br4       1.0  0.25000  0.83600  0.58400  1.0000
  Br  Br5       1.0  0.75000  0.58400  0.83600  1.0000
  Br  Br6       1.0  0.75000  0.11500  0.88500  1.0000
  Cu  Cu1       1.0  0.00000  0.16400  0.16400  1.0000
  Cu  Cu2       1.0  0.50000  0.16400  0.16400  1.0000
  Cu  Cu3       1.0  0.00000  0.83600  0.83600  1.0000
  Cu  Cu4       1.0  0.50000  0.83600  0.83600  1.0000
  Rb  Rb1       1.0  0.75000  0.68700  0.31300  1.0000
  Rb  Rb2       1.0  0.25000  0.31300  0.68700  1.0000
