data_image0
_chemical_formula_structural       Lu2Nb2O8
_chemical_formula_sum              "Lu2 Nb2 O8"
_cell_length_a       5.04363
_cell_length_b       5.20255
_cell_length_c       6.41666
_cell_angle_alpha    112.045
_cell_angle_beta     111.223
_cell_angle_gamma    94.3875

_space_group_name_H-M_alt    "P 1"
_space_group_IT_number       1

loop_
  _space_group_symop_operation_xyz
  'x, y, z'

loop_
  _atom_site_type_symbol
  _atom_site_label
  _atom_site_symmetry_multiplicity
  _atom_site_fract_x
  _atom_site_fract_y
  _atom_site_fract_z
  _atom_site_occupancy
  Lu  Lu1       1.0  0.12100  0.37100  0.24300  1.0000
  Lu  Lu2       1.0  0.87900  0.62900  0.75700  1.0000
  Nb  Nb1       1.0  0.64200  0.89200  0.28400  1.0000
  Nb  Nb2       1.0  0.35800  0.10800  0.71600  1.0000
  O   O1        1.0  0.28100  0.62100  0.07220  1.0000
  O   O2        1.0  0.79100  0.95100  0.07220  1.0000
  O   O3        1.0  0.93300  0.71600  0.43800  1.0000
  O   O4        1.0  0.50500  0.22200  0.43800  1.0000
  O   O5        1.0  0.49500  0.77800  0.56200  1.0000
  O   O6        1.0  0.06700  0.28400  0.56200  1.0000
  O   O7        1.0  0.20900  0.04880  0.92800  1.0000
  O   O8        1.0  0.71900  0.37900  0.92800  1.0000
