data_image0
_chemical_formula_structural       Ga4Ge4Yb4
_chemical_formula_sum              "Ga4 Ge4 Yb4"
_cell_length_a       4.22627
_cell_length_b       4.22627
_cell_length_c       16.5805
_cell_angle_alpha    90
_cell_angle_beta     90
_cell_angle_gamma    120

_space_group_name_H-M_alt    "P 1"
_space_group_IT_number       1

loop_
  _space_group_symop_operation_xyz
  'x, y, z'

loop_
  _atom_site_type_symbol
  _atom_site_label
  _atom_site_symmetry_multiplicity
  _atom_site_fract_x
  _atom_site_fract_y
  _atom_site_fract_z
  _atom_site_occupancy
  Ga  Ga1       1.0  0.33300  0.66700  0.15700  1.0000
  Ga  Ga2       1.0  0.33300  0.66700  0.34300  1.0000
  Ga  Ga3       1.0  0.66700  0.33300  0.65700  1.0000
  Ga  Ga4       1.0  0.66700  0.33300  0.84300  1.0000
  Ge  Ge1       1.0  0.66700  0.33300  0.11000  1.0000
  Ge  Ge2       1.0  0.66700  0.33300  0.39000  1.0000
  Ge  Ge3       1.0  0.33300  0.66700  0.61000  1.0000
  Ge  Ge4       1.0  0.33300  0.66700  0.89000  1.0000
  Yb  Yb1       1.0  0.00000  0.00000  0.00000  1.0000
  Yb  Yb2       1.0  0.00000  0.00000  0.25000  1.0000
  Yb  Yb3       1.0  0.00000  0.00000  0.50000  1.0000
  Yb  Yb4       1.0  0.00000  0.00001  0.75000  1.0000
