data_image0
_chemical_formula_structural       Hf4Re8
_chemical_formula_sum              "Hf4 Re8"
_cell_length_a       5.25744
_cell_length_b       5.25732
_cell_length_c       8.62767
_cell_angle_alpha    90
_cell_angle_beta     90
_cell_angle_gamma    120.001

_space_group_name_H-M_alt    "P 1"
_space_group_IT_number       1

loop_
  _space_group_symop_operation_xyz
  'x, y, z'

loop_
  _atom_site_type_symbol
  _atom_site_label
  _atom_site_symmetry_multiplicity
  _atom_site_fract_x
  _atom_site_fract_y
  _atom_site_fract_z
  _atom_site_occupancy
  Hf  Hf1       1.0  0.33300  0.66700  0.06260  1.0000
  Hf  Hf2       1.0  0.33300  0.66700  0.43700  1.0000
  Hf  Hf3       1.0  0.66700  0.33300  0.56300  1.0000
  Hf  Hf4       1.0  0.66700  0.33300  0.93700  1.0000
  Re  Re1       1.0  0.00000  0.00000  0.00000  1.0000
  Re  Re2       1.0  0.34400  0.17200  0.25000  1.0000
  Re  Re3       1.0  0.82800  0.17200  0.25000  1.0000
  Re  Re4       1.0  0.82800  0.65600  0.25000  1.0000
  Re  Re5       1.0  0.00000  0.00000  0.50000  1.0000
  Re  Re6       1.0  0.17200  0.34400  0.75000  1.0000
  Re  Re7       1.0  0.17200  0.82800  0.75000  1.0000
  Re  Re8       1.0  0.65600  0.82800  0.75000  1.0000
