data_image0
_chemical_formula_structural       Cu2Na3O6Sb
_chemical_formula_sum              "Cu2 Na3 O6 Sb1"
_cell_length_a       5.27617
_cell_length_b       5.27617
_cell_length_c       5.79188
_cell_angle_alpha    102.274
_cell_angle_beta     102.274
_cell_angle_gamma    114.931

_space_group_name_H-M_alt    "P 1"
_space_group_IT_number       1

loop_
  _space_group_symop_operation_xyz
  'x, y, z'

loop_
  _atom_site_type_symbol
  _atom_site_label
  _atom_site_symmetry_multiplicity
  _atom_site_fract_x
  _atom_site_fract_y
  _atom_site_fract_z
  _atom_site_occupancy
  Cu  Cu1       1.0  0.66900  0.33100  0.00000  1.0000
  Cu  Cu2       1.0  0.33100  0.66900  1.00000  1.0000
  Na  Na1       1.0  0.82700  0.17300  0.50000  1.0000
  Na  Na2       1.0  0.50000  0.50000  0.50000  1.0000
  Na  Na3       1.0  0.17300  0.82700  0.50000  1.0000
  O   O1        1.0  0.74300  0.74300  0.17800  1.0000
  O   O2        1.0  0.36600  0.03860  0.22500  1.0000
  O   O3        1.0  0.03860  0.36600  0.22500  1.0000
  O   O4        1.0  0.96100  0.63400  0.77500  1.0000
  O   O5        1.0  0.63400  0.96100  0.77500  1.0000
  O   O6        1.0  0.25700  0.25700  0.82200  1.0000
  Sb  Sb1       1.0  0.00000  0.00000  0.00000  1.0000
