data_image0
_chemical_formula_structural       BaO8P2Zr
_chemical_formula_sum              "Ba1 O8 P2 Zr1"
_cell_length_a       5.02252
_cell_length_b       5.02252
_cell_length_c       7.84873
_cell_angle_alpha    92.7676
_cell_angle_beta     92.7676
_cell_angle_gamma    63.9561

_space_group_name_H-M_alt    "P 1"
_space_group_IT_number       1

loop_
  _space_group_symop_operation_xyz
  'x, y, z'

loop_
  _atom_site_type_symbol
  _atom_site_label
  _atom_site_symmetry_multiplicity
  _atom_site_fract_x
  _atom_site_fract_y
  _atom_site_fract_z
  _atom_site_occupancy
  Ba  Ba1       1.0  0.00000  0.00000  0.50000  1.0000
  O   O1        1.0  0.23100  0.23100  0.08500  1.0000
  O   O2        1.0  0.70400  0.23100  0.19600  1.0000
  O   O3        1.0  0.23100  0.70400  0.19600  1.0000
  O   O4        1.0  0.31200  0.31200  0.40700  1.0000
  O   O5        1.0  0.68800  0.68800  0.59300  1.0000
  O   O6        1.0  0.76900  0.29600  0.80400  1.0000
  O   O7        1.0  0.29600  0.76900  0.80400  1.0000
  O   O8        1.0  0.76900  0.76900  0.91500  1.0000
  P   P1        1.0  0.36400  0.36400  0.22600  1.0000
  P   P2        1.0  0.63600  0.63600  0.77400  1.0000
  Zr  Zr1       1.0  0.00000  0.00000  0.00000  1.0000
