data_image0
_chemical_formula_structural       Ru8Sc4
_chemical_formula_sum              "Ru8 Sc4"
_cell_length_a       5.13154
_cell_length_b       5.13244
_cell_length_c       8.56551
_cell_angle_alpha    90
_cell_angle_beta     90
_cell_angle_gamma    119.994

_space_group_name_H-M_alt    "P 1"
_space_group_IT_number       1

loop_
  _space_group_symop_operation_xyz
  'x, y, z'

loop_
  _atom_site_type_symbol
  _atom_site_label
  _atom_site_symmetry_multiplicity
  _atom_site_fract_x
  _atom_site_fract_y
  _atom_site_fract_z
  _atom_site_occupancy
  Ru  Ru1       1.0  0.00000  0.00000  0.00000  1.0000
  Ru  Ru2       1.0  0.34500  0.17200  0.25000  1.0000
  Ru  Ru3       1.0  0.82800  0.17200  0.25000  1.0000
  Ru  Ru4       1.0  0.82800  0.65500  0.25000  1.0000
  Ru  Ru5       1.0  0.00000  0.00000  0.50000  1.0000
  Ru  Ru6       1.0  0.17200  0.34500  0.75000  1.0000
  Ru  Ru7       1.0  0.17200  0.82800  0.75000  1.0000
  Ru  Ru8       1.0  0.65500  0.82800  0.75000  1.0000
  Sc  Sc1       1.0  0.33300  0.66700  0.06730  1.0000
  Sc  Sc2       1.0  0.33300  0.66700  0.43300  1.0000
  Sc  Sc3       1.0  0.66700  0.33300  0.56700  1.0000
  Sc  Sc4       1.0  0.66700  0.33300  0.93300  1.0000
