data_image0
_chemical_formula_structural       Al2C4Ti6
_chemical_formula_sum              "Al2 C4 Ti6"
_cell_length_a       3.07971
_cell_length_b       3.07968
_cell_length_c       18.6073
_cell_angle_alpha    90
_cell_angle_beta     90
_cell_angle_gamma    120

_space_group_name_H-M_alt    "P 1"
_space_group_IT_number       1

loop_
  _space_group_symop_operation_xyz
  'x, y, z'

loop_
  _atom_site_type_symbol
  _atom_site_label
  _atom_site_symmetry_multiplicity
  _atom_site_fract_x
  _atom_site_fract_y
  _atom_site_fract_z
  _atom_site_occupancy
  Al  Al1       1.0  0.00000  0.00000  0.25000  1.0000
  Al  Al2       1.0  0.00000  0.00000  0.75000  1.0000
  C   C1        1.0  0.33300  0.66700  0.06920  1.0000
  C   C2        1.0  0.33300  0.66700  0.43100  1.0000
  C   C3        1.0  0.66700  0.33300  0.56900  1.0000
  C   C4        1.0  0.66700  0.33300  0.93100  1.0000
  Ti  Ti1       1.0  0.00000  0.00000  0.00000  1.0000
  Ti  Ti2       1.0  0.66700  0.33300  0.12800  1.0000
  Ti  Ti3       1.0  0.66700  0.33300  0.37200  1.0000
  Ti  Ti4       1.0  0.00000  0.00000  0.50000  1.0000
  Ti  Ti5       1.0  0.33300  0.66700  0.62800  1.0000
  Ti  Ti6       1.0  0.33300  0.66700  0.87200  1.0000
