data_image0
_chemical_formula_structural       Lu4Os8
_chemical_formula_sum              "Lu4 Os8"
_cell_length_a       5.27722
_cell_length_b       5.27722
_cell_length_c       8.69559
_cell_angle_alpha    90
_cell_angle_beta     90
_cell_angle_gamma    120

_space_group_name_H-M_alt    "P 1"
_space_group_IT_number       1

loop_
  _space_group_symop_operation_xyz
  'x, y, z'

loop_
  _atom_site_type_symbol
  _atom_site_label
  _atom_site_symmetry_multiplicity
  _atom_site_fract_x
  _atom_site_fract_y
  _atom_site_fract_z
  _atom_site_occupancy
  Lu  Lu1       1.0  0.33300  0.66700  0.06580  1.0000
  Lu  Lu2       1.0  0.33300  0.66700  0.43400  1.0000
  Lu  Lu3       1.0  0.66700  0.33300  0.56600  1.0000
  Lu  Lu4       1.0  0.66700  0.33300  0.93400  1.0000
  Os  Os1       1.0  0.00000  0.00000  0.00000  1.0000
  Os  Os2       1.0  0.34600  0.17300  0.25000  1.0000
  Os  Os3       1.0  0.82700  0.17300  0.25000  1.0000
  Os  Os4       1.0  0.82700  0.65400  0.25000  1.0000
  Os  Os5       1.0  0.00000  0.00000  0.50000  1.0000
  Os  Os6       1.0  0.17300  0.34600  0.75000  1.0000
  Os  Os7       1.0  0.17300  0.82700  0.75000  1.0000
  Os  Os8       1.0  0.65400  0.82700  0.75000  1.0000
