data_image0
_chemical_formula_structural       Re8Y4
_chemical_formula_sum              "Re8 Y4"
_cell_length_a       5.41199
_cell_length_b       5.41195
_cell_length_c       8.83782
_cell_angle_alpha    90
_cell_angle_beta     90
_cell_angle_gamma    120

_space_group_name_H-M_alt    "P 1"
_space_group_IT_number       1

loop_
  _space_group_symop_operation_xyz
  'x, y, z'

loop_
  _atom_site_type_symbol
  _atom_site_label
  _atom_site_symmetry_multiplicity
  _atom_site_fract_x
  _atom_site_fract_y
  _atom_site_fract_z
  _atom_site_occupancy
  Re  Re1       1.0  0.00000  0.00000  0.00000  1.0000
  Re  Re2       1.0  0.34200  0.17100  0.25000  1.0000
  Re  Re3       1.0  0.82900  0.17100  0.25000  1.0000
  Re  Re4       1.0  0.82900  0.65800  0.25000  1.0000
  Re  Re5       1.0  0.00000  0.00000  0.50000  1.0000
  Re  Re6       1.0  0.17100  0.34200  0.75000  1.0000
  Re  Re7       1.0  0.17100  0.82900  0.75000  1.0000
  Re  Re8       1.0  0.65800  0.82900  0.75000  1.0000
  Y   Y1        1.0  0.33300  0.66700  0.06250  1.0000
  Y   Y2        1.0  0.33300  0.66700  0.43800  1.0000
  Y   Y3        1.0  0.66700  0.33300  0.56200  1.0000
  Y   Y4        1.0  0.66700  0.33300  0.93800  1.0000
