data_image0
_chemical_formula_structural       C4Si2Ti6
_chemical_formula_sum              "C4 Si2 Ti6"
_cell_length_a       3.0722
_cell_length_b       3.07219
_cell_length_c       17.7046
_cell_angle_alpha    90
_cell_angle_beta     90
_cell_angle_gamma    120

_space_group_name_H-M_alt    "P 1"
_space_group_IT_number       1

loop_
  _space_group_symop_operation_xyz
  'x, y, z'

loop_
  _atom_site_type_symbol
  _atom_site_label
  _atom_site_symmetry_multiplicity
  _atom_site_fract_x
  _atom_site_fract_y
  _atom_site_fract_z
  _atom_site_occupancy
  C   C1        1.0  0.33300  0.66700  0.07230  1.0000
  C   C2        1.0  0.33300  0.66700  0.42800  1.0000
  C   C3        1.0  0.66700  0.33300  0.57200  1.0000
  C   C4        1.0  0.66700  0.33300  0.92800  1.0000
  Si  Si1       1.0  0.00000  0.00000  0.25000  1.0000
  Si  Si2       1.0  0.00000  0.00000  0.75000  1.0000
  Ti  Ti1       1.0  0.00000  0.00000  0.00000  1.0000
  Ti  Ti2       1.0  0.66700  0.33300  0.13500  1.0000
  Ti  Ti3       1.0  0.66700  0.33300  0.36500  1.0000
  Ti  Ti4       1.0  0.00000  0.00000  0.50000  1.0000
  Ti  Ti5       1.0  0.33300  0.66700  0.63500  1.0000
  Ti  Ti6       1.0  0.33300  0.66700  0.86500  1.0000
