data_image0
_chemical_formula_structural       Ce4P8
_chemical_formula_sum              "Ce4 P8"
_cell_length_a       4.09264
_cell_length_b       6.6477
_cell_length_c       10.3054
_cell_angle_alpha    90
_cell_angle_beta     105.589
_cell_angle_gamma    90

_space_group_name_H-M_alt    "P 1"
_space_group_IT_number       1

loop_
  _space_group_symop_operation_xyz
  'x, y, z'

loop_
  _atom_site_type_symbol
  _atom_site_label
  _atom_site_symmetry_multiplicity
  _atom_site_fract_x
  _atom_site_fract_y
  _atom_site_fract_z
  _atom_site_occupancy
  Ce  Ce1       1.0  0.92000  0.31800  0.14100  1.0000
  Ce  Ce2       1.0  0.08000  0.81800  0.35900  1.0000
  Ce  Ce3       1.0  0.92000  0.18200  0.64100  1.0000
  Ce  Ce4       1.0  0.08000  0.68200  0.85900  1.0000
  P   P1        1.0  0.69400  0.87900  0.04590  1.0000
  P   P2        1.0  0.46500  0.66500  0.16300  1.0000
  P   P3        1.0  0.53500  0.16500  0.33700  1.0000
  P   P4        1.0  0.30600  0.37900  0.45400  1.0000
  P   P5        1.0  0.69400  0.62100  0.54600  1.0000
  P   P6        1.0  0.46500  0.83500  0.66300  1.0000
  P   P7        1.0  0.53500  0.33500  0.83700  1.0000
  P   P8        1.0  0.30600  0.12100  0.95400  1.0000
