data_image0
_chemical_formula_structural       Nd4Os8
_chemical_formula_sum              "Nd4 Os8"
_cell_length_a       5.36417
_cell_length_b       5.36413
_cell_length_c       9.08705
_cell_angle_alpha    90
_cell_angle_beta     90
_cell_angle_gamma    120

_space_group_name_H-M_alt    "P 1"
_space_group_IT_number       1

loop_
  _space_group_symop_operation_xyz
  'x, y, z'

loop_
  _atom_site_type_symbol
  _atom_site_label
  _atom_site_symmetry_multiplicity
  _atom_site_fract_x
  _atom_site_fract_y
  _atom_site_fract_z
  _atom_site_occupancy
  Nd  Nd1       1.0  0.33300  0.66700  0.06440  1.0000
  Nd  Nd2       1.0  0.33300  0.66700  0.43600  1.0000
  Nd  Nd3       1.0  0.66700  0.33300  0.56400  1.0000
  Nd  Nd4       1.0  0.66700  0.33300  0.93600  1.0000
  Os  Os1       1.0  0.00000  0.00000  0.00000  1.0000
  Os  Os2       1.0  0.33900  0.17000  0.25000  1.0000
  Os  Os3       1.0  0.83000  0.17000  0.25000  1.0000
  Os  Os4       1.0  0.83000  0.66100  0.25000  1.0000
  Os  Os5       1.0  0.00000  0.00000  0.50000  1.0000
  Os  Os6       1.0  0.17000  0.33900  0.75000  1.0000
  Os  Os7       1.0  0.17000  0.83000  0.75000  1.0000
  Os  Os8       1.0  0.66100  0.83000  0.75000  1.0000
