data_image0
_chemical_formula_structural       Ho2O8Ta2
_chemical_formula_sum              "Ho2 O8 Ta2"
_cell_length_a       5.05122
_cell_length_b       5.29562
_cell_length_c       6.46407
_cell_angle_alpha    111.86
_cell_angle_beta     110.588
_cell_angle_gamma    95.4743

_space_group_name_H-M_alt    "P 1"
_space_group_IT_number       1

loop_
  _space_group_symop_operation_xyz
  'x, y, z'

loop_
  _atom_site_type_symbol
  _atom_site_label
  _atom_site_symmetry_multiplicity
  _atom_site_fract_x
  _atom_site_fract_y
  _atom_site_fract_z
  _atom_site_occupancy
  Ho  Ho1       1.0  0.88100  0.63100  0.26200  1.0000
  Ho  Ho2       1.0  0.11900  0.36900  0.73800  1.0000
  O   O1        1.0  0.05870  0.27500  0.06130  1.0000
  O   O2        1.0  0.50300  0.78600  0.06130  1.0000
  O   O3        1.0  0.21400  0.05180  0.42400  1.0000
  O   O4        1.0  0.71000  0.37200  0.42400  1.0000
  O   O5        1.0  0.29000  0.62800  0.57600  1.0000
  O   O6        1.0  0.78600  0.94800  0.57600  1.0000
  O   O7        1.0  0.49700  0.21400  0.93900  1.0000
  O   O8        1.0  0.94100  0.72500  0.93900  1.0000
  Ta  Ta1       1.0  0.35200  0.10200  0.20400  1.0000
  Ta  Ta2       1.0  0.64800  0.89800  0.79600  1.0000
