data_image0
_chemical_formula_structural       Ga4Te4
_chemical_formula_sum              "Ga4 Te4"
_cell_length_a       4.11751
_cell_length_b       4.11754
_cell_length_c       17.0536
_cell_angle_alpha    90
_cell_angle_beta     90
_cell_angle_gamma    120

_space_group_name_H-M_alt    "P 1"
_space_group_IT_number       1

loop_
  _space_group_symop_operation_xyz
  'x, y, z'

loop_
  _atom_site_type_symbol
  _atom_site_label
  _atom_site_symmetry_multiplicity
  _atom_site_fract_x
  _atom_site_fract_y
  _atom_site_fract_z
  _atom_site_occupancy
  Ga  Ga1       1.0  0.33300  0.66700  0.17800  1.0000
  Ga  Ga2       1.0  0.33300  0.66700  0.32200  1.0000
  Ga  Ga3       1.0  0.66700  0.33300  0.67800  1.0000
  Ga  Ga4       1.0  0.66700  0.33300  0.82200  1.0000
  Te  Te1       1.0  0.66700  0.33300  0.10200  1.0000
  Te  Te2       1.0  0.66700  0.33300  0.39800  1.0000
  Te  Te3       1.0  0.33300  0.66700  0.60200  1.0000
  Te  Te4       1.0  0.33300  0.66700  0.89800  1.0000
