data_image0
_chemical_formula_structural       As2Ho2O8
_chemical_formula_sum              "As2 Ho2 O8"
_cell_length_a       5.88264
_cell_length_b       5.88264
_cell_length_c       5.88264
_cell_angle_alpha    106.728
_cell_angle_beta     115.109
_cell_angle_gamma    106.728

_space_group_name_H-M_alt    "P 1"
_space_group_IT_number       1

loop_
  _space_group_symop_operation_xyz
  'x, y, z'

loop_
  _atom_site_type_symbol
  _atom_site_label
  _atom_site_symmetry_multiplicity
  _atom_site_fract_x
  _atom_site_fract_y
  _atom_site_fract_z
  _atom_site_occupancy
  As  As1       1.0  0.62500  0.75000  0.37500  1.0000
  As  As2       1.0  0.37500  0.25000  0.62500  1.0000
  Ho  Ho1       1.0  0.87500  0.25000  0.12500  1.0000
  Ho  Ho2       1.0  0.12500  0.75000  0.87500  1.0000
  O   O1        1.0  0.26400  0.56600  0.19700  1.0000
  O   O2        1.0  0.63100  0.93400  0.19700  1.0000
  O   O3        1.0  0.19700  0.06630  0.26400  1.0000
  O   O4        1.0  0.80300  0.56600  0.36900  1.0000
  O   O5        1.0  0.19700  0.43400  0.63100  1.0000
  O   O6        1.0  0.80300  0.93400  0.73600  1.0000
  O   O7        1.0  0.36900  0.06630  0.80300  1.0000
  O   O8        1.0  0.73600  0.43400  0.80300  1.0000
