data_image0
_chemical_formula_structural       Li12O36P12
_chemical_formula_sum              "Li12 O36 P12"
_cell_length_a       7.75281
_cell_length_b       16.7589
_cell_length_c       5.28461
_cell_angle_alpha    90
_cell_angle_beta     99.4631
_cell_angle_gamma    90

_space_group_name_H-M_alt    "P 1"
_space_group_IT_number       1

loop_
  _space_group_symop_operation_xyz
  'x, y, z'

loop_
  _atom_site_type_symbol
  _atom_site_label
  _atom_site_symmetry_multiplicity
  _atom_site_fract_x
  _atom_site_fract_y
  _atom_site_fract_z
  _atom_site_occupancy
  Li  Li1       1.0  0.28200  0.19100  0.18400  1.0000
  Li  Li2       1.0  0.13600  0.02300  0.18800  1.0000
  Li  Li3       1.0  0.05700  0.84600  0.21700  1.0000
  Li  Li4       1.0  0.44300  0.34600  0.28300  1.0000
  Li  Li5       1.0  0.36400  0.52300  0.31200  1.0000
  Li  Li6       1.0  0.21800  0.69100  0.31600  1.0000
  Li  Li7       1.0  0.78200  0.30900  0.68400  1.0000
  Li  Li8       1.0  0.63600  0.47700  0.68800  1.0000
  Li  Li9       1.0  0.55700  0.65400  0.71700  1.0000
  Li  Li10      1.0  0.94300  0.15400  0.78300  1.0000
  Li  Li11      1.0  0.86400  0.97700  0.81200  1.0000
  Li  Li12      1.0  0.71800  0.80900  0.81600  1.0000
  O   O1        1.0  0.46400  0.25300  0.04610  1.0000
  O   O2        1.0  0.35600  0.43500  0.06350  1.0000
  O   O3        1.0  0.89400  0.06270  0.08790  1.0000
  O   O4        1.0  0.24100  0.60300  0.08890  1.0000
  O   O5        1.0  0.23600  0.77800  0.09590  1.0000
  O   O6        1.0  0.80100  0.87100  0.12600  1.0000
  O   O7        1.0  0.63600  0.99400  0.23100  1.0000
  O   O8        1.0  0.64200  0.13900  0.23600  1.0000
  O   O9        1.0  0.49100  0.86500  0.23800  1.0000
  O   O10       1.0  0.00917  0.36500  0.26200  1.0000
  O   O11       1.0  0.85800  0.63900  0.26400  1.0000
  O   O12       1.0  0.86400  0.49400  0.26900  1.0000
  O   O13       1.0  0.69900  0.37100  0.37400  1.0000
  O   O14       1.0  0.26400  0.27800  0.40400  1.0000
  O   O15       1.0  0.25900  0.10300  0.41100  1.0000
  O   O16       1.0  0.60600  0.56300  0.41200  1.0000
  O   O17       1.0  0.14400  0.93500  0.43600  1.0000
  O   O18       1.0  0.03560  0.75300  0.45400  1.0000
  O   O19       1.0  0.96400  0.24700  0.54600  1.0000
  O   O20       1.0  0.85600  0.06550  0.56400  1.0000
  O   O21       1.0  0.39400  0.43700  0.58800  1.0000
  O   O22       1.0  0.74100  0.89700  0.58900  1.0000
  O   O23       1.0  0.73600  0.72200  0.59600  1.0000
  O   O24       1.0  0.30100  0.62900  0.62600  1.0000
  O   O25       1.0  0.13600  0.50600  0.73100  1.0000
  O   O26       1.0  0.14200  0.36100  0.73600  1.0000
  O   O27       1.0  0.99100  0.63500  0.73800  1.0000
  O   O28       1.0  0.50900  0.13500  0.76200  1.0000
  O   O29       1.0  0.35800  0.86100  0.76400  1.0000
  O   O30       1.0  0.36400  0.00631  0.76900  1.0000
  O   O31       1.0  0.19900  0.12900  0.87400  1.0000
  O   O32       1.0  0.76400  0.22200  0.90400  1.0000
  O   O33       1.0  0.75900  0.39700  0.91100  1.0000
  O   O34       1.0  0.10600  0.93700  0.91200  1.0000
  O   O35       1.0  0.64400  0.56500  0.93600  1.0000
  O   O36       1.0  0.53600  0.74700  0.95400  1.0000
  P   P1        1.0  0.40300  0.80500  0.01520  1.0000
  P   P2        1.0  0.81600  0.40200  0.19500  1.0000
  P   P3        1.0  0.72400  0.56600  0.21300  1.0000
  P   P4        1.0  0.77600  0.06580  0.28700  1.0000
  P   P5        1.0  0.68400  0.90200  0.30500  1.0000
  P   P6        1.0  0.09750  0.30500  0.48500  1.0000
  P   P7        1.0  0.90300  0.69500  0.51500  1.0000
  P   P8        1.0  0.31600  0.09820  0.69500  1.0000
  P   P9        1.0  0.22400  0.93400  0.71300  1.0000
  P   P10       1.0  0.27600  0.43400  0.78700  1.0000
  P   P11       1.0  0.18400  0.59800  0.80500  1.0000
  P   P12       1.0  0.59700  0.19500  0.98500  1.0000
