data_image0
_chemical_formula_structural       Ir4P4Sr4
_chemical_formula_sum              "Ir4 P4 Sr4"
_cell_length_a       6.37638
_cell_length_b       6.37638
_cell_length_c       6.37638
_cell_angle_alpha    90
_cell_angle_beta     90
_cell_angle_gamma    90

_space_group_name_H-M_alt    "P 1"
_space_group_IT_number       1

loop_
  _space_group_symop_operation_xyz
  'x, y, z'

loop_
  _atom_site_type_symbol
  _atom_site_label
  _atom_site_symmetry_multiplicity
  _atom_site_fract_x
  _atom_site_fract_y
  _atom_site_fract_z
  _atom_site_occupancy
  Ir  Ir1       1.0  0.59100  0.90900  0.09110  1.0000
  Ir  Ir2       1.0  0.40900  0.40900  0.40900  1.0000
  Ir  Ir3       1.0  0.90900  0.09110  0.59100  1.0000
  Ir  Ir4       1.0  0.09110  0.59100  0.90900  1.0000
  P   P1        1.0  0.34000  0.66000  0.16000  1.0000
  P   P2        1.0  0.66000  0.16000  0.34000  1.0000
  P   P3        1.0  0.16000  0.34000  0.66000  1.0000
  P   P4        1.0  0.84000  0.84000  0.84000  1.0000
  Sr  Sr1       1.0  0.12000  0.12000  0.12000  1.0000
  Sr  Sr2       1.0  0.88000  0.62000  0.38000  1.0000
  Sr  Sr3       1.0  0.38000  0.88000  0.62000  1.0000
  Sr  Sr4       1.0  0.62000  0.38000  0.88000  1.0000
