data_image0
_chemical_formula_structural       Au4Yb4Zn4
_chemical_formula_sum              "Au4 Yb4 Zn4"
_cell_length_a       7.10755
_cell_length_b       4.46046
_cell_length_c       7.95966
_cell_angle_alpha    90
_cell_angle_beta     90
_cell_angle_gamma    90

_space_group_name_H-M_alt    "P 1"
_space_group_IT_number       1

loop_
  _space_group_symop_operation_xyz
  'x, y, z'

loop_
  _atom_site_type_symbol
  _atom_site_label
  _atom_site_symmetry_multiplicity
  _atom_site_fract_x
  _atom_site_fract_y
  _atom_site_fract_z
  _atom_site_occupancy
  Au  Au1       1.0  0.77800  0.25000  0.10500  1.0000
  Au  Au2       1.0  0.27800  0.25000  0.39500  1.0000
  Au  Au3       1.0  0.72200  0.75000  0.60500  1.0000
  Au  Au4       1.0  0.22200  0.75000  0.89500  1.0000
  Yb  Yb1       1.0  0.48600  0.75000  0.19600  1.0000
  Yb  Yb2       1.0  0.98600  0.75000  0.30400  1.0000
  Yb  Yb3       1.0  0.01420  0.25000  0.69600  1.0000
  Yb  Yb4       1.0  0.51400  0.25000  0.80400  1.0000
  Zn  Zn1       1.0  0.16800  0.25000  0.07410  1.0000
  Zn  Zn2       1.0  0.66800  0.25000  0.42600  1.0000
  Zn  Zn3       1.0  0.33200  0.75000  0.57400  1.0000
  Zn  Zn4       1.0  0.83200  0.75000  0.92600  1.0000
