data_image0
_chemical_formula_structural       Cr2O8Y2
_chemical_formula_sum              "Cr2 O8 Y2"
_cell_length_a       5.92574
_cell_length_b       5.92574
_cell_length_c       5.92574
_cell_angle_alpha    106.136
_cell_angle_beta     116.37
_cell_angle_gamma    106.136

_space_group_name_H-M_alt    "P 1"
_space_group_IT_number       1

loop_
  _space_group_symop_operation_xyz
  'x, y, z'

loop_
  _atom_site_type_symbol
  _atom_site_label
  _atom_site_symmetry_multiplicity
  _atom_site_fract_x
  _atom_site_fract_y
  _atom_site_fract_z
  _atom_site_occupancy
  Cr  Cr1       1.0  0.50000  0.00000  0.50000  1.0000
  Cr  Cr2       1.0  0.25000  0.50000  0.75000  1.0000
  O   O1        1.0  0.51100  0.18600  0.32500  1.0000
  O   O2        1.0  0.14000  0.81400  0.32500  1.0000
  O   O3        1.0  0.07540  0.31400  0.39000  1.0000
  O   O4        1.0  0.67500  0.81400  0.48900  1.0000
  O   O5        1.0  0.07540  0.68600  0.76100  1.0000
  O   O6        1.0  0.67500  0.18600  0.86000  1.0000
  O   O7        1.0  0.23900  0.31400  0.92500  1.0000
  O   O8        1.0  0.61000  0.68600  0.92500  1.0000
  Y   Y1        1.0  0.00000  0.00000  0.00000  1.0000
  Y   Y2        1.0  0.75000  0.50000  0.25000  1.0000
