data_image0
_chemical_formula_structural       Ce2Rh2
_chemical_formula_sum              "Ce2 Rh2"
_cell_length_a       3.9984
_cell_length_b       4.27678
_cell_length_c       5.94822
_cell_angle_alpha    90
_cell_angle_beta     70.3605
_cell_angle_gamma    90

_space_group_name_H-M_alt    "P 1"
_space_group_IT_number       1

loop_
  _space_group_symop_operation_xyz
  'x, y, z'

loop_
  _atom_site_type_symbol
  _atom_site_label
  _atom_site_symmetry_multiplicity
  _atom_site_fract_x
  _atom_site_fract_y
  _atom_site_fract_z
  _atom_site_occupancy
  Ce  Ce1       1.0  0.85800  0.25000  0.28300  1.0000
  Ce  Ce2       1.0  0.14200  0.75000  0.71700  1.0000
  Rh  Rh1       1.0  0.41600  0.75000  0.16800  1.0000
  Rh  Rh2       1.0  0.58400  0.25000  0.83200  1.0000
