data_image0
_chemical_formula_structural       As2O8Sc2
_chemical_formula_sum              "As2 O8 Sc2"
_cell_length_a       5.65376
_cell_length_b       5.65376
_cell_length_c       5.65376
_cell_angle_alpha    107.256
_cell_angle_beta     113.998
_cell_angle_gamma    107.256

_space_group_name_H-M_alt    "P 1"
_space_group_IT_number       1

loop_
  _space_group_symop_operation_xyz
  'x, y, z'

loop_
  _atom_site_type_symbol
  _atom_site_label
  _atom_site_symmetry_multiplicity
  _atom_site_fract_x
  _atom_site_fract_y
  _atom_site_fract_z
  _atom_site_occupancy
  As  As1       1.0  0.62500  0.75000  0.37500  1.0000
  As  As2       1.0  0.37500  0.25000  0.62500  1.0000
  O   O1        1.0  0.25100  0.56100  0.18900  1.0000
  O   O2        1.0  0.62800  0.93900  0.18900  1.0000
  O   O3        1.0  0.18900  0.06140  0.25100  1.0000
  O   O4        1.0  0.81100  0.56100  0.37200  1.0000
  O   O5        1.0  0.18900  0.43900  0.62800  1.0000
  O   O6        1.0  0.81100  0.93900  0.74900  1.0000
  O   O7        1.0  0.37200  0.06140  0.81100  1.0000
  O   O8        1.0  0.74900  0.43900  0.81100  1.0000
  Sc  Sc1       1.0  0.87500  0.25000  0.12500  1.0000
  Sc  Sc2       1.0  0.12500  0.75000  0.87500  1.0000
