data_image0
_chemical_formula_structural       Ce2Ni2
_chemical_formula_sum              "Ce2 Ni2"
_cell_length_a       3.90533
_cell_length_b       4.39506
_cell_length_c       5.73706
_cell_angle_alpha    90
_cell_angle_beta     70.1012
_cell_angle_gamma    90

_space_group_name_H-M_alt    "P 1"
_space_group_IT_number       1

loop_
  _space_group_symop_operation_xyz
  'x, y, z'

loop_
  _atom_site_type_symbol
  _atom_site_label
  _atom_site_symmetry_multiplicity
  _atom_site_fract_x
  _atom_site_fract_y
  _atom_site_fract_z
  _atom_site_occupancy
  Ce  Ce1       1.0  0.86300  0.25000  0.27500  1.0000
  Ce  Ce2       1.0  0.13700  0.75000  0.72500  1.0000
  Ni  Ni1       1.0  0.42800  0.75000  0.14300  1.0000
  Ni  Ni2       1.0  0.57200  0.25000  0.85700  1.0000
