data_image0
_chemical_formula_structural       Hf4Os8
_chemical_formula_sum              "Hf4 Os8"
_cell_length_a       5.20438
_cell_length_b       5.20438
_cell_length_c       8.53663
_cell_angle_alpha    90
_cell_angle_beta     90
_cell_angle_gamma    120

_space_group_name_H-M_alt    "P 1"
_space_group_IT_number       1

loop_
  _space_group_symop_operation_xyz
  'x, y, z'

loop_
  _atom_site_type_symbol
  _atom_site_label
  _atom_site_symmetry_multiplicity
  _atom_site_fract_x
  _atom_site_fract_y
  _atom_site_fract_z
  _atom_site_occupancy
  Hf  Hf1       1.0  0.33300  0.66700  0.06660  1.0000
  Hf  Hf2       1.0  0.33300  0.66700  0.43300  1.0000
  Hf  Hf3       1.0  0.66700  0.33300  0.56700  1.0000
  Hf  Hf4       1.0  0.66700  0.33300  0.93300  1.0000
  Os  Os1       1.0  0.00000  0.00000  0.00000  1.0000
  Os  Os2       1.0  0.34500  0.17300  0.25000  1.0000
  Os  Os3       1.0  0.82700  0.17300  0.25000  1.0000
  Os  Os4       1.0  0.82700  0.65500  0.25000  1.0000
  Os  Os5       1.0  0.00000  0.00000  0.50000  1.0000
  Os  Os6       1.0  0.17300  0.34500  0.75000  1.0000
  Os  Os7       1.0  0.17300  0.82700  0.75000  1.0000
  Os  Os8       1.0  0.65500  0.82700  0.75000  1.0000
