data_image0
_chemical_formula_structural       Al2BaO7Sb2
_chemical_formula_sum              "Al2 Ba1 O7 Sb2"
_cell_length_a       5.44844
_cell_length_b       5.44844
_cell_length_c       8.50861
_cell_angle_alpha    108.673
_cell_angle_beta     108.673
_cell_angle_gamma    60

_space_group_name_H-M_alt    "P 1"
_space_group_IT_number       1

loop_
  _space_group_symop_operation_xyz
  'x, y, z'

loop_
  _atom_site_type_symbol
  _atom_site_label
  _atom_site_symmetry_multiplicity
  _atom_site_fract_x
  _atom_site_fract_y
  _atom_site_fract_z
  _atom_site_occupancy
  Al  Al1       1.0  0.07250  0.07250  0.21700  1.0000
  Al  Al2       1.0  0.92800  0.92800  0.78300  1.0000
  Ba  Ba1       1.0  0.50000  0.50000  0.50000  1.0000
  O   O1        1.0  0.00000  0.00000  0.00000  1.0000
  O   O2        1.0  0.83700  0.02490  0.29500  1.0000
  O   O3        1.0  0.02490  0.43300  0.29500  1.0000
  O   O4        1.0  0.43300  0.83700  0.29500  1.0000
  O   O5        1.0  0.97500  0.16300  0.70500  1.0000
  O   O6        1.0  0.16300  0.56700  0.70500  1.0000
  O   O7        1.0  0.56700  0.97500  0.70500  1.0000
  Sb  Sb1       1.0  0.71900  0.71900  0.15800  1.0000
  Sb  Sb2       1.0  0.28100  0.28100  0.84200  1.0000
