data_image0
_chemical_formula_structural       PmV
_chemical_formula_sum              "Pm1 V1"
_cell_length_a       5.15884
_cell_length_b       5.15884
_cell_length_c       5.15884
_cell_angle_alpha    38.2197
_cell_angle_beta     38.2197
_cell_angle_gamma    38.2197

_space_group_name_H-M_alt    "P 1"
_space_group_IT_number       1

loop_
  _space_group_symop_operation_xyz
  'x, y, z'

loop_
  _atom_site_type_symbol
  _atom_site_label
  _atom_site_symmetry_multiplicity
  _atom_site_fract_x
  _atom_site_fract_y
  _atom_site_fract_z
  _atom_site_occupancy
  Pm  Pm1       1.0  0.00000  0.00000  0.00000  1.0000
  V   V1        1.0  0.50000  0.50000  0.50000  1.0000
