data_image0
_chemical_formula_structural       Eu2Nb2O8
_chemical_formula_sum              "Eu2 Nb2 O8"
_cell_length_a       5.14764
_cell_length_b       5.48515
_cell_length_c       6.61599
_cell_angle_alpha    112.963
_cell_angle_beta     111.287
_cell_angle_gamma    93.5953

_space_group_name_H-M_alt    "P 1"
_space_group_IT_number       1

loop_
  _space_group_symop_operation_xyz
  'x, y, z'

loop_
  _atom_site_type_symbol
  _atom_site_label
  _atom_site_symmetry_multiplicity
  _atom_site_fract_x
  _atom_site_fract_y
  _atom_site_fract_z
  _atom_site_occupancy
  Eu  Eu1       1.0  0.12200  0.37200  0.24400  1.0000
  Eu  Eu2       1.0  0.87800  0.62800  0.75600  1.0000
  Nb  Nb1       1.0  0.64300  0.89300  0.28600  1.0000
  Nb  Nb2       1.0  0.35700  0.10700  0.71400  1.0000
  O   O1        1.0  0.76500  0.95400  0.06970  1.0000
  O   O2        1.0  0.30400  0.61600  0.06970  1.0000
  O   O3        1.0  0.93200  0.74000  0.44300  1.0000
  O   O4        1.0  0.51100  0.20300  0.44300  1.0000
  O   O5        1.0  0.48900  0.79700  0.55700  1.0000
  O   O6        1.0  0.06760  0.26000  0.55700  1.0000
  O   O7        1.0  0.69600  0.38400  0.93000  1.0000
  O   O8        1.0  0.23500  0.04630  0.93000  1.0000
