data_image0
_chemical_formula_structural       Ga10Ni2
_chemical_formula_sum              "Ga10 Ni2"
_cell_length_a       6.3343
_cell_length_b       6.3343
_cell_length_c       6.61996
_cell_angle_alpha    118.583
_cell_angle_beta     118.583
_cell_angle_gamma    90

_space_group_name_H-M_alt    "P 1"
_space_group_IT_number       1

loop_
  _space_group_symop_operation_xyz
  'x, y, z'

loop_
  _atom_site_type_symbol
  _atom_site_label
  _atom_site_symmetry_multiplicity
  _atom_site_fract_x
  _atom_site_fract_y
  _atom_site_fract_z
  _atom_site_occupancy
  Ga  Ga1       1.0  0.00000  0.00000  0.00000  1.0000
  Ga  Ga2       1.0  0.50000  0.50000  0.00000  1.0000
  Ga  Ga3       1.0  0.49200  0.29300  0.28500  1.0000
  Ga  Ga4       1.0  0.99200  0.49200  0.28500  1.0000
  Ga  Ga5       1.0  0.29300  0.79300  0.28500  1.0000
  Ga  Ga6       1.0  0.79300  0.99200  0.28500  1.0000
  Ga  Ga7       1.0  0.20700  0.00848  0.71500  1.0000
  Ga  Ga8       1.0  0.70700  0.20700  0.71500  1.0000
  Ga  Ga9       1.0  0.00848  0.50800  0.71500  1.0000
  Ga  Ga10      1.0  0.50800  0.70700  0.71500  1.0000
  Ni  Ni1       1.0  0.25000  0.25000  0.50000  1.0000
  Ni  Ni2       1.0  0.75000  0.75000  0.50000  1.0000
