data_image0
_chemical_formula_structural       O8Si2Ti2
_chemical_formula_sum              "O8 Si2 Ti2"
_cell_length_a       4.76759
_cell_length_b       4.76759
_cell_length_c       6.17248
_cell_angle_alpha    90
_cell_angle_beta     90
_cell_angle_gamma    112.152

_space_group_name_H-M_alt    "P 1"
_space_group_IT_number       1

loop_
  _space_group_symop_operation_xyz
  'x, y, z'

loop_
  _atom_site_type_symbol
  _atom_site_label
  _atom_site_symmetry_multiplicity
  _atom_site_fract_x
  _atom_site_fract_y
  _atom_site_fract_z
  _atom_site_occupancy
  O   O1        1.0  0.23500  0.76500  0.03550  1.0000
  O   O2        1.0  0.22500  0.27200  0.25000  1.0000
  O   O3        1.0  0.72800  0.77500  0.25000  1.0000
  O   O4        1.0  0.23500  0.76500  0.46500  1.0000
  O   O5        1.0  0.76500  0.23500  0.53500  1.0000
  O   O6        1.0  0.27200  0.22500  0.75000  1.0000
  O   O7        1.0  0.77500  0.72800  0.75000  1.0000
  O   O8        1.0  0.76500  0.23500  0.96500  1.0000
  Si  Si1       1.0  0.35200  0.64800  0.25000  1.0000
  Si  Si2       1.0  0.64800  0.35200  0.75000  1.0000
  Ti  Ti1       1.0  0.00000  0.00000  0.00000  1.0000
  Ti  Ti2       1.0  0.00000  0.00000  0.50000  1.0000
