data_image0
_chemical_formula_structural       CsPr
_chemical_formula_sum              "Cs1 Pr1"
_cell_length_a       7.95671
_cell_length_b       7.95671
_cell_length_c       7.95671
_cell_angle_alpha    28.4582
_cell_angle_beta     28.4582
_cell_angle_gamma    28.4582

_space_group_name_H-M_alt    "P 1"
_space_group_IT_number       1

loop_
  _space_group_symop_operation_xyz
  'x, y, z'

loop_
  _atom_site_type_symbol
  _atom_site_label
  _atom_site_symmetry_multiplicity
  _atom_site_fract_x
  _atom_site_fract_y
  _atom_site_fract_z
  _atom_site_occupancy
  Cs  Cs1       1.0  0.00000  0.00000  0.00000  1.0000
  Pr  Pr1       1.0  0.50000  0.50000  0.50000  1.0000
