data_image0
_chemical_formula_structural       Ga2Lu2
_chemical_formula_sum              "Ga2 Lu2"
_cell_length_a       4.00286
_cell_length_b       4.22659
_cell_length_c       5.70224
_cell_angle_alpha    68.2469
_cell_angle_beta     90
_cell_angle_gamma    90

_space_group_name_H-M_alt    "P 1"
_space_group_IT_number       1

loop_
  _space_group_symop_operation_xyz
  'x, y, z'

loop_
  _atom_site_type_symbol
  _atom_site_label
  _atom_site_symmetry_multiplicity
  _atom_site_fract_x
  _atom_site_fract_y
  _atom_site_fract_z
  _atom_site_occupancy
  Ga  Ga1       1.0  0.75000  0.42100  0.15700  1.0000
  Ga  Ga2       1.0  0.25000  0.57900  0.84300  1.0000
  Lu  Lu1       1.0  0.25000  0.86100  0.27800  1.0000
  Lu  Lu2       1.0  0.75000  0.13900  0.72200  1.0000
