data_image0
_chemical_formula_structural       Ce2Pd2
_chemical_formula_sum              "Ce2 Pd2"
_cell_length_a       3.94579
_cell_length_b       4.68812
_cell_length_c       5.86337
_cell_angle_alpha    90
_cell_angle_beta     70.3376
_cell_angle_gamma    90

_space_group_name_H-M_alt    "P 1"
_space_group_IT_number       1

loop_
  _space_group_symop_operation_xyz
  'x, y, z'

loop_
  _atom_site_type_symbol
  _atom_site_label
  _atom_site_symmetry_multiplicity
  _atom_site_fract_x
  _atom_site_fract_y
  _atom_site_fract_z
  _atom_site_occupancy
  Ce  Ce1       1.0  0.86300  0.25000  0.27400  1.0000
  Ce  Ce2       1.0  0.13700  0.75000  0.72600  1.0000
  Pd  Pd1       1.0  0.41500  0.75000  0.17000  1.0000
  Pd  Pd2       1.0  0.58500  0.25000  0.83000  1.0000
