data_image0
_chemical_formula_structural       Ga4Pr8
_chemical_formula_sum              "Ga4 Pr8"
_cell_length_a       6.7732
_cell_length_b       5.18644
_cell_length_c       9.91525
_cell_angle_alpha    90
_cell_angle_beta     90
_cell_angle_gamma    90

_space_group_name_H-M_alt    "P 1"
_space_group_IT_number       1

loop_
  _space_group_symop_operation_xyz
  'x, y, z'

loop_
  _atom_site_type_symbol
  _atom_site_label
  _atom_site_symmetry_multiplicity
  _atom_site_fract_x
  _atom_site_fract_y
  _atom_site_fract_z
  _atom_site_occupancy
  Ga  Ga1       1.0  0.29700  0.25000  0.10600  1.0000
  Ga  Ga2       1.0  0.79700  0.25000  0.39400  1.0000
  Ga  Ga3       1.0  0.20300  0.75000  0.60600  1.0000
  Ga  Ga4       1.0  0.70300  0.75000  0.89400  1.0000
  Pr  Pr1       1.0  0.82900  0.25000  0.07920  1.0000
  Pr  Pr2       1.0  0.52900  0.75000  0.19100  1.0000
  Pr  Pr3       1.0  0.02920  0.75000  0.30900  1.0000
  Pr  Pr4       1.0  0.32900  0.25000  0.42100  1.0000
  Pr  Pr5       1.0  0.67100  0.75000  0.57900  1.0000
  Pr  Pr6       1.0  0.97100  0.25000  0.69100  1.0000
  Pr  Pr7       1.0  0.47100  0.25000  0.80900  1.0000
  Pr  Pr8       1.0  0.17100  0.75000  0.92100  1.0000
