data_image0
_chemical_formula_structural       Cr3O8Tl
_chemical_formula_sum              "Cr3 O8 Tl1"
_cell_length_a       5.17196
_cell_length_b       5.17196
_cell_length_c       7.54377
_cell_angle_alpha    89.561
_cell_angle_beta     89.561
_cell_angle_gamma    64.0151

_space_group_name_H-M_alt    "P 1"
_space_group_IT_number       1

loop_
  _space_group_symop_operation_xyz
  'x, y, z'

loop_
  _atom_site_type_symbol
  _atom_site_label
  _atom_site_symmetry_multiplicity
  _atom_site_fract_x
  _atom_site_fract_y
  _atom_site_fract_z
  _atom_site_occupancy
  Cr  Cr1       1.0  0.36100  0.36100  0.28800  1.0000
  Cr  Cr2       1.0  0.00000  0.00000  0.50000  1.0000
  Cr  Cr3       1.0  0.63900  0.63900  0.71200  1.0000
  O   O1        1.0  0.30500  0.30500  0.08280  1.0000
  O   O2        1.0  0.72000  0.21700  0.31500  1.0000
  O   O3        1.0  0.21700  0.72000  0.31500  1.0000
  O   O4        1.0  0.21700  0.21700  0.43200  1.0000
  O   O5        1.0  0.78300  0.78300  0.56800  1.0000
  O   O6        1.0  0.78300  0.28000  0.68500  1.0000
  O   O7        1.0  0.28000  0.78300  0.68500  1.0000
  O   O8        1.0  0.69500  0.69500  0.91700  1.0000
  Tl  Tl1       1.0  0.00000  0.00000  0.00000  1.0000
