data_image0
_chemical_formula_structural       Ga8Ni2Yb2
_chemical_formula_sum              "Ga8 Ni2 Yb2"
_cell_length_a       4.10148
_cell_length_b       6.54097
_cell_length_c       7.92041
_cell_angle_alpha    90
_cell_angle_beta     74.9941
_cell_angle_gamma    90

_space_group_name_H-M_alt    "P 1"
_space_group_IT_number       1

loop_
  _space_group_symop_operation_xyz
  'x, y, z'

loop_
  _atom_site_type_symbol
  _atom_site_label
  _atom_site_symmetry_multiplicity
  _atom_site_fract_x
  _atom_site_fract_y
  _atom_site_fract_z
  _atom_site_occupancy
  Ga  Ga1       1.0  0.00000  0.00000  0.00000  1.0000
  Ga  Ga2       1.0  0.00000  0.50000  0.00000  1.0000
  Ga  Ga3       1.0  0.43100  0.25000  0.13900  1.0000
  Ga  Ga4       1.0  0.81500  0.04930  0.37100  1.0000
  Ga  Ga5       1.0  0.81500  0.45100  0.37100  1.0000
  Ga  Ga6       1.0  0.18500  0.54900  0.62900  1.0000
  Ga  Ga7       1.0  0.18500  0.95100  0.62900  1.0000
  Ga  Ga8       1.0  0.56900  0.75000  0.86100  1.0000
  Ni  Ni1       1.0  0.27600  0.25000  0.44700  1.0000
  Ni  Ni2       1.0  0.72400  0.75000  0.55300  1.0000
  Yb  Yb1       1.0  0.37700  0.75000  0.24700  1.0000
  Yb  Yb2       1.0  0.62300  0.25000  0.75300  1.0000
