data_image0
_chemical_formula_structural       Br4Mo4S4
_chemical_formula_sum              "Br4 Mo4 S4"
_cell_length_a       7.10523
_cell_length_b       7.10523
_cell_length_c       7.10523
_cell_angle_alpha    120
_cell_angle_beta     90
_cell_angle_gamma    120

_space_group_name_H-M_alt    "P 1"
_space_group_IT_number       1

loop_
  _space_group_symop_operation_xyz
  'x, y, z'

loop_
  _atom_site_type_symbol
  _atom_site_label
  _atom_site_symmetry_multiplicity
  _atom_site_fract_x
  _atom_site_fract_y
  _atom_site_fract_z
  _atom_site_occupancy
  Br  Br1       1.0  0.38500  0.25700  0.12800  1.0000
  Br  Br2       1.0  0.87200  0.25700  0.12800  1.0000
  Br  Br3       1.0  0.87200  0.74300  0.12800  1.0000
  Br  Br4       1.0  0.87200  0.74300  0.61500  1.0000
  Mo  Mo1       1.0  0.59800  0.19700  0.40200  1.0000
  Mo  Mo2       1.0  0.20500  0.80300  0.40200  1.0000
  Mo  Mo3       1.0  0.59800  0.80300  0.40200  1.0000
  Mo  Mo4       1.0  0.59800  0.19700  0.79500  1.0000
  S   S1        1.0  0.36900  0.73700  0.10600  1.0000
  S   S2        1.0  0.89400  0.26300  0.63100  1.0000
  S   S3        1.0  0.36900  0.26300  0.63100  1.0000
  S   S4        1.0  0.36900  0.73700  0.63100  1.0000
