data_image0
_chemical_formula_structural       BaMn2Nd2O7
_chemical_formula_sum              "Ba1 Mn2 Nd2 O7"
_cell_length_a       3.91223
_cell_length_b       3.91223
_cell_length_c       10.6052
_cell_angle_alpha    100.617
_cell_angle_beta     100.617
_cell_angle_gamma    90.0662

_space_group_name_H-M_alt    "P 1"
_space_group_IT_number       1

loop_
  _space_group_symop_operation_xyz
  'x, y, z'

loop_
  _atom_site_type_symbol
  _atom_site_label
  _atom_site_symmetry_multiplicity
  _atom_site_fract_x
  _atom_site_fract_y
  _atom_site_fract_z
  _atom_site_occupancy
  Ba  Ba1       1.0  0.50000  0.50000  0.00000  1.0000
  Mn  Mn1       1.0  0.09990  0.09990  0.20000  1.0000
  Mn  Mn2       1.0  0.90000  0.90000  0.80000  1.0000
  Nd  Nd1       1.0  0.68200  0.68200  0.36400  1.0000
  Nd  Nd2       1.0  0.31800  0.31800  0.63600  1.0000
  O   O1        1.0  0.00000  0.00000  0.00000  1.0000
  O   O2        1.0  0.60800  0.10800  0.21700  1.0000
  O   O3        1.0  0.10800  0.60800  0.21700  1.0000
  O   O4        1.0  0.20600  0.20600  0.41200  1.0000
  O   O5        1.0  0.79400  0.79400  0.58800  1.0000
  O   O6        1.0  0.89200  0.39200  0.78300  1.0000
  O   O7        1.0  0.39200  0.89200  0.78300  1.0000
