data_image0
_chemical_formula_structural       Rh4Sb4
_chemical_formula_sum              "Rh4 Sb4"
_cell_length_a       6.03882
_cell_length_b       3.90437
_cell_length_c       6.39098
_cell_angle_alpha    90
_cell_angle_beta     90
_cell_angle_gamma    90

_space_group_name_H-M_alt    "P 1"
_space_group_IT_number       1

loop_
  _space_group_symop_operation_xyz
  'x, y, z'

loop_
  _atom_site_type_symbol
  _atom_site_label
  _atom_site_symmetry_multiplicity
  _atom_site_fract_x
  _atom_site_fract_y
  _atom_site_fract_z
  _atom_site_occupancy
  Rh  Rh1       1.0  0.00563  0.25000  0.19400  1.0000
  Rh  Rh2       1.0  0.50600  0.25000  0.30600  1.0000
  Rh  Rh3       1.0  0.49400  0.75000  0.69400  1.0000
  Rh  Rh4       1.0  0.99400  0.75000  0.80600  1.0000
  Sb  Sb1       1.0  0.30500  0.75000  0.09160  1.0000
  Sb  Sb2       1.0  0.80500  0.75000  0.40800  1.0000
  Sb  Sb3       1.0  0.19500  0.25000  0.59200  1.0000
  Sb  Sb4       1.0  0.69500  0.25000  0.90800  1.0000
