data_image0
_chemical_formula_structural       AuCr3O8
_chemical_formula_sum              "Au1 Cr3 O8"
_cell_length_a       5.05006
_cell_length_b       5.05006
_cell_length_c       6.97008
_cell_angle_alpha    93.9491
_cell_angle_beta     93.9491
_cell_angle_gamma    66.0594

_space_group_name_H-M_alt    "P 1"
_space_group_IT_number       1

loop_
  _space_group_symop_operation_xyz
  'x, y, z'

loop_
  _atom_site_type_symbol
  _atom_site_label
  _atom_site_symmetry_multiplicity
  _atom_site_fract_x
  _atom_site_fract_y
  _atom_site_fract_z
  _atom_site_occupancy
  Au  Au1       1.0  0.00000  0.00000  0.00000  1.0000
  Cr  Cr1       1.0  0.34600  0.34600  0.28200  1.0000
  Cr  Cr2       1.0  0.00000  0.00000  0.50000  1.0000
  Cr  Cr3       1.0  0.65400  0.65400  0.71800  1.0000
  O   O1        1.0  0.24200  0.24200  0.06960  1.0000
  O   O2        1.0  0.71300  0.21100  0.29500  1.0000
  O   O3        1.0  0.21100  0.71300  0.29500  1.0000
  O   O4        1.0  0.22700  0.22700  0.45900  1.0000
  O   O5        1.0  0.77300  0.77300  0.54100  1.0000
  O   O6        1.0  0.78900  0.28700  0.70500  1.0000
  O   O7        1.0  0.28700  0.78900  0.70500  1.0000
  O   O8        1.0  0.75800  0.75800  0.93000  1.0000
