data_image0
_chemical_formula_structural       Na2O8S2
_chemical_formula_sum              "Na2 O8 S2"
_cell_length_a       4.70671
_cell_length_b       5.4846
_cell_length_c       6.05546
_cell_angle_alpha    101.509
_cell_angle_beta     103.722
_cell_angle_gamma    97.1087

_space_group_name_H-M_alt    "P 1"
_space_group_IT_number       1

loop_
  _space_group_symop_operation_xyz
  'x, y, z'

loop_
  _atom_site_type_symbol
  _atom_site_label
  _atom_site_symmetry_multiplicity
  _atom_site_fract_x
  _atom_site_fract_y
  _atom_site_fract_z
  _atom_site_occupancy
  Na  Na1       1.0  0.03850  0.31400  0.21100  1.0000
  Na  Na2       1.0  0.96200  0.68600  0.78900  1.0000
  O   O1        1.0  0.77600  0.89800  0.10700  1.0000
  O   O2        1.0  0.31200  0.64600  0.12000  1.0000
  O   O3        1.0  0.77700  0.63500  0.39300  1.0000
  O   O4        1.0  0.58100  0.04010  0.41600  1.0000
  O   O5        1.0  0.41900  0.96000  0.58400  1.0000
  O   O6        1.0  0.22300  0.36500  0.60700  1.0000
  O   O7        1.0  0.68800  0.35400  0.88000  1.0000
  O   O8        1.0  0.22400  0.10200  0.89300  1.0000
  S   S1        1.0  0.61300  0.77700  0.24400  1.0000
  S   S2        1.0  0.38700  0.22300  0.75600  1.0000
