data_image0
_chemical_formula_structural       Eu2O8Ta2
_chemical_formula_sum              "Eu2 O8 Ta2"
_cell_length_a       5.11617
_cell_length_b       5.52552
_cell_length_c       6.57718
_cell_angle_alpha    112.76
_cell_angle_beta     110.677
_cell_angle_gamma    94.8941

_space_group_name_H-M_alt    "P 1"
_space_group_IT_number       1

loop_
  _space_group_symop_operation_xyz
  'x, y, z'

loop_
  _atom_site_type_symbol
  _atom_site_label
  _atom_site_symmetry_multiplicity
  _atom_site_fract_x
  _atom_site_fract_y
  _atom_site_fract_z
  _atom_site_occupancy
  Eu  Eu1       1.0  0.12000  0.37000  0.23900  1.0000
  Eu  Eu2       1.0  0.88000  0.63000  0.76100  1.0000
  O   O1        1.0  0.76500  0.94900  0.07560  1.0000
  O   O2        1.0  0.31100  0.62700  0.07560  1.0000
  O   O3        1.0  0.94900  0.74500  0.44500  1.0000
  O   O4        1.0  0.49600  0.20000  0.44500  1.0000
  O   O5        1.0  0.50400  0.80000  0.55500  1.0000
  O   O6        1.0  0.05100  0.25500  0.55500  1.0000
  O   O7        1.0  0.68900  0.37300  0.92400  1.0000
  O   O8        1.0  0.23500  0.05140  0.92400  1.0000
  Ta  Ta1       1.0  0.65300  0.90300  0.30600  1.0000
  Ta  Ta2       1.0  0.34700  0.09720  0.69400  1.0000
