data_image0
_chemical_formula_structural       Cr3CuO8
_chemical_formula_sum              "Cr3 Cu1 O8"
_cell_length_a       4.95345
_cell_length_b       4.95345
_cell_length_c       6.37235
_cell_angle_alpha    92.8138
_cell_angle_beta     92.8138
_cell_angle_gamma    67.3868

_space_group_name_H-M_alt    "P 1"
_space_group_IT_number       1

loop_
  _space_group_symop_operation_xyz
  'x, y, z'

loop_
  _atom_site_type_symbol
  _atom_site_label
  _atom_site_symmetry_multiplicity
  _atom_site_fract_x
  _atom_site_fract_y
  _atom_site_fract_z
  _atom_site_occupancy
  Cr  Cr1       1.0  0.35100  0.35100  0.26500  1.0000
  Cr  Cr2       1.0  0.00000  0.00000  0.50000  1.0000
  Cr  Cr3       1.0  0.64900  0.64900  0.73500  1.0000
  Cu  Cu1       1.0  0.00000  0.00000  0.00000  1.0000
  O   O1        1.0  0.23300  0.23300  0.05010  1.0000
  O   O2        1.0  0.72500  0.21400  0.26800  1.0000
  O   O3        1.0  0.21400  0.72500  0.26800  1.0000
  O   O4        1.0  0.23700  0.23700  0.47100  1.0000
  O   O5        1.0  0.76300  0.76300  0.52900  1.0000
  O   O6        1.0  0.78600  0.27500  0.73200  1.0000
  O   O7        1.0  0.27500  0.78600  0.73200  1.0000
  O   O8        1.0  0.76700  0.76700  0.95000  1.0000
