data_image0
_chemical_formula_structural       Cs2O
_chemical_formula_sum              "Cs2 O1"
_cell_length_a       4.22589
_cell_length_b       4.22589
_cell_length_c       6.85493
_cell_angle_alpha    90
_cell_angle_beta     107.953
_cell_angle_gamma    120

_space_group_name_H-M_alt    "P 1"
_space_group_IT_number       1

loop_
  _space_group_symop_operation_xyz
  'x, y, z'

loop_
  _atom_site_type_symbol
  _atom_site_label
  _atom_site_symmetry_multiplicity
  _atom_site_fract_x
  _atom_site_fract_y
  _atom_site_fract_z
  _atom_site_occupancy
  Cs  Cs1       1.0  0.48900  0.74400  0.23300  1.0000
  Cs  Cs2       1.0  0.51100  0.25600  0.76700  1.0000
  O   O1        1.0  0.00000  0.00000  0.00000  1.0000
