data_image0
_chemical_formula_structural       Cl6La4N2
_chemical_formula_sum              "Cl6 La4 N2"
_cell_length_a       6.1597
_cell_length_b       6.94518
_cell_length_c       8.33467
_cell_angle_alpha    65.3771
_cell_angle_beta     111.686
_cell_angle_gamma    90

_space_group_name_H-M_alt    "P 1"
_space_group_IT_number       1

loop_
  _space_group_symop_operation_xyz
  'x, y, z'

loop_
  _atom_site_type_symbol
  _atom_site_label
  _atom_site_symmetry_multiplicity
  _atom_site_fract_x
  _atom_site_fract_y
  _atom_site_fract_z
  _atom_site_occupancy
  Cl  Cl1       1.0  0.25000  0.50000  0.00000  1.0000
  Cl  Cl2       1.0  0.75000  0.50000  0.00000  1.0000
  Cl  Cl3       1.0  0.19800  0.61600  0.39600  1.0000
  Cl  Cl4       1.0  0.69800  0.98800  0.39600  1.0000
  Cl  Cl5       1.0  0.30200  0.01180  0.60400  1.0000
  Cl  Cl6       1.0  0.80200  0.38400  0.60400  1.0000
  La  La1       1.0  0.09380  0.08290  0.18800  1.0000
  La  La2       1.0  0.59400  0.72900  0.18800  1.0000
  La  La3       1.0  0.40600  0.27100  0.81200  1.0000
  La  La4       1.0  0.90600  0.91700  0.81200  1.0000
  N   N1        1.0  0.25000  0.00000  0.00000  1.0000
  N   N2        1.0  0.75000  0.00000  0.00000  1.0000
