data_image0
_chemical_formula_structural       Fe9Tb3
_chemical_formula_sum              "Fe9 Tb3"
_cell_length_a       5.08211
_cell_length_b       5.08211
_cell_length_c       8.61067
_cell_angle_alpha    72.8361
_cell_angle_beta     107.164
_cell_angle_gamma    120

_space_group_name_H-M_alt    "P 1"
_space_group_IT_number       1

loop_
  _space_group_symop_operation_xyz
  'x, y, z'

loop_
  _atom_site_type_symbol
  _atom_site_label
  _atom_site_symmetry_multiplicity
  _atom_site_fract_x
  _atom_site_fract_y
  _atom_site_fract_z
  _atom_site_occupancy
  Fe  Fe1       1.0  0.33300  0.66700  0.99800  1.0000
  Fe  Fe2       1.0  0.66700  0.33300  0.00191  1.0000
  Fe  Fe3       1.0  0.58100  0.41900  0.24300  1.0000
  Fe  Fe4       1.0  0.08170  0.41900  0.24300  1.0000
  Fe  Fe5       1.0  0.58100  0.91800  0.24300  1.0000
  Fe  Fe6       1.0  0.50000  0.50000  0.50000  1.0000
  Fe  Fe7       1.0  0.41900  0.08170  0.75700  1.0000
  Fe  Fe8       1.0  0.41900  0.58100  0.75700  1.0000
  Fe  Fe9       1.0  0.91800  0.58100  0.75700  1.0000
  Tb  Tb1       1.0  0.00000  0.00000  0.00000  1.0000
  Tb  Tb2       1.0  0.14200  0.85800  0.42500  1.0000
  Tb  Tb3       1.0  0.85800  0.14200  0.57500  1.0000
