data_image0
_chemical_formula_structural       Ce2In8Pd2
_chemical_formula_sum              "Ce2 In8 Pd2"
_cell_length_a       4.59875
_cell_length_b       7.40789
_cell_length_c       8.85954
_cell_angle_alpha    90
_cell_angle_beta     74.9574
_cell_angle_gamma    90

_space_group_name_H-M_alt    "P 1"
_space_group_IT_number       1

loop_
  _space_group_symop_operation_xyz
  'x, y, z'

loop_
  _atom_site_type_symbol
  _atom_site_label
  _atom_site_symmetry_multiplicity
  _atom_site_fract_x
  _atom_site_fract_y
  _atom_site_fract_z
  _atom_site_occupancy
  Ce  Ce1       1.0  0.37900  0.75000  0.24100  1.0000
  Ce  Ce2       1.0  0.62100  0.25000  0.75900  1.0000
  In  In1       1.0  0.00000  0.00000  0.00000  1.0000
  In  In2       1.0  0.00000  0.50000  0.00000  1.0000
  In  In3       1.0  0.43100  0.25000  0.13700  1.0000
  In  In4       1.0  0.81700  0.04850  0.36700  1.0000
  In  In5       1.0  0.81700  0.45100  0.36700  1.0000
  In  In6       1.0  0.18300  0.54900  0.63300  1.0000
  In  In7       1.0  0.18300  0.95100  0.63300  1.0000
  In  In8       1.0  0.56900  0.75000  0.86300  1.0000
  Pd  Pd1       1.0  0.27500  0.25000  0.45000  1.0000
  Pd  Pd2       1.0  0.72500  0.75000  0.55000  1.0000
