data_image0
_chemical_formula_structural       Cs2Ho2Te6Zn2
_chemical_formula_sum              "Cs2 Ho2 Te6 Zn2"
_cell_length_a       4.41374
_cell_length_b       8.82251
_cell_length_c       11.6903
_cell_angle_alpha    90
_cell_angle_beta     90
_cell_angle_gamma    75.5141

_space_group_name_H-M_alt    "P 1"
_space_group_IT_number       1

loop_
  _space_group_symop_operation_xyz
  'x, y, z'

loop_
  _atom_site_type_symbol
  _atom_site_label
  _atom_site_symmetry_multiplicity
  _atom_site_fract_x
  _atom_site_fract_y
  _atom_site_fract_z
  _atom_site_occupancy
  Cs  Cs1       1.0  0.74500  0.50900  0.25000  1.0000
  Cs  Cs2       1.0  0.25500  0.49100  0.75000  1.0000
  Ho  Ho1       1.0  0.00000  0.00000  0.00000  1.0000
  Ho  Ho2       1.0  0.00000  0.00000  0.50000  1.0000
  Te  Te1       1.0  0.37900  0.24100  0.05640  1.0000
  Te  Te2       1.0  0.05830  0.88300  0.25000  1.0000
  Te  Te3       1.0  0.37900  0.24100  0.44400  1.0000
  Te  Te4       1.0  0.62100  0.75900  0.55600  1.0000
  Te  Te5       1.0  0.94200  0.11700  0.75000  1.0000
  Te  Te6       1.0  0.62100  0.75900  0.94400  1.0000
  Zn  Zn1       1.0  0.46000  0.07910  0.25000  1.0000
  Zn  Zn2       1.0  0.54000  0.92100  0.75000  1.0000
