data_image0
_chemical_formula_structural       O7Sc2SrTb2
_chemical_formula_sum              "O7 Sc2 Sr1 Tb2"
_cell_length_a       4.01093
_cell_length_b       4.01093
_cell_length_c       10.4011
_cell_angle_alpha    101.101
_cell_angle_beta     101.101
_cell_angle_gamma    90.0814

_space_group_name_H-M_alt    "P 1"
_space_group_IT_number       1

loop_
  _space_group_symop_operation_xyz
  'x, y, z'

loop_
  _atom_site_type_symbol
  _atom_site_label
  _atom_site_symmetry_multiplicity
  _atom_site_fract_x
  _atom_site_fract_y
  _atom_site_fract_z
  _atom_site_occupancy
  O   O1        1.0  0.00000  0.00000  0.00000  1.0000
  O   O2        1.0  0.61300  0.11300  0.22700  1.0000
  O   O3        1.0  0.11300  0.61300  0.22700  1.0000
  O   O4        1.0  0.21100  0.21100  0.42300  1.0000
  O   O5        1.0  0.78900  0.78900  0.57700  1.0000
  O   O6        1.0  0.88700  0.38700  0.77300  1.0000
  O   O7        1.0  0.38700  0.88700  0.77300  1.0000
  Sc  Sc1       1.0  0.10300  0.10300  0.20500  1.0000
  Sc  Sc2       1.0  0.89700  0.89700  0.79500  1.0000
  Sr  Sr1       1.0  0.50000  0.50000  0.00000  1.0000
  Tb  Tb1       1.0  0.68300  0.68300  0.36500  1.0000
  Tb  Tb2       1.0  0.31700  0.31700  0.63500  1.0000
