data_image0
_chemical_formula_structural       C3Mn3N6
_chemical_formula_sum              "C3 Mn3 N6"
_cell_length_a       3.31408
_cell_length_b       3.31408
_cell_length_c       14.3
_cell_angle_alpha    90
_cell_angle_beta     90
_cell_angle_gamma    120

_space_group_name_H-M_alt    "P 1"
_space_group_IT_number       1

loop_
  _space_group_symop_operation_xyz
  'x, y, z'

loop_
  _atom_site_type_symbol
  _atom_site_label
  _atom_site_symmetry_multiplicity
  _atom_site_fract_x
  _atom_site_fract_y
  _atom_site_fract_z
  _atom_site_occupancy
  C   C1        1.0  0.33300  0.66700  0.16700  1.0000
  C   C2        1.0  0.00000  0.00000  0.50000  1.0000
  C   C3        1.0  0.66700  0.33300  0.83300  1.0000
  Mn  Mn1       1.0  0.00005  0.00003  0.00001  1.0000
  Mn  Mn2       1.0  0.66700  0.33300  0.33300  1.0000
  Mn  Mn3       1.0  0.33300  0.66700  0.66700  1.0000
  N   N1        1.0  0.33300  0.66700  0.08020  1.0000
  N   N2        1.0  0.33300  0.66700  0.25300  1.0000
  N   N3        1.0  0.00000  0.00000  0.41400  1.0000
  N   N4        1.0  0.00001  0.00000  0.58600  1.0000
  N   N5        1.0  0.66700  0.33300  0.74700  1.0000
  N   N6        1.0  0.66700  0.33300  0.92000  1.0000
