data_image0
_chemical_formula_structural       Gd2O7Sc2Sr
_chemical_formula_sum              "Gd2 O7 Sc2 Sr1"
_cell_length_a       4.01146
_cell_length_b       4.01146
_cell_length_c       10.442
_cell_angle_alpha    101.065
_cell_angle_beta     101.065
_cell_angle_gamma    90.0491

_space_group_name_H-M_alt    "P 1"
_space_group_IT_number       1

loop_
  _space_group_symop_operation_xyz
  'x, y, z'

loop_
  _atom_site_type_symbol
  _atom_site_label
  _atom_site_symmetry_multiplicity
  _atom_site_fract_x
  _atom_site_fract_y
  _atom_site_fract_z
  _atom_site_occupancy
  Gd  Gd1       1.0  0.68300  0.68300  0.36500  1.0000
  Gd  Gd2       1.0  0.31700  0.31700  0.63500  1.0000
  O   O1        1.0  0.00000  0.00000  0.00000  1.0000
  O   O2        1.0  0.61300  0.11300  0.22600  1.0000
  O   O3        1.0  0.11300  0.61300  0.22600  1.0000
  O   O4        1.0  0.21100  0.21100  0.42200  1.0000
  O   O5        1.0  0.78900  0.78900  0.57800  1.0000
  O   O6        1.0  0.88700  0.38700  0.77400  1.0000
  O   O7        1.0  0.38700  0.88700  0.77400  1.0000
  Sc  Sc1       1.0  0.10200  0.10200  0.20400  1.0000
  Sc  Sc2       1.0  0.89800  0.89800  0.79600  1.0000
  Sr  Sr1       1.0  0.50000  0.50000  0.00000  1.0000
