data_image0
_chemical_formula_structural       Cs2Sm2Te6Zn2
_chemical_formula_sum              "Cs2 Sm2 Te6 Zn2"
_cell_length_a       4.47308
_cell_length_b       8.83764
_cell_length_c       11.9002
_cell_angle_alpha    90
_cell_angle_beta     90
_cell_angle_gamma    75.3407

_space_group_name_H-M_alt    "P 1"
_space_group_IT_number       1

loop_
  _space_group_symop_operation_xyz
  'x, y, z'

loop_
  _atom_site_type_symbol
  _atom_site_label
  _atom_site_symmetry_multiplicity
  _atom_site_fract_x
  _atom_site_fract_y
  _atom_site_fract_z
  _atom_site_occupancy
  Cs  Cs1       1.0  0.74400  0.51100  0.25000  1.0000
  Cs  Cs2       1.0  0.25600  0.48900  0.75000  1.0000
  Sm  Sm1       1.0  0.00000  0.00000  0.00000  1.0000
  Sm  Sm2       1.0  0.00000  0.00000  0.50000  1.0000
  Te  Te1       1.0  0.37700  0.24500  0.06100  1.0000
  Te  Te2       1.0  0.05850  0.88300  0.25000  1.0000
  Te  Te3       1.0  0.37700  0.24500  0.43900  1.0000
  Te  Te4       1.0  0.62300  0.75500  0.56100  1.0000
  Te  Te5       1.0  0.94200  0.11700  0.75000  1.0000
  Te  Te6       1.0  0.62300  0.75500  0.93900  1.0000
  Zn  Zn1       1.0  0.46100  0.07840  0.25000  1.0000
  Zn  Zn2       1.0  0.53900  0.92200  0.75000  1.0000
