data_image0
_chemical_formula_structural       Cu2O8W2
_chemical_formula_sum              "Cu2 O8 W2"
_cell_length_a       4.59937
_cell_length_b       5.74222
_cell_length_c       4.87025
_cell_angle_alpha    90
_cell_angle_beta     91.7475
_cell_angle_gamma    90

_space_group_name_H-M_alt    "P 1"
_space_group_IT_number       1

loop_
  _space_group_symop_operation_xyz
  'x, y, z'

loop_
  _atom_site_type_symbol
  _atom_site_label
  _atom_site_symmetry_multiplicity
  _atom_site_fract_x
  _atom_site_fract_y
  _atom_site_fract_z
  _atom_site_occupancy
  Cu  Cu1       1.0  0.50000  0.66400  0.25000  1.0000
  Cu  Cu2       1.0  0.50000  0.33600  0.75000  1.0000
  O   O1        1.0  0.77900  0.89400  0.06380  1.0000
  O   O2        1.0  0.73900  0.37200  0.07940  1.0000
  O   O3        1.0  0.26100  0.37200  0.42100  1.0000
  O   O4        1.0  0.22100  0.89400  0.43600  1.0000
  O   O5        1.0  0.77900  0.10600  0.56400  1.0000
  O   O6        1.0  0.73900  0.62800  0.57900  1.0000
  O   O7        1.0  0.26100  0.62800  0.92100  1.0000
  O   O8        1.0  0.22100  0.10600  0.93600  1.0000
  W   W1        1.0  0.00000  0.17800  0.25000  1.0000
  W   W2        1.0  0.00000  0.82200  0.75000  1.0000
