data_image0
_chemical_formula_structural       Cs2Dy2Te6Zn2
_chemical_formula_sum              "Cs2 Dy2 Te6 Zn2"
_cell_length_a       4.4176
_cell_length_b       8.84238
_cell_length_c       11.7239
_cell_angle_alpha    90
_cell_angle_beta     90
_cell_angle_gamma    75.5345

_space_group_name_H-M_alt    "P 1"
_space_group_IT_number       1

loop_
  _space_group_symop_operation_xyz
  'x, y, z'

loop_
  _atom_site_type_symbol
  _atom_site_label
  _atom_site_symmetry_multiplicity
  _atom_site_fract_x
  _atom_site_fract_y
  _atom_site_fract_z
  _atom_site_occupancy
  Cs  Cs1       1.0  0.74500  0.50900  0.25000  1.0000
  Cs  Cs2       1.0  0.25500  0.49100  0.75000  1.0000
  Dy  Dy1       1.0  0.00000  0.00000  0.00000  1.0000
  Dy  Dy2       1.0  0.00000  0.00000  0.50000  1.0000
  Te  Te1       1.0  0.37900  0.24100  0.05700  1.0000
  Te  Te2       1.0  0.05840  0.88300  0.25000  1.0000
  Te  Te3       1.0  0.37900  0.24100  0.44300  1.0000
  Te  Te4       1.0  0.62100  0.75900  0.55700  1.0000
  Te  Te5       1.0  0.94200  0.11700  0.75000  1.0000
  Te  Te6       1.0  0.62100  0.75900  0.94300  1.0000
  Zn  Zn1       1.0  0.46100  0.07790  0.25000  1.0000
  Zn  Zn2       1.0  0.53900  0.92200  0.75000  1.0000
