data_image0
_chemical_formula_structural       Ir2Pb2
_chemical_formula_sum              "Ir2 Pb2"
_cell_length_a       4.1691
_cell_length_b       4.16933
_cell_length_c       5.71794
_cell_angle_alpha    90
_cell_angle_beta     90
_cell_angle_gamma    119.998

_space_group_name_H-M_alt    "P 1"
_space_group_IT_number       1

loop_
  _space_group_symop_operation_xyz
  'x, y, z'

loop_
  _atom_site_type_symbol
  _atom_site_label
  _atom_site_symmetry_multiplicity
  _atom_site_fract_x
  _atom_site_fract_y
  _atom_site_fract_z
  _atom_site_occupancy
  Ir  Ir1       1.0  0.00000  0.00000  0.00000  1.0000
  Ir  Ir2       1.0  0.00000  0.00000  0.50000  1.0000
  Pb  Pb1       1.0  0.33300  0.66700  0.25000  1.0000
  Pb  Pb2       1.0  0.66700  0.33300  0.75000  1.0000
