data_image0
_chemical_formula_structural       Cs2Te6Tm2Zn2
_chemical_formula_sum              "Cs2 Te6 Tm2 Zn2"
_cell_length_a       4.38587
_cell_length_b       8.83402
_cell_length_c       11.6197
_cell_angle_alpha    90
_cell_angle_beta     90
_cell_angle_gamma    75.6268

_space_group_name_H-M_alt    "P 1"
_space_group_IT_number       1

loop_
  _space_group_symop_operation_xyz
  'x, y, z'

loop_
  _atom_site_type_symbol
  _atom_site_label
  _atom_site_symmetry_multiplicity
  _atom_site_fract_x
  _atom_site_fract_y
  _atom_site_fract_z
  _atom_site_occupancy
  Cs  Cs1       1.0  0.74600  0.50800  0.25000  1.0000
  Cs  Cs2       1.0  0.25400  0.49200  0.75000  1.0000
  Te  Te1       1.0  0.38000  0.23900  0.05480  1.0000
  Te  Te2       1.0  0.05830  0.88300  0.25000  1.0000
  Te  Te3       1.0  0.38000  0.23900  0.44500  1.0000
  Te  Te4       1.0  0.62000  0.76100  0.55500  1.0000
  Te  Te5       1.0  0.94200  0.11700  0.75000  1.0000
  Te  Te6       1.0  0.62000  0.76100  0.94500  1.0000
  Tm  Tm1       1.0  0.00000  0.00000  0.00000  1.0000
  Tm  Tm2       1.0  0.00000  0.00000  0.50000  1.0000
  Zn  Zn1       1.0  0.46100  0.07820  0.25000  1.0000
  Zn  Zn2       1.0  0.53900  0.92200  0.75000  1.0000
