data_image0
_chemical_formula_structural       K8N3O
_chemical_formula_sum              "K8 N3 O1"
_cell_length_a       6.57726
_cell_length_b       6.57726
_cell_length_c       6.57726
_cell_angle_alpha    90
_cell_angle_beta     90
_cell_angle_gamma    90

_space_group_name_H-M_alt    "P 1"
_space_group_IT_number       1

loop_
  _space_group_symop_operation_xyz
  'x, y, z'

loop_
  _atom_site_type_symbol
  _atom_site_label
  _atom_site_symmetry_multiplicity
  _atom_site_fract_x
  _atom_site_fract_y
  _atom_site_fract_z
  _atom_site_occupancy
  K   K1        1.0  0.25400  0.24600  0.25400  1.0000
  K   K2        1.0  0.74600  0.24600  0.25400  1.0000
  K   K3        1.0  0.25400  0.75400  0.25400  1.0000
  K   K4        1.0  0.74600  0.75400  0.25400  1.0000
  K   K5        1.0  0.25400  0.24600  0.74600  1.0000
  K   K6        1.0  0.74600  0.24600  0.74600  1.0000
  K   K7        1.0  0.25400  0.75400  0.74600  1.0000
  K   K8        1.0  0.74600  0.75400  0.74600  1.0000
  N   N1        1.0  0.00000  0.00000  0.00000  1.0000
  N   N2        1.0  0.50000  0.50000  0.00000  1.0000
  N   N3        1.0  0.00000  0.50000  0.50000  1.0000
  O   O1        1.0  0.50000  0.00000  0.50000  1.0000
