data_image0
_chemical_formula_structural       Lu2Ni2Sn8
_chemical_formula_sum              "Lu2 Ni2 Sn8"
_cell_length_a       4.4149
_cell_length_b       4.45548
_cell_length_c       14.3043
_cell_angle_alpha    90
_cell_angle_beta     81.1226
_cell_angle_gamma    90

_space_group_name_H-M_alt    "P 1"
_space_group_IT_number       1

loop_
  _space_group_symop_operation_xyz
  'x, y, z'

loop_
  _atom_site_type_symbol
  _atom_site_label
  _atom_site_symmetry_multiplicity
  _atom_site_fract_x
  _atom_site_fract_y
  _atom_site_fract_z
  _atom_site_occupancy
  Lu  Lu1       1.0  0.30600  0.00000  0.38800  1.0000
  Lu  Lu2       1.0  0.69400  0.00000  0.61200  1.0000
  Ni  Ni1       1.0  0.94700  0.50000  0.10500  1.0000
  Ni  Ni2       1.0  0.05270  0.50000  0.89500  1.0000
  Sn  Sn1       1.0  0.00000  0.00000  0.00000  1.0000
  Sn  Sn2       1.0  0.50000  0.50000  0.00000  1.0000
  Sn  Sn3       1.0  0.89000  0.00000  0.22100  1.0000
  Sn  Sn4       1.0  0.38900  0.50000  0.22100  1.0000
  Sn  Sn5       1.0  0.78600  0.50000  0.42700  1.0000
  Sn  Sn6       1.0  0.21400  0.50000  0.57300  1.0000
  Sn  Sn7       1.0  0.61100  0.50000  0.77900  1.0000
  Sn  Sn8       1.0  0.11000  0.00000  0.77900  1.0000
