data_image0
_chemical_formula_structural       C4Sn2Ti6
_chemical_formula_sum              "C4 Sn2 Ti6"
_cell_length_a       3.14661
_cell_length_b       3.14663
_cell_length_c       18.7151
_cell_angle_alpha    90
_cell_angle_beta     90
_cell_angle_gamma    120

_space_group_name_H-M_alt    "P 1"
_space_group_IT_number       1

loop_
  _space_group_symop_operation_xyz
  'x, y, z'

loop_
  _atom_site_type_symbol
  _atom_site_label
  _atom_site_symmetry_multiplicity
  _atom_site_fract_x
  _atom_site_fract_y
  _atom_site_fract_z
  _atom_site_occupancy
  C   C1        1.0  0.33300  0.66700  0.93200  1.0000
  C   C2        1.0  0.66700  0.33300  0.06810  1.0000
  C   C3        1.0  0.66700  0.33300  0.43200  1.0000
  C   C4        1.0  0.33300  0.66700  0.56800  1.0000
  Sn  Sn1       1.0  0.00003  0.00006  0.25000  1.0000
  Sn  Sn2       1.0  0.00000  0.00000  0.75000  1.0000
  Ti  Ti1       1.0  0.00000  0.00000  0.00000  1.0000
  Ti  Ti2       1.0  0.33300  0.66700  0.12400  1.0000
  Ti  Ti3       1.0  0.33300  0.66700  0.37600  1.0000
  Ti  Ti4       1.0  0.00000  0.00000  0.50000  1.0000
  Ti  Ti5       1.0  0.66700  0.33300  0.62400  1.0000
  Ti  Ti6       1.0  0.66700  0.33300  0.87600  1.0000
