data_image0
_chemical_formula_structural       Al5Cu5
_chemical_formula_sum              "Al5 Cu5"
_cell_length_a       4.08694
_cell_length_b       6.36069
_cell_length_c       6.36104
_cell_angle_alpha    101.922
_cell_angle_beta     108.738
_cell_angle_gamma    108.739

_space_group_name_H-M_alt    "P 1"
_space_group_IT_number       1

loop_
  _space_group_symop_operation_xyz
  'x, y, z'

loop_
  _atom_site_type_symbol
  _atom_site_label
  _atom_site_symmetry_multiplicity
  _atom_site_fract_x
  _atom_site_fract_y
  _atom_site_fract_z
  _atom_site_occupancy
  Al  Al1       1.0  0.30500  0.46100  0.14900  1.0000
  Al  Al2       1.0  0.61600  0.99400  0.23800  1.0000
  Al  Al3       1.0  0.00000  0.50000  0.50000  1.0000
  Al  Al4       1.0  0.38400  0.00605  0.76200  1.0000
  Al  Al5       1.0  0.69500  0.53900  0.85100  1.0000
  Cu  Cu1       1.0  0.00000  0.00000  0.00000  1.0000
  Cu  Cu2       1.0  0.01780  0.75900  0.27600  1.0000
  Cu  Cu3       1.0  0.33700  0.22700  0.44600  1.0000
  Cu  Cu4       1.0  0.66300  0.77300  0.55400  1.0000
  Cu  Cu5       1.0  0.98200  0.24100  0.72400  1.0000
