data_image0
_chemical_formula_structural       Ag2Na6S4
_chemical_formula_sum              "Ag2 Na6 S4"
_cell_length_a       6.41181
_cell_length_b       6.9542
_cell_length_c       7.86784
_cell_angle_alpha    116.228
_cell_angle_beta     114.046
_cell_angle_gamma    90

_space_group_name_H-M_alt    "P 1"
_space_group_IT_number       1

loop_
  _space_group_symop_operation_xyz
  'x, y, z'

loop_
  _atom_site_type_symbol
  _atom_site_label
  _atom_site_symmetry_multiplicity
  _atom_site_fract_x
  _atom_site_fract_y
  _atom_site_fract_z
  _atom_site_occupancy
  Ag  Ag1       1.0  0.00000  0.00000  0.00000  1.0000
  Ag  Ag2       1.0  0.00000  0.50000  0.00000  1.0000
  Na  Na1       1.0  0.50000  0.25000  0.00000  1.0000
  Na  Na2       1.0  0.50000  0.75000  0.00000  1.0000
  Na  Na3       1.0  0.23100  0.48100  0.46200  1.0000
  Na  Na4       1.0  0.23100  0.98100  0.46200  1.0000
  Na  Na5       1.0  0.76900  0.01880  0.53800  1.0000
  Na  Na6       1.0  0.76900  0.51900  0.53800  1.0000
  S   S1        1.0  0.40400  0.13200  0.26300  1.0000
  S   S2        1.0  0.86000  0.63200  0.26300  1.0000
  S   S3        1.0  0.14000  0.36800  0.73700  1.0000
  S   S4        1.0  0.59600  0.86800  0.73700  1.0000
