data_image0
_chemical_formula_structural       Ge2Hf2O8
_chemical_formula_sum              "Ge2 Hf2 O8"
_cell_length_a       4.85112
_cell_length_b       4.85112
_cell_length_c       6.25953
_cell_angle_alpha    112.799
_cell_angle_beta     112.799
_cell_angle_gamma    90

_space_group_name_H-M_alt    "P 1"
_space_group_IT_number       1

loop_
  _space_group_symop_operation_xyz
  'x, y, z'

loop_
  _atom_site_type_symbol
  _atom_site_label
  _atom_site_symmetry_multiplicity
  _atom_site_fract_x
  _atom_site_fract_y
  _atom_site_fract_z
  _atom_site_occupancy
  Ge  Ge1       1.0  0.00000  0.00000  0.00000  1.0000
  Ge  Ge2       1.0  0.25000  0.75000  0.50000  1.0000
  Hf  Hf1       1.0  0.50000  0.50000  0.00000  1.0000
  Hf  Hf2       1.0  0.75000  0.25000  0.50000  1.0000
  O   O1        1.0  0.35200  0.25800  0.16600  1.0000
  O   O2        1.0  0.81400  0.90900  0.16600  1.0000
  O   O3        1.0  0.89800  0.49200  0.33400  1.0000
  O   O4        1.0  0.43600  0.84100  0.33400  1.0000
  O   O5        1.0  0.15900  0.10200  0.66600  1.0000
  O   O6        1.0  0.50800  0.56400  0.66600  1.0000
  O   O7        1.0  0.74200  0.18600  0.83400  1.0000
  O   O8        1.0  0.09120  0.64800  0.83400  1.0000
