data_image0
_chemical_formula_structural       Cs2La2Te6Zn2
_chemical_formula_sum              "Cs2 La2 Te6 Zn2"
_cell_length_a       4.57108
_cell_length_b       8.82952
_cell_length_c       12.2129
_cell_angle_alpha    90
_cell_angle_beta     90
_cell_angle_gamma    74.9981

_space_group_name_H-M_alt    "P 1"
_space_group_IT_number       1

loop_
  _space_group_symop_operation_xyz
  'x, y, z'

loop_
  _atom_site_type_symbol
  _atom_site_label
  _atom_site_symmetry_multiplicity
  _atom_site_fract_x
  _atom_site_fract_y
  _atom_site_fract_z
  _atom_site_occupancy
  Cs  Cs1       1.0  0.74300  0.51400  0.25000  1.0000
  Cs  Cs2       1.0  0.25700  0.48600  0.75000  1.0000
  La  La1       1.0  0.00000  0.00000  0.00000  1.0000
  La  La2       1.0  0.00000  0.00000  0.50000  1.0000
  Te  Te1       1.0  0.37500  0.25000  0.06670  1.0000
  Te  Te2       1.0  0.05740  0.88500  0.25000  1.0000
  Te  Te3       1.0  0.37500  0.25000  0.43300  1.0000
  Te  Te4       1.0  0.62500  0.75000  0.56700  1.0000
  Te  Te5       1.0  0.94300  0.11500  0.75000  1.0000
  Te  Te6       1.0  0.62500  0.75000  0.93300  1.0000
  Zn  Zn1       1.0  0.46000  0.07950  0.25000  1.0000
  Zn  Zn2       1.0  0.54000  0.92100  0.75000  1.0000
