data_image0
_chemical_formula_structural       Cs2Nd2Te6Zn2
_chemical_formula_sum              "Cs2 Nd2 Te6 Zn2"
_cell_length_a       4.51029
_cell_length_b       8.8493
_cell_length_c       12.0172
_cell_angle_alpha    90
_cell_angle_beta     90
_cell_angle_gamma    75.236

_space_group_name_H-M_alt    "P 1"
_space_group_IT_number       1

loop_
  _space_group_symop_operation_xyz
  'x, y, z'

loop_
  _atom_site_type_symbol
  _atom_site_label
  _atom_site_symmetry_multiplicity
  _atom_site_fract_x
  _atom_site_fract_y
  _atom_site_fract_z
  _atom_site_occupancy
  Cs  Cs1       1.0  0.74400  0.51200  0.25000  1.0000
  Cs  Cs2       1.0  0.25600  0.48800  0.75000  1.0000
  Nd  Nd1       1.0  0.00000  0.00000  0.00000  1.0000
  Nd  Nd2       1.0  0.00000  0.00000  0.50000  1.0000
  Te  Te1       1.0  0.37700  0.24700  0.06360  1.0000
  Te  Te2       1.0  0.05850  0.88300  0.25000  1.0000
  Te  Te3       1.0  0.37700  0.24700  0.43600  1.0000
  Te  Te4       1.0  0.62300  0.75300  0.56400  1.0000
  Te  Te5       1.0  0.94200  0.11700  0.75000  1.0000
  Te  Te6       1.0  0.62300  0.75300  0.93600  1.0000
  Zn  Zn1       1.0  0.46100  0.07810  0.25000  1.0000
  Zn  Zn2       1.0  0.53900  0.92200  0.75000  1.0000
