data_image0
_chemical_formula_structural       Cd2Cs2Dy2Te6
_chemical_formula_sum              "Cd2 Cs2 Dy2 Te6"
_cell_length_a       8.83801
_cell_length_b       4.5265
_cell_length_c       11.8536
_cell_angle_alpha    90
_cell_angle_beta     90
_cell_angle_gamma    104.838

_space_group_name_H-M_alt    "P 1"
_space_group_IT_number       1

loop_
  _space_group_symop_operation_xyz
  'x, y, z'

loop_
  _atom_site_type_symbol
  _atom_site_label
  _atom_site_symmetry_multiplicity
  _atom_site_fract_x
  _atom_site_fract_y
  _atom_site_fract_z
  _atom_site_occupancy
  Cd  Cd1       1.0  0.08020  0.54000  0.25000  1.0000
  Cd  Cd2       1.0  0.92000  0.46000  0.75000  1.0000
  Cs  Cs1       1.0  0.50200  0.25100  0.25000  1.0000
  Cs  Cs2       1.0  0.49800  0.74900  0.75000  1.0000
  Dy  Dy1       1.0  0.00000  0.00000  0.00000  1.0000
  Dy  Dy2       1.0  0.00000  0.00000  0.50000  1.0000
  Te  Te1       1.0  0.24600  0.62300  0.04470  1.0000
  Te  Te2       1.0  0.87100  0.93600  0.25000  1.0000
  Te  Te3       1.0  0.24600  0.62300  0.45500  1.0000
  Te  Te4       1.0  0.75400  0.37700  0.54500  1.0000
  Te  Te5       1.0  0.12900  0.06440  0.75000  1.0000
  Te  Te6       1.0  0.75400  0.37700  0.95500  1.0000
