data_image0
_chemical_formula_structural       Cd2Cs2La2Te6
_chemical_formula_sum              "Cd2 Cs2 La2 Te6"
_cell_length_a       8.82619
_cell_length_b       4.68194
_cell_length_c       12.2437
_cell_angle_alpha    90
_cell_angle_beta     90
_cell_angle_gamma    105.381

_space_group_name_H-M_alt    "P 1"
_space_group_IT_number       1

loop_
  _space_group_symop_operation_xyz
  'x, y, z'

loop_
  _atom_site_type_symbol
  _atom_site_label
  _atom_site_symmetry_multiplicity
  _atom_site_fract_x
  _atom_site_fract_y
  _atom_site_fract_z
  _atom_site_occupancy
  Cd  Cd1       1.0  0.92200  0.46100  0.25000  1.0000
  Cd  Cd2       1.0  0.07850  0.53900  0.75000  1.0000
  Cs  Cs1       1.0  0.49400  0.74700  0.25000  1.0000
  Cs  Cs2       1.0  0.50600  0.25300  0.75000  1.0000
  La  La1       1.0  0.00000  0.00000  0.00000  1.0000
  La  La2       1.0  0.00000  0.00000  0.50000  1.0000
  Te  Te1       1.0  0.74700  0.37400  0.05360  1.0000
  Te  Te2       1.0  0.13000  0.06500  0.25000  1.0000
  Te  Te3       1.0  0.74700  0.37400  0.44600  1.0000
  Te  Te4       1.0  0.25300  0.62600  0.55400  1.0000
  Te  Te5       1.0  0.87000  0.93500  0.75000  1.0000
  Te  Te6       1.0  0.25300  0.62600  0.94600  1.0000
