data_image0
_chemical_formula_structural       Cd2Cs2Nd2Te6
_chemical_formula_sum              "Cd2 Cs2 Nd2 Te6"
_cell_length_a       8.7866
_cell_length_b       4.61925
_cell_length_c       12.1019
_cell_angle_alpha    90
_cell_angle_beta     90
_cell_angle_gamma    105.24

_space_group_name_H-M_alt    "P 1"
_space_group_IT_number       1

loop_
  _space_group_symop_operation_xyz
  'x, y, z'

loop_
  _atom_site_type_symbol
  _atom_site_label
  _atom_site_symmetry_multiplicity
  _atom_site_fract_x
  _atom_site_fract_y
  _atom_site_fract_z
  _atom_site_occupancy
  Cd  Cd1       1.0  0.07910  0.54000  0.25000  1.0000
  Cd  Cd2       1.0  0.92100  0.46000  0.75000  1.0000
  Cs  Cs1       1.0  0.50700  0.25300  0.25000  1.0000
  Cs  Cs2       1.0  0.49300  0.74700  0.75000  1.0000
  Nd  Nd1       1.0  0.00000  0.00000  0.00000  1.0000
  Nd  Nd2       1.0  0.00000  0.00000  0.50000  1.0000
  Te  Te1       1.0  0.25400  0.62700  0.05090  1.0000
  Te  Te2       1.0  0.87000  0.93500  0.25000  1.0000
  Te  Te3       1.0  0.25400  0.62700  0.44900  1.0000
  Te  Te4       1.0  0.74600  0.37300  0.55100  1.0000
  Te  Te5       1.0  0.13000  0.06490  0.75000  1.0000
  Te  Te6       1.0  0.74600  0.37300  0.94900  1.0000
