data_image0
_chemical_formula_structural       K4O6Pb4
_chemical_formula_sum              "K4 O6 Pb4"
_cell_length_a       7.28047
_cell_length_b       7.28047
_cell_length_c       7.28047
_cell_angle_alpha    109.471
_cell_angle_beta     109.471
_cell_angle_gamma    109.471

_space_group_name_H-M_alt    "P 1"
_space_group_IT_number       1

loop_
  _space_group_symop_operation_xyz
  'x, y, z'

loop_
  _atom_site_type_symbol
  _atom_site_label
  _atom_site_symmetry_multiplicity
  _atom_site_fract_x
  _atom_site_fract_y
  _atom_site_fract_z
  _atom_site_occupancy
  K   K1        1.0  0.00000  0.95100  0.00000  1.0000
  K   K2        1.0  0.45100  0.00000  0.50000  1.0000
  K   K3        1.0  0.04940  0.54900  0.54900  1.0000
  K   K4        1.0  0.50000  0.50000  0.95100  1.0000
  O   O1        1.0  0.29500  0.75000  0.04460  1.0000
  O   O2        1.0  0.95500  0.70500  0.25000  1.0000
  O   O3        1.0  0.20500  0.25000  0.45500  1.0000
  O   O4        1.0  0.75000  0.45500  0.70500  1.0000
  O   O5        1.0  0.54500  0.79500  0.75000  1.0000
  O   O6        1.0  0.25000  0.04460  0.79500  1.0000
  Pb  Pb1       1.0  0.00000  0.47900  0.00000  1.0000
  Pb  Pb2       1.0  0.52100  0.02060  0.02060  1.0000
  Pb  Pb3       1.0  0.50000  0.50000  0.47900  1.0000
  Pb  Pb4       1.0  0.97900  0.00000  0.50000  1.0000
