data_image0
_chemical_formula_structural       Cr2O8Re2
_chemical_formula_sum              "Cr2 O8 Re2"
_cell_length_a       4.67189
_cell_length_b       5.48983
_cell_length_c       5.48983
_cell_angle_alpha    62.8955
_cell_angle_beta     91.8063
_cell_angle_gamma    91.8063

_space_group_name_H-M_alt    "P 1"
_space_group_IT_number       1

loop_
  _space_group_symop_operation_xyz
  'x, y, z'

loop_
  _atom_site_type_symbol
  _atom_site_label
  _atom_site_symmetry_multiplicity
  _atom_site_fract_x
  _atom_site_fract_y
  _atom_site_fract_z
  _atom_site_occupancy
  Cr  Cr1       1.0  0.49300  0.26400  0.26400  1.0000
  Cr  Cr2       1.0  0.50700  0.73600  0.73600  1.0000
  O   O1        1.0  0.70700  0.61400  0.09020  1.0000
  O   O2        1.0  0.77800  0.11400  0.11400  1.0000
  O   O3        1.0  0.29300  0.91000  0.38600  1.0000
  O   O4        1.0  0.19000  0.41100  0.41100  1.0000
  O   O5        1.0  0.81000  0.58900  0.58900  1.0000
  O   O6        1.0  0.70700  0.09020  0.61400  1.0000
  O   O7        1.0  0.22200  0.88600  0.88600  1.0000
  O   O8        1.0  0.29300  0.38600  0.91000  1.0000
  Re  Re1       1.0  0.00000  0.77900  0.22100  1.0000
  Re  Re2       1.0  0.00000  0.22100  0.77900  1.0000
