data_image0
_chemical_formula_structural       Cd2Cs2Te6Tm2
_chemical_formula_sum              "Cd2 Cs2 Te6 Tm2"
_cell_length_a       8.85961
_cell_length_b       4.49134
_cell_length_c       11.769
_cell_angle_alpha    90
_cell_angle_beta     90
_cell_angle_gamma    104.683

_space_group_name_H-M_alt    "P 1"
_space_group_IT_number       1

loop_
  _space_group_symop_operation_xyz
  'x, y, z'

loop_
  _atom_site_type_symbol
  _atom_site_label
  _atom_site_symmetry_multiplicity
  _atom_site_fract_x
  _atom_site_fract_y
  _atom_site_fract_z
  _atom_site_occupancy
  Cd  Cd1       1.0  0.08120  0.54100  0.25000  1.0000
  Cd  Cd2       1.0  0.91900  0.45900  0.75000  1.0000
  Cs  Cs1       1.0  0.50100  0.25000  0.25000  1.0000
  Cs  Cs2       1.0  0.49900  0.75000  0.75000  1.0000
  Te  Te1       1.0  0.24200  0.62100  0.04240  1.0000
  Te  Te2       1.0  0.87200  0.93600  0.25000  1.0000
  Te  Te3       1.0  0.24200  0.62100  0.45800  1.0000
  Te  Te4       1.0  0.75800  0.37900  0.54200  1.0000
  Te  Te5       1.0  0.12800  0.06390  0.75000  1.0000
  Te  Te6       1.0  0.75800  0.37900  0.95800  1.0000
  Tm  Tm1       1.0  0.00000  0.00000  0.00000  1.0000
  Tm  Tm2       1.0  0.00000  0.00000  0.50000  1.0000
