data_image0
_chemical_formula_structural       K6Si2Te6
_chemical_formula_sum              "K6 Si2 Te6"
_cell_length_a       8.48799
_cell_length_b       8.48799
_cell_length_c       8.96374
_cell_angle_alpha    105.258
_cell_angle_beta     105.258
_cell_angle_gamma    109.811

_space_group_name_H-M_alt    "P 1"
_space_group_IT_number       1

loop_
  _space_group_symop_operation_xyz
  'x, y, z'

loop_
  _atom_site_type_symbol
  _atom_site_label
  _atom_site_symmetry_multiplicity
  _atom_site_fract_x
  _atom_site_fract_y
  _atom_site_fract_z
  _atom_site_occupancy
  K   K1        1.0  0.50000  0.00000  0.00000  1.0000
  K   K2        1.0  0.00000  0.50000  0.00000  1.0000
  K   K3        1.0  0.79200  0.79200  0.32400  1.0000
  K   K4        1.0  0.65800  0.34200  0.50000  1.0000
  K   K5        1.0  0.34200  0.65800  0.50000  1.0000
  K   K6        1.0  0.20800  0.20800  0.67600  1.0000
  Si  Si1       1.0  0.10700  0.10700  0.13900  1.0000
  Si  Si2       1.0  0.89300  0.89300  0.86100  1.0000
  Te  Te1       1.0  0.36100  0.36100  0.12100  1.0000
  Te  Te2       1.0  0.94800  0.24700  0.29700  1.0000
  Te  Te3       1.0  0.24700  0.94800  0.29700  1.0000
  Te  Te4       1.0  0.75300  0.05150  0.70300  1.0000
  Te  Te5       1.0  0.05150  0.75300  0.70300  1.0000
  Te  Te6       1.0  0.63900  0.63900  0.87900  1.0000
