data_image0
_chemical_formula_structural       I2In2
_chemical_formula_sum              "I2 In2"
_cell_length_a       4.78624
_cell_length_b       4.90912
_cell_length_c       6.8571
_cell_angle_alpha    90
_cell_angle_beta     69.5739
_cell_angle_gamma    90

_space_group_name_H-M_alt    "P 1"
_space_group_IT_number       1

loop_
  _space_group_symop_operation_xyz
  'x, y, z'

loop_
  _atom_site_type_symbol
  _atom_site_label
  _atom_site_symmetry_multiplicity
  _atom_site_fract_x
  _atom_site_fract_y
  _atom_site_fract_z
  _atom_site_occupancy
  I   I1        1.0  0.85500  0.25000  0.28900  1.0000
  I   I2        1.0  0.14500  0.75000  0.71100  1.0000
  In  In1       1.0  0.39800  0.75000  0.20400  1.0000
  In  In2       1.0  0.60200  0.25000  0.79600  1.0000
