data_image0
_chemical_formula_structural       Mo2Pt4Si6
_chemical_formula_sum              "Mo2 Pt4 Si6"
_cell_length_a       3.50658
_cell_length_b       9.24146
_cell_length_c       5.53135
_cell_angle_alpha    90
_cell_angle_beta     90
_cell_angle_gamma    90

_space_group_name_H-M_alt    "P 1"
_space_group_IT_number       1

loop_
  _space_group_symop_operation_xyz
  'x, y, z'

loop_
  _atom_site_type_symbol
  _atom_site_label
  _atom_site_symmetry_multiplicity
  _atom_site_fract_x
  _atom_site_fract_y
  _atom_site_fract_z
  _atom_site_occupancy
  Mo  Mo1       1.0  0.00000  0.60500  0.99900  1.0000
  Mo  Mo2       1.0  0.00000  0.39500  0.49900  1.0000
  Pt  Pt1       1.0  0.00000  0.28500  0.00000  1.0000
  Pt  Pt2       1.0  0.50000  0.02980  0.00095  1.0000
  Pt  Pt3       1.0  0.00000  0.71500  0.50000  1.0000
  Pt  Pt4       1.0  0.50000  0.97000  0.50100  1.0000
  Si  Si1       1.0  0.50000  0.43500  0.17300  1.0000
  Si  Si2       1.0  0.50000  0.77700  0.18400  1.0000
  Si  Si3       1.0  0.00000  0.12700  0.34500  1.0000
  Si  Si4       1.0  0.50000  0.56500  0.67300  1.0000
  Si  Si5       1.0  0.50000  0.22300  0.68400  1.0000
  Si  Si6       1.0  0.00000  0.87300  0.84500  1.0000
