data_image0
_chemical_formula_structural       Cd2Cs2Sm2Te6
_chemical_formula_sum              "Cd2 Cs2 Sm2 Te6"
_cell_length_a       4.58479
_cell_length_b       8.79202
_cell_length_c       12.0064
_cell_angle_alpha    90
_cell_angle_beta     90
_cell_angle_gamma    74.8863

_space_group_name_H-M_alt    "P 1"
_space_group_IT_number       1

loop_
  _space_group_symop_operation_xyz
  'x, y, z'

loop_
  _atom_site_type_symbol
  _atom_site_label
  _atom_site_symmetry_multiplicity
  _atom_site_fract_x
  _atom_site_fract_y
  _atom_site_fract_z
  _atom_site_occupancy
  Cd  Cd1       1.0  0.96000  0.07940  0.25000  1.0000
  Cd  Cd2       1.0  0.03970  0.92100  0.75000  1.0000
  Cs  Cs1       1.0  0.24700  0.50600  0.25000  1.0000
  Cs  Cs2       1.0  0.75300  0.49400  0.75000  1.0000
  Sm  Sm1       1.0  0.50000  0.00000  0.00000  1.0000
  Sm  Sm2       1.0  0.50000  0.00000  0.50000  1.0000
  Te  Te1       1.0  0.87400  0.25100  0.04880  1.0000
  Te  Te2       1.0  0.56500  0.87000  0.25000  1.0000
  Te  Te3       1.0  0.87400  0.25100  0.45100  1.0000
  Te  Te4       1.0  0.12600  0.74900  0.54900  1.0000
  Te  Te5       1.0  0.43500  0.13000  0.75000  1.0000
  Te  Te6       1.0  0.12600  0.74900  0.95100  1.0000
