data_image0
_chemical_formula_structural       F2K3NaO6P2
_chemical_formula_sum              "F2 K3 Na1 O6 P2"
_cell_length_a       5.67656
_cell_length_b       5.67656
_cell_length_c       7.29041
_cell_angle_alpha    89.9974
_cell_angle_beta     90.0026
_cell_angle_gamma    119.99

_space_group_name_H-M_alt    "P 1"
_space_group_IT_number       1

loop_
  _space_group_symop_operation_xyz
  'x, y, z'

loop_
  _atom_site_type_symbol
  _atom_site_label
  _atom_site_symmetry_multiplicity
  _atom_site_fract_x
  _atom_site_fract_y
  _atom_site_fract_z
  _atom_site_occupancy
  F   F1        1.0  0.33300  0.66700  0.48100  1.0000
  F   F2        1.0  0.66700  0.33300  0.51900  1.0000
  K   K1        1.0  0.66700  0.33300  0.17200  1.0000
  K   K2        1.0  0.00000  0.00000  0.50000  1.0000
  K   K3        1.0  0.33300  0.66700  0.82800  1.0000
  Na  Na1       1.0  0.00000  0.00000  0.00000  1.0000
  O   O1        1.0  0.63300  0.81700  0.20600  1.0000
  O   O2        1.0  0.18300  0.36700  0.20600  1.0000
  O   O3        1.0  0.18300  0.81700  0.20600  1.0000
  O   O4        1.0  0.81700  0.18300  0.79400  1.0000
  O   O5        1.0  0.81700  0.63300  0.79400  1.0000
  O   O6        1.0  0.36700  0.18300  0.79400  1.0000
  P   P1        1.0  0.33300  0.66700  0.25500  1.0000
  P   P2        1.0  0.66700  0.33300  0.74500  1.0000
