data_image0
_chemical_formula_structural       Cl4N4S6
_chemical_formula_sum              "Cl4 N4 S6"
_cell_length_a       6.59187
_cell_length_b       8.67949
_cell_length_c       5.46762
_cell_angle_alpha    90
_cell_angle_beta     102.401
_cell_angle_gamma    90

_space_group_name_H-M_alt    "P 1"
_space_group_IT_number       1

loop_
  _space_group_symop_operation_xyz
  'x, y, z'

loop_
  _atom_site_type_symbol
  _atom_site_label
  _atom_site_symmetry_multiplicity
  _atom_site_fract_x
  _atom_site_fract_y
  _atom_site_fract_z
  _atom_site_occupancy
  Cl  Cl1       1.0  0.19500  0.64700  0.09290  1.0000
  Cl  Cl2       1.0  0.09800  0.99400  0.49600  1.0000
  Cl  Cl3       1.0  0.90200  0.49400  0.50400  1.0000
  Cl  Cl4       1.0  0.80500  0.14700  0.90700  1.0000
  N   N1        1.0  0.47600  0.01270  0.23900  1.0000
  N   N2        1.0  0.45500  0.30400  0.25100  1.0000
  N   N3        1.0  0.54500  0.80400  0.74900  1.0000
  N   N4        1.0  0.52400  0.51300  0.76100  1.0000
  S   S1        1.0  0.21500  0.27500  0.11800  1.0000
  S   S2        1.0  0.23300  0.02550  0.15600  1.0000
  S   S3        1.0  0.61400  0.16900  0.31200  1.0000
  S   S4        1.0  0.38600  0.66900  0.68800  1.0000
  S   S5        1.0  0.76700  0.52500  0.84400  1.0000
  S   S6        1.0  0.78500  0.77500  0.88200  1.0000
