data_image0
_chemical_formula_structural       Nb6Te8
_chemical_formula_sum              "Nb6 Te8"
_cell_length_a       10.8224
_cell_length_b       10.8178
_cell_length_c       3.65113
_cell_angle_alpha    90
_cell_angle_beta     90
_cell_angle_gamma    119.996

_space_group_name_H-M_alt    "P 1"
_space_group_IT_number       1

loop_
  _space_group_symop_operation_xyz
  'x, y, z'

loop_
  _atom_site_type_symbol
  _atom_site_label
  _atom_site_symmetry_multiplicity
  _atom_site_fract_x
  _atom_site_fract_y
  _atom_site_fract_z
  _atom_site_occupancy
  Nb  Nb1       1.0  0.48900  0.10200  0.25000  1.0000
  Nb  Nb2       1.0  0.89700  0.38700  0.25000  1.0000
  Nb  Nb3       1.0  0.61300  0.51100  0.25000  1.0000
  Nb  Nb4       1.0  0.38700  0.48900  0.75000  1.0000
  Nb  Nb5       1.0  0.10300  0.61300  0.75000  1.0000
  Nb  Nb6       1.0  0.51100  0.89800  0.75000  1.0000
  Te  Te1       1.0  0.72800  0.06560  0.25000  1.0000
  Te  Te2       1.0  0.33800  0.27200  0.25000  1.0000
  Te  Te3       1.0  0.93400  0.66200  0.25000  1.0000
  Te  Te4       1.0  0.33300  0.66700  0.25000  1.0000
  Te  Te5       1.0  0.66700  0.33300  0.75000  1.0000
  Te  Te6       1.0  0.06570  0.33800  0.75000  1.0000
  Te  Te7       1.0  0.66200  0.72800  0.75000  1.0000
  Te  Te8       1.0  0.27200  0.93400  0.75000  1.0000
