data_image0
_chemical_formula_structural       Cu2S8V4
_chemical_formula_sum              "Cu2 S8 V4"
_cell_length_a       6.95596
_cell_length_b       6.95596
_cell_length_c       6.95596
_cell_angle_alpha    120
_cell_angle_beta     90
_cell_angle_gamma    120

_space_group_name_H-M_alt    "P 1"
_space_group_IT_number       1

loop_
  _space_group_symop_operation_xyz
  'x, y, z'

loop_
  _atom_site_type_symbol
  _atom_site_label
  _atom_site_symmetry_multiplicity
  _atom_site_fract_x
  _atom_site_fract_y
  _atom_site_fract_z
  _atom_site_occupancy
  Cu  Cu1       1.0  0.00000  0.00000  0.00000  1.0000
  Cu  Cu2       1.0  0.75000  0.50000  0.25000  1.0000
  S   S1        1.0  0.61900  0.23800  0.38100  1.0000
  S   S2        1.0  0.14300  0.76200  0.38100  1.0000
  S   S3        1.0  0.61900  0.76200  0.38100  1.0000
  S   S4        1.0  0.13100  0.26200  0.39300  1.0000
  S   S5        1.0  0.61900  0.23800  0.85700  1.0000
  S   S6        1.0  0.13100  0.26200  0.86900  1.0000
  S   S7        1.0  0.13100  0.73800  0.86900  1.0000
  S   S8        1.0  0.60700  0.73800  0.86900  1.0000
  V   V1        1.0  0.37500  0.75000  0.12500  1.0000
  V   V2        1.0  0.37500  0.25000  0.62500  1.0000
  V   V3        1.0  0.37500  0.75000  0.62500  1.0000
  V   V4        1.0  0.87500  0.25000  0.62500  1.0000
