data_image0
_chemical_formula_structural       O10Te4
_chemical_formula_sum              "O10 Te4"
_cell_length_a       5.4088
_cell_length_b       4.66887
_cell_length_c       7.87094
_cell_angle_alpha    90
_cell_angle_beta     105.682
_cell_angle_gamma    90

_space_group_name_H-M_alt    "P 1"
_space_group_IT_number       1

loop_
  _space_group_symop_operation_xyz
  'x, y, z'

loop_
  _atom_site_type_symbol
  _atom_site_label
  _atom_site_symmetry_multiplicity
  _atom_site_fract_x
  _atom_site_fract_y
  _atom_site_fract_z
  _atom_site_occupancy
  O   O1        1.0  0.54200  0.26600  0.10400  1.0000
  O   O2        1.0  0.04130  0.27000  0.10900  1.0000
  O   O3        1.0  0.84200  0.72200  0.20300  1.0000
  O   O4        1.0  0.35300  0.81400  0.23400  1.0000
  O   O5        1.0  0.13800  0.96500  0.49900  1.0000
  O   O6        1.0  0.86200  0.46500  0.50100  1.0000
  O   O7        1.0  0.64700  0.31400  0.76600  1.0000
  O   O8        1.0  0.15800  0.22200  0.79700  1.0000
  O   O9        1.0  0.95900  0.77000  0.89100  1.0000
  O   O10       1.0  0.45800  0.76600  0.89600  1.0000
  Te  Te1       1.0  0.26000  0.00507  0.01470  1.0000
  Te  Te2       1.0  0.14500  0.60600  0.38500  1.0000
  Te  Te3       1.0  0.85500  0.10600  0.61500  1.0000
  Te  Te4       1.0  0.74000  0.50500  0.98500  1.0000
