data_image0
_chemical_formula_structural       Al7Cu2Y3
_chemical_formula_sum              "Al7 Cu2 Y3"
_cell_length_a       5.49288
_cell_length_b       5.49288
_cell_length_c       9.0436
_cell_angle_alpha    107.679
_cell_angle_beta     90
_cell_angle_gamma    60

_space_group_name_H-M_alt    "P 1"
_space_group_IT_number       1

loop_
  _space_group_symop_operation_xyz
  'x, y, z'

loop_
  _atom_site_type_symbol
  _atom_site_label
  _atom_site_symmetry_multiplicity
  _atom_site_fract_x
  _atom_site_fract_y
  _atom_site_fract_z
  _atom_site_occupancy
  Al  Al1       1.0  0.41800  0.16400  0.23600  1.0000
  Al  Al2       1.0  0.41800  0.65400  0.23600  1.0000
  Al  Al3       1.0  0.92700  0.65400  0.23600  1.0000
  Al  Al4       1.0  0.50000  0.00000  0.50000  1.0000
  Al  Al5       1.0  0.07250  0.34600  0.76400  1.0000
  Al  Al6       1.0  0.58200  0.34600  0.76400  1.0000
  Al  Al7       1.0  0.58200  0.83600  0.76400  1.0000
  Cu  Cu1       1.0  0.66500  0.67100  0.00577  1.0000
  Cu  Cu2       1.0  0.33500  0.32900  0.99400  1.0000
  Y   Y1        1.0  0.00000  0.00000  0.00000  1.0000
  Y   Y2        1.0  0.85800  0.28400  0.42600  1.0000
  Y   Y3        1.0  0.14200  0.71600  0.57400  1.0000
