data_image0
_chemical_formula_structural       Ca4O8Sn2
_chemical_formula_sum              "Ca4 O8 Sn2"
_cell_length_a       5.74133
_cell_length_b       9.68639
_cell_length_c       3.27399
_cell_angle_alpha    90
_cell_angle_beta     90
_cell_angle_gamma    90

_space_group_name_H-M_alt    "P 1"
_space_group_IT_number       1

loop_
  _space_group_symop_operation_xyz
  'x, y, z'

loop_
  _atom_site_type_symbol
  _atom_site_label
  _atom_site_symmetry_multiplicity
  _atom_site_fract_x
  _atom_site_fract_y
  _atom_site_fract_z
  _atom_site_occupancy
  Ca  Ca1       1.0  0.56900  0.18200  0.50000  1.0000
  Ca  Ca2       1.0  0.06950  0.31800  0.50000  1.0000
  Ca  Ca3       1.0  0.93100  0.68200  0.50000  1.0000
  Ca  Ca4       1.0  0.43100  0.81800  0.50000  1.0000
  O   O1        1.0  0.86200  0.19500  0.00000  1.0000
  O   O2        1.0  0.36200  0.30500  0.00000  1.0000
  O   O3        1.0  0.63800  0.69500  0.00000  1.0000
  O   O4        1.0  0.13800  0.80500  0.00000  1.0000
  O   O5        1.0  0.23000  0.04880  0.50000  1.0000
  O   O6        1.0  0.73000  0.45100  0.50000  1.0000
  O   O7        1.0  0.27000  0.54900  0.50000  1.0000
  O   O8        1.0  0.77000  0.95100  0.50000  1.0000
  Sn  Sn1       1.0  0.00000  0.00000  0.00000  1.0000
  Sn  Sn2       1.0  0.50000  0.50000  0.00000  1.0000
