data_image0
_chemical_formula_structural       Ba4Mn4O2Sb4
_chemical_formula_sum              "Ba4 Mn4 O2 Sb4"
_cell_length_a       4.77627
_cell_length_b       4.77629
_cell_length_c       20.2161
_cell_angle_alpha    90
_cell_angle_beta     90
_cell_angle_gamma    120

_space_group_name_H-M_alt    "P 1"
_space_group_IT_number       1

loop_
  _space_group_symop_operation_xyz
  'x, y, z'

loop_
  _atom_site_type_symbol
  _atom_site_label
  _atom_site_symmetry_multiplicity
  _atom_site_fract_x
  _atom_site_fract_y
  _atom_site_fract_z
  _atom_site_occupancy
  Ba  Ba1       1.0  0.00000  0.00000  0.00000  1.0000
  Ba  Ba2       1.0  0.00002  0.00004  0.25000  1.0000
  Ba  Ba3       1.0  0.00000  0.00000  0.50000  1.0000
  Ba  Ba4       1.0  0.00000  0.00000  0.75000  1.0000
  Mn  Mn1       1.0  0.66700  0.33300  0.14900  1.0000
  Mn  Mn2       1.0  0.66700  0.33300  0.35100  1.0000
  Mn  Mn3       1.0  0.33300  0.66700  0.64900  1.0000
  Mn  Mn4       1.0  0.33300  0.66700  0.85100  1.0000
  O   O1        1.0  0.66700  0.33300  0.25000  1.0000
  O   O2        1.0  0.33300  0.66700  0.75000  1.0000
  Sb  Sb1       1.0  0.33300  0.66700  0.11100  1.0000
  Sb  Sb2       1.0  0.33300  0.66700  0.38900  1.0000
  Sb  Sb3       1.0  0.66700  0.33300  0.61100  1.0000
  Sb  Sb4       1.0  0.66700  0.33300  0.88900  1.0000
