data_image0
_chemical_formula_structural       Ag3P11
_chemical_formula_sum              "Ag3 P11"
_cell_length_a       6.65666
_cell_length_b       7.56496
_cell_length_c       7.56496
_cell_angle_alpha    60.5681
_cell_angle_beta     114.52
_cell_angle_gamma    114.52

_space_group_name_H-M_alt    "P 1"
_space_group_IT_number       1

loop_
  _space_group_symop_operation_xyz
  'x, y, z'

loop_
  _atom_site_type_symbol
  _atom_site_label
  _atom_site_symmetry_multiplicity
  _atom_site_fract_x
  _atom_site_fract_y
  _atom_site_fract_z
  _atom_site_occupancy
  Ag  Ag1       1.0  0.00173  0.99900  0.99900  1.0000
  Ag  Ag2       1.0  0.02490  0.29100  0.29100  1.0000
  Ag  Ag3       1.0  0.80400  0.59000  0.59000  1.0000
  P   P1        1.0  0.27100  0.60900  0.05530  1.0000
  P   P2        1.0  0.72700  0.08200  0.08200  1.0000
  P   P3        1.0  0.53100  0.77500  0.26500  1.0000
  P   P4        1.0  0.26600  0.81000  0.35100  1.0000
  P   P5        1.0  0.05380  0.49200  0.49200  1.0000
  P   P6        1.0  0.27100  0.05530  0.60900  1.0000
  P   P7        1.0  0.50500  0.91200  0.61400  1.0000
  P   P8        1.0  0.53100  0.26500  0.77500  1.0000
  P   P9        1.0  0.26600  0.35100  0.81000  1.0000
  P   P10       1.0  0.04480  0.81100  0.81100  1.0000
  P   P11       1.0  0.50500  0.61400  0.91200  1.0000
