data_image0
_chemical_formula_structural       Pd8Pu6
_chemical_formula_sum              "Pd8 Pu6"
_cell_length_a       5.75614
_cell_length_b       7.92791
_cell_length_c       7.92791
_cell_angle_alpha    114.339
_cell_angle_beta     104.006
_cell_angle_gamma    104.006

_space_group_name_H-M_alt    "P 1"
_space_group_IT_number       1

loop_
  _space_group_symop_operation_xyz
  'x, y, z'

loop_
  _atom_site_type_symbol
  _atom_site_label
  _atom_site_symmetry_multiplicity
  _atom_site_fract_x
  _atom_site_fract_y
  _atom_site_fract_z
  _atom_site_occupancy
  Pd  Pd1       1.0  0.50000  0.00000  0.00000  1.0000
  Pd  Pd2       1.0  0.00000  0.00000  0.00000  1.0000
  Pd  Pd3       1.0  0.94000  0.48900  0.16200  1.0000
  Pd  Pd4       1.0  0.77800  0.83800  0.32700  1.0000
  Pd  Pd5       1.0  0.54900  0.32700  0.48900  1.0000
  Pd  Pd6       1.0  0.45100  0.67300  0.51100  1.0000
  Pd  Pd7       1.0  0.22200  0.16200  0.67300  1.0000
  Pd  Pd8       1.0  0.06010  0.51100  0.83800  1.0000
  Pu  Pu1       1.0  0.40400  0.37800  0.11800  1.0000
  Pu  Pu2       1.0  0.28600  0.88200  0.26000  1.0000
  Pu  Pu3       1.0  0.97400  0.26000  0.37800  1.0000
  Pu  Pu4       1.0  0.02600  0.74000  0.62200  1.0000
  Pu  Pu5       1.0  0.71400  0.11800  0.74000  1.0000
  Pu  Pu6       1.0  0.59600  0.62200  0.88200  1.0000
