data_image0
_chemical_formula_structural       Mg2Pr2Sn2
_chemical_formula_sum              "Mg2 Pr2 Sn2"
_cell_length_a       4.52552
_cell_length_b       4.52552
_cell_length_c       8.72981
_cell_angle_alpha    105.023
_cell_angle_beta     105.023
_cell_angle_gamma    90

_space_group_name_H-M_alt    "P 1"
_space_group_IT_number       1

loop_
  _space_group_symop_operation_xyz
  'x, y, z'

loop_
  _atom_site_type_symbol
  _atom_site_label
  _atom_site_symmetry_multiplicity
  _atom_site_fract_x
  _atom_site_fract_y
  _atom_site_fract_z
  _atom_site_occupancy
  Mg  Mg1       1.0  0.50000  0.00000  0.00000  1.0000
  Mg  Mg2       1.0  0.00000  0.50000  0.00000  1.0000
  Pr  Pr1       1.0  0.66500  0.66500  0.33000  1.0000
  Pr  Pr2       1.0  0.33500  0.33500  0.67000  1.0000
  Sn  Sn1       1.0  0.13200  0.13200  0.26500  1.0000
  Sn  Sn2       1.0  0.86800  0.86800  0.73500  1.0000
