data_image0
_chemical_formula_structural       Br4Cl4Cu2Rb4
_chemical_formula_sum              "Br4 Cl4 Cu2 Rb4"
_cell_length_a       7.2339
_cell_length_b       7.23362
_cell_length_c       9.05592
_cell_angle_alpha    90
_cell_angle_beta     113.541
_cell_angle_gamma    90

_space_group_name_H-M_alt    "P 1"
_space_group_IT_number       1

loop_
  _space_group_symop_operation_xyz
  'x, y, z'

loop_
  _atom_site_type_symbol
  _atom_site_label
  _atom_site_symmetry_multiplicity
  _atom_site_fract_x
  _atom_site_fract_y
  _atom_site_fract_z
  _atom_site_occupancy
  Br  Br1       1.0  0.15600  0.00000  0.31100  1.0000
  Br  Br2       1.0  0.65600  0.50000  0.31100  1.0000
  Br  Br3       1.0  0.84400  0.00000  0.68900  1.0000
  Br  Br4       1.0  0.34400  0.50000  0.68900  1.0000
  Cl  Cl1       1.0  0.22200  0.22200  0.00000  1.0000
  Cl  Cl2       1.0  0.72200  0.27800  0.00000  1.0000
  Cl  Cl3       1.0  0.27800  0.72200  0.00000  1.0000
  Cl  Cl4       1.0  0.77800  0.77800  0.00000  1.0000
  Cu  Cu1       1.0  0.00000  0.00000  0.00000  1.0000
  Cu  Cu2       1.0  0.50000  0.50000  0.00000  1.0000
  Rb  Rb1       1.0  0.63400  0.00000  0.26800  1.0000
  Rb  Rb2       1.0  0.13400  0.50000  0.26800  1.0000
  Rb  Rb3       1.0  0.36600  0.00000  0.73200  1.0000
  Rb  Rb4       1.0  0.86600  0.50000  0.73200  1.0000
