data_image0
_chemical_formula_structural       Mn4Zr2
_chemical_formula_sum              "Mn4 Zr2"
_cell_length_a       4.94777
_cell_length_b       4.9482
_cell_length_c       4.94851
_cell_angle_alpha    120.003
_cell_angle_beta     89.9986
_cell_angle_gamma    119.999

_space_group_name_H-M_alt    "P 1"
_space_group_IT_number       1

loop_
  _space_group_symop_operation_xyz
  'x, y, z'

loop_
  _atom_site_type_symbol
  _atom_site_label
  _atom_site_symmetry_multiplicity
  _atom_site_fract_x
  _atom_site_fract_y
  _atom_site_fract_z
  _atom_site_occupancy
  Mn  Mn1       1.0  0.00000  0.00000  0.00000  1.0000
  Mn  Mn2       1.0  0.50000  0.50000  0.50000  1.0000
  Mn  Mn3       1.0  0.00000  0.00000  0.50000  1.0000
  Mn  Mn4       1.0  0.00000  0.50000  0.50000  1.0000
  Zr  Zr1       1.0  0.37500  0.75000  0.12500  1.0000
  Zr  Zr2       1.0  0.62500  0.25000  0.87500  1.0000
