data_image0
_chemical_formula_structural       Cr5CsS8
_chemical_formula_sum              "Cr5 Cs1 S8"
_cell_length_a       3.52084
_cell_length_b       8.82221
_cell_length_c       9.19741
_cell_angle_alpha    104.706
_cell_angle_beta     101.035
_cell_angle_gamma    90

_space_group_name_H-M_alt    "P 1"
_space_group_IT_number       1

loop_
  _space_group_symop_operation_xyz
  'x, y, z'

loop_
  _atom_site_type_symbol
  _atom_site_label
  _atom_site_symmetry_multiplicity
  _atom_site_fract_x
  _atom_site_fract_y
  _atom_site_fract_z
  _atom_site_occupancy
  Cr  Cr1       1.0  0.00000  0.00000  0.00000  1.0000
  Cr  Cr2       1.0  0.66000  0.97700  0.31900  1.0000
  Cr  Cr3       1.0  0.70500  0.33500  0.40900  1.0000
  Cr  Cr4       1.0  0.29500  0.66500  0.59100  1.0000
  Cr  Cr5       1.0  0.34000  0.02260  0.68100  1.0000
  Cs  Cs1       1.0  0.50000  0.50000  0.00000  1.0000
  S   S1        1.0  0.57700  0.14800  0.15400  1.0000
  S   S2        1.0  0.08830  0.83700  0.17700  1.0000
  S   S3        1.0  0.17300  0.48500  0.34700  1.0000
  S   S4        1.0  0.23900  0.15700  0.47800  1.0000
  S   S5        1.0  0.76100  0.84300  0.52200  1.0000
  S   S6        1.0  0.82700  0.51500  0.65300  1.0000
  S   S7        1.0  0.91200  0.16300  0.82300  1.0000
  S   S8        1.0  0.42300  0.85200  0.84600  1.0000
