data_image0
_chemical_formula_structural       Cr5RbS8
_chemical_formula_sum              "Cr5 Rb1 S8"
_cell_length_a       3.49939
_cell_length_b       8.73303
_cell_length_c       9.16621
_cell_angle_alpha    104.893
_cell_angle_beta     101.004
_cell_angle_gamma    90

_space_group_name_H-M_alt    "P 1"
_space_group_IT_number       1

loop_
  _space_group_symop_operation_xyz
  'x, y, z'

loop_
  _atom_site_type_symbol
  _atom_site_label
  _atom_site_symmetry_multiplicity
  _atom_site_fract_x
  _atom_site_fract_y
  _atom_site_fract_z
  _atom_site_occupancy
  Cr  Cr1       1.0  0.00000  0.00000  0.00000  1.0000
  Cr  Cr2       1.0  0.65900  0.97500  0.31800  1.0000
  Cr  Cr3       1.0  0.70400  0.33500  0.40800  1.0000
  Cr  Cr4       1.0  0.29600  0.66500  0.59200  1.0000
  Cr  Cr5       1.0  0.34100  0.02510  0.68200  1.0000
  Rb  Rb1       1.0  0.50000  0.50000  0.00000  1.0000
  S   S1        1.0  0.57700  0.14800  0.15400  1.0000
  S   S2        1.0  0.08640  0.83200  0.17300  1.0000
  S   S3        1.0  0.17200  0.48700  0.34400  1.0000
  S   S4        1.0  0.23800  0.15600  0.47600  1.0000
  S   S5        1.0  0.76200  0.84400  0.52400  1.0000
  S   S6        1.0  0.82800  0.51300  0.65600  1.0000
  S   S7        1.0  0.91400  0.16800  0.82700  1.0000
  S   S8        1.0  0.42300  0.85200  0.84600  1.0000
