data_image0
_chemical_formula_structural       C4N4Pb2S4
_chemical_formula_sum              "C4 N4 Pb2 S4"
_cell_length_a       5.87769
_cell_length_b       5.87769
_cell_length_c       8.17792
_cell_angle_alpha    91.5424
_cell_angle_beta     91.5424
_cell_angle_gamma    67.564

_space_group_name_H-M_alt    "P 1"
_space_group_IT_number       1

loop_
  _space_group_symop_operation_xyz
  'x, y, z'

loop_
  _atom_site_type_symbol
  _atom_site_label
  _atom_site_symmetry_multiplicity
  _atom_site_fract_x
  _atom_site_fract_y
  _atom_site_fract_z
  _atom_site_occupancy
  C   C1        1.0  0.24600  0.51500  0.10200  1.0000
  C   C2        1.0  0.48500  0.75400  0.39800  1.0000
  C   C3        1.0  0.51500  0.24600  0.60200  1.0000
  C   C4        1.0  0.75400  0.48500  0.89800  1.0000
  N   N1        1.0  0.16600  0.72000  0.05410  1.0000
  N   N2        1.0  0.28000  0.83400  0.44600  1.0000
  N   N3        1.0  0.72000  0.16600  0.55400  1.0000
  N   N4        1.0  0.83400  0.28000  0.94600  1.0000
  Pb  Pb1       1.0  0.89500  0.10500  0.25000  1.0000
  Pb  Pb2       1.0  0.10500  0.89500  0.75000  1.0000
  S   S1        1.0  0.35000  0.23600  0.17100  1.0000
  S   S2        1.0  0.76400  0.65000  0.32900  1.0000
  S   S3        1.0  0.23600  0.35000  0.67100  1.0000
  S   S4        1.0  0.65000  0.76400  0.82900  1.0000
