data_image0
_chemical_formula_structural       Ga2K6O6
_chemical_formula_sum              "Ga2 K6 O6"
_cell_length_a       6.46123
_cell_length_b       6.54125
_cell_length_c       6.54125
_cell_angle_alpha    114.093
_cell_angle_beta     96.3558
_cell_angle_gamma    96.3558

_space_group_name_H-M_alt    "P 1"
_space_group_IT_number       1

loop_
  _space_group_symop_operation_xyz
  'x, y, z'

loop_
  _atom_site_type_symbol
  _atom_site_label
  _atom_site_symmetry_multiplicity
  _atom_site_fract_x
  _atom_site_fract_y
  _atom_site_fract_z
  _atom_site_occupancy
  Ga  Ga1       1.0  0.14700  0.17200  0.17200  1.0000
  Ga  Ga2       1.0  0.85300  0.82800  0.82800  1.0000
  K   K1        1.0  0.50000  0.80900  0.19100  1.0000
  K   K2        1.0  0.00000  0.73900  0.26100  1.0000
  K   K3        1.0  0.64900  0.37300  0.37300  1.0000
  K   K4        1.0  0.35100  0.62700  0.62700  1.0000
  K   K5        1.0  0.00000  0.26100  0.73900  1.0000
  K   K6        1.0  0.50000  0.19100  0.80900  1.0000
  O   O1        1.0  0.84000  0.09820  0.09820  1.0000
  O   O2        1.0  0.26700  0.43300  0.15700  1.0000
  O   O3        1.0  0.26700  0.15700  0.43300  1.0000
  O   O4        1.0  0.73300  0.84300  0.56700  1.0000
  O   O5        1.0  0.73300  0.56700  0.84300  1.0000
  O   O6        1.0  0.16000  0.90200  0.90200  1.0000
