data_image0
_chemical_formula_structural       C6CdN6Pd
_chemical_formula_sum              "C6 Cd1 N6 Pd1"
_cell_length_a       7.71801
_cell_length_b       7.71801
_cell_length_c       7.71801
_cell_angle_alpha    120
_cell_angle_beta     90
_cell_angle_gamma    120

_space_group_name_H-M_alt    "P 1"
_space_group_IT_number       1

loop_
  _space_group_symop_operation_xyz
  'x, y, z'

loop_
  _atom_site_type_symbol
  _atom_site_label
  _atom_site_symmetry_multiplicity
  _atom_site_fract_x
  _atom_site_fract_y
  _atom_site_fract_z
  _atom_site_occupancy
  C   C1        1.0  0.68300  0.00000  0.31700  1.0000
  C   C2        1.0  0.31700  0.00000  0.31700  1.0000
  C   C3        1.0  0.31700  0.63400  0.31700  1.0000
  C   C4        1.0  0.31700  0.00000  0.68300  1.0000
  C   C5        1.0  0.68300  0.00000  0.68300  1.0000
  C   C6        1.0  0.68300  0.36600  0.68300  1.0000
  Cd  Cd1       1.0  0.00000  0.00000  0.00000  1.0000
  N   N1        1.0  0.79000  0.00000  0.21000  1.0000
  N   N2        1.0  0.21000  0.00000  0.21000  1.0000
  N   N3        1.0  0.21000  0.42100  0.21000  1.0000
  N   N4        1.0  0.21000  0.00000  0.79000  1.0000
  N   N5        1.0  0.79000  0.00000  0.79000  1.0000
  N   N6        1.0  0.79000  0.57900  0.79000  1.0000
  Pd  Pd1       1.0  0.50000  0.00000  0.50000  1.0000
