data_image0
_chemical_formula_structural       Au2Eu4Ge6
_chemical_formula_sum              "Au2 Eu4 Ge6"
_cell_length_a       6.15973
_cell_length_b       6.15973
_cell_length_c       8.61936
_cell_angle_alpha    110.551
_cell_angle_beta     110.551
_cell_angle_gamma    91.006

_space_group_name_H-M_alt    "P 1"
_space_group_IT_number       1

loop_
  _space_group_symop_operation_xyz
  'x, y, z'

loop_
  _atom_site_type_symbol
  _atom_site_label
  _atom_site_symmetry_multiplicity
  _atom_site_fract_x
  _atom_site_fract_y
  _atom_site_fract_z
  _atom_site_occupancy
  Au  Au1       1.0  0.66700  0.66700  0.33300  1.0000
  Au  Au2       1.0  0.33300  0.33300  0.66700  1.0000
  Eu  Eu1       1.0  0.75200  0.24800  0.00000  1.0000
  Eu  Eu2       1.0  0.24800  0.75200  0.00000  1.0000
  Eu  Eu3       1.0  0.75000  0.25000  0.50000  1.0000
  Eu  Eu4       1.0  0.25000  0.75000  0.50000  1.0000
  Ge  Ge1       1.0  0.33000  0.33000  0.16400  1.0000
  Ge  Ge2       1.0  0.83500  0.83500  0.16400  1.0000
  Ge  Ge3       1.0  0.16400  0.16400  0.32900  1.0000
  Ge  Ge4       1.0  0.83600  0.83600  0.67100  1.0000
  Ge  Ge5       1.0  0.16500  0.16500  0.83600  1.0000
  Ge  Ge6       1.0  0.67000  0.67000  0.83600  1.0000
