data_image0
_chemical_formula_structural       Nb6Se8
_chemical_formula_sum              "Nb6 Se8"
_cell_length_a       10.1304
_cell_length_b       10.1303
_cell_length_c       3.47607
_cell_angle_alpha    90
_cell_angle_beta     90
_cell_angle_gamma    120.004

_space_group_name_H-M_alt    "P 1"
_space_group_IT_number       1

loop_
  _space_group_symop_operation_xyz
  'x, y, z'

loop_
  _atom_site_type_symbol
  _atom_site_label
  _atom_site_symmetry_multiplicity
  _atom_site_fract_x
  _atom_site_fract_y
  _atom_site_fract_z
  _atom_site_occupancy
  Nb  Nb1       1.0  0.48800  0.10800  0.25000  1.0000
  Nb  Nb2       1.0  0.89200  0.38000  0.25000  1.0000
  Nb  Nb3       1.0  0.62000  0.51200  0.25000  1.0000
  Nb  Nb4       1.0  0.38000  0.48800  0.75000  1.0000
  Nb  Nb5       1.0  0.10800  0.62000  0.75000  1.0000
  Nb  Nb6       1.0  0.51200  0.89200  0.75000  1.0000
  Se  Se1       1.0  0.72000  0.06070  0.25000  1.0000
  Se  Se2       1.0  0.34100  0.28000  0.25000  1.0000
  Se  Se3       1.0  0.93900  0.65900  0.25000  1.0000
  Se  Se4       1.0  0.33300  0.66700  0.25000  1.0000
  Se  Se5       1.0  0.66700  0.33300  0.75000  1.0000
  Se  Se6       1.0  0.06060  0.34100  0.75000  1.0000
  Se  Se7       1.0  0.65900  0.72000  0.75000  1.0000
  Se  Se8       1.0  0.28000  0.93900  0.75000  1.0000
