data_image0
_chemical_formula_structural       Ce4Mg4Sn4
_chemical_formula_sum              "Ce4 Mg4 Sn4"
_cell_length_a       7.78787
_cell_length_b       4.67795
_cell_length_c       9.1756
_cell_angle_alpha    90
_cell_angle_beta     90
_cell_angle_gamma    90

_space_group_name_H-M_alt    "P 1"
_space_group_IT_number       1

loop_
  _space_group_symop_operation_xyz
  'x, y, z'

loop_
  _atom_site_type_symbol
  _atom_site_label
  _atom_site_symmetry_multiplicity
  _atom_site_fract_x
  _atom_site_fract_y
  _atom_site_fract_z
  _atom_site_occupancy
  Ce  Ce1       1.0  0.48000  0.75000  0.18200  1.0000
  Ce  Ce2       1.0  0.98000  0.75000  0.31800  1.0000
  Ce  Ce3       1.0  0.01970  0.25000  0.68200  1.0000
  Ce  Ce4       1.0  0.52000  0.25000  0.81800  1.0000
  Mg  Mg1       1.0  0.15500  0.25000  0.06810  1.0000
  Mg  Mg2       1.0  0.65500  0.25000  0.43200  1.0000
  Mg  Mg3       1.0  0.34500  0.75000  0.56800  1.0000
  Mg  Mg4       1.0  0.84500  0.75000  0.93200  1.0000
  Sn  Sn1       1.0  0.77300  0.25000  0.11200  1.0000
  Sn  Sn2       1.0  0.27300  0.25000  0.38800  1.0000
  Sn  Sn3       1.0  0.72700  0.75000  0.61200  1.0000
  Sn  Sn4       1.0  0.22700  0.75000  0.88800  1.0000
