data_image0
_chemical_formula_structural       Li4Sn10
_chemical_formula_sum              "Li4 Sn10"
_cell_length_a       10.3434
_cell_length_b       10.3434
_cell_length_c       3.11657
_cell_angle_alpha    90
_cell_angle_beta     90
_cell_angle_gamma    90

_space_group_name_H-M_alt    "P 1"
_space_group_IT_number       1

loop_
  _space_group_symop_operation_xyz
  'x, y, z'

loop_
  _atom_site_type_symbol
  _atom_site_label
  _atom_site_symmetry_multiplicity
  _atom_site_fract_x
  _atom_site_fract_y
  _atom_site_fract_z
  _atom_site_occupancy
  Li  Li1       1.0  0.32600  0.17400  0.50000  1.0000
  Li  Li2       1.0  0.82600  0.32600  0.50000  1.0000
  Li  Li3       1.0  0.17400  0.67400  0.50000  1.0000
  Li  Li4       1.0  0.67400  0.82600  0.50000  1.0000
  Sn  Sn1       1.0  0.50000  0.00000  0.00000  1.0000
  Sn  Sn2       1.0  0.79500  0.06890  0.00000  1.0000
  Sn  Sn3       1.0  0.06890  0.20500  0.00000  1.0000
  Sn  Sn4       1.0  0.56900  0.29500  0.00000  1.0000
  Sn  Sn5       1.0  0.29500  0.43100  0.00000  1.0000
  Sn  Sn6       1.0  0.00000  0.50000  0.00000  1.0000
  Sn  Sn7       1.0  0.70500  0.56900  0.00000  1.0000
  Sn  Sn8       1.0  0.43100  0.70500  0.00000  1.0000
  Sn  Sn9       1.0  0.93100  0.79500  0.00000  1.0000
  Sn  Sn10      1.0  0.20500  0.93100  0.00000  1.0000
