data_image0
_chemical_formula_structural       As2Dy2O8
_chemical_formula_sum              "As2 Dy2 O8"
_cell_length_a       5.90093
_cell_length_b       5.90093
_cell_length_c       5.90093
_cell_angle_alpha    106.675
_cell_angle_beta     115.222
_cell_angle_gamma    106.675

_space_group_name_H-M_alt    "P 1"
_space_group_IT_number       1

loop_
  _space_group_symop_operation_xyz
  'x, y, z'

loop_
  _atom_site_type_symbol
  _atom_site_label
  _atom_site_symmetry_multiplicity
  _atom_site_fract_x
  _atom_site_fract_y
  _atom_site_fract_z
  _atom_site_occupancy
  As  As1       1.0  0.75000  0.50000  0.25000  1.0000
  As  As2       1.0  0.50000  0.00000  0.50000  1.0000
  Dy  Dy1       1.0  0.00000  0.00000  0.00000  1.0000
  Dy  Dy2       1.0  0.25000  0.50000  0.75000  1.0000
  O   O1        1.0  0.39000  0.31700  0.07310  1.0000
  O   O2        1.0  0.75600  0.68300  0.07310  1.0000
  O   O3        1.0  0.32300  0.81700  0.14000  1.0000
  O   O4        1.0  0.92700  0.31700  0.24400  1.0000
  O   O5        1.0  0.32300  0.18300  0.50600  1.0000
  O   O6        1.0  0.92700  0.68300  0.61000  1.0000
  O   O7        1.0  0.86000  0.18300  0.67700  1.0000
  O   O8        1.0  0.49400  0.81700  0.67700  1.0000
