data_image0
_chemical_formula_structural       Ge4Mn8O16
_chemical_formula_sum              "Ge4 Mn8 O16"
_cell_length_a       8.01693
_cell_length_b       8.01693
_cell_length_c       8.01693
_cell_angle_alpha    136.032
_cell_angle_beta     82.3152
_cell_angle_gamma    114.456

_space_group_name_H-M_alt    "P 1"
_space_group_IT_number       1

loop_
  _space_group_symop_operation_xyz
  'x, y, z'

loop_
  _atom_site_type_symbol
  _atom_site_label
  _atom_site_symmetry_multiplicity
  _atom_site_fract_x
  _atom_site_fract_y
  _atom_site_fract_z
  _atom_site_occupancy
  Ge  Ge1       1.0  0.73600  0.61700  0.11900  1.0000
  Ge  Ge2       1.0  0.99800  0.61700  0.38100  1.0000
  Ge  Ge3       1.0  0.26400  0.38300  0.88100  1.0000
  Ge  Ge4       1.0  0.00173  0.38300  0.61900  1.0000
  Mn  Mn1       1.0  0.00000  0.00000  0.00000  1.0000
  Mn  Mn2       1.0  0.50000  0.00000  0.50000  1.0000
  Mn  Mn3       1.0  0.22000  0.97000  0.25000  1.0000
  Mn  Mn4       1.0  0.78000  0.03020  0.75000  1.0000
  Mn  Mn5       1.0  0.37700  0.50000  0.37700  1.0000
  Mn  Mn6       1.0  0.62300  0.00000  0.12300  1.0000
  Mn  Mn7       1.0  0.62300  0.50000  0.62300  1.0000
  Mn  Mn8       1.0  0.37700  0.00000  0.87700  1.0000
  O   O1        1.0  0.12000  0.25300  0.38000  1.0000
  O   O2        1.0  0.37300  0.74000  0.12000  1.0000
  O   O3        1.0  0.88000  0.26000  0.13300  1.0000
  O   O4        1.0  0.62700  0.74700  0.36700  1.0000
  O   O5        1.0  0.88000  0.74700  0.62000  1.0000
  O   O6        1.0  0.62700  0.26000  0.88000  1.0000
  O   O7        1.0  0.12000  0.74000  0.86700  1.0000
  O   O8        1.0  0.37300  0.25300  0.63300  1.0000
  O   O9        1.0  0.24500  0.25200  0.99300  1.0000
  O   O10       1.0  0.75900  0.25200  0.50700  1.0000
  O   O11       1.0  0.75500  0.74800  0.00710  1.0000
  O   O12       1.0  0.24100  0.74800  0.49300  1.0000
  O   O13       1.0  0.97300  0.72300  0.25000  1.0000
  O   O14       1.0  0.02670  0.27700  0.75000  1.0000
  O   O15       1.0  0.46800  0.21800  0.25000  1.0000
  O   O16       1.0  0.53200  0.78200  0.75000  1.0000
