data_image0
_chemical_formula_structural       Al2Eu2O7Sr
_chemical_formula_sum              "Al2 Eu2 O7 Sr1"
_cell_length_a       3.73396
_cell_length_b       3.73396
_cell_length_c       10.1586
_cell_angle_alpha    100.59
_cell_angle_beta     100.59
_cell_angle_gamma    90

_space_group_name_H-M_alt    "P 1"
_space_group_IT_number       1

loop_
  _space_group_symop_operation_xyz
  'x, y, z'

loop_
  _atom_site_type_symbol
  _atom_site_label
  _atom_site_symmetry_multiplicity
  _atom_site_fract_x
  _atom_site_fract_y
  _atom_site_fract_z
  _atom_site_occupancy
  Al  Al1       1.0  0.09820  0.09820  0.19600  1.0000
  Al  Al2       1.0  0.90200  0.90200  0.80400  1.0000
  Eu  Eu1       1.0  0.68400  0.68400  0.36800  1.0000
  Eu  Eu2       1.0  0.31600  0.31600  0.63200  1.0000
  O   O1        1.0  0.00000  0.00000  0.00000  1.0000
  O   O2        1.0  0.59800  0.09800  0.19600  1.0000
  O   O3        1.0  0.09800  0.59800  0.19600  1.0000
  O   O4        1.0  0.19600  0.19600  0.39100  1.0000
  O   O5        1.0  0.80400  0.80400  0.60900  1.0000
  O   O6        1.0  0.90200  0.40200  0.80400  1.0000
  O   O7        1.0  0.40200  0.90200  0.80400  1.0000
  Sr  Sr1       1.0  0.50000  0.50000  0.00000  1.0000
