data_image0
_chemical_formula_structural       K4Mo2O8
_chemical_formula_sum              "K4 Mo2 O8"
_cell_length_a       6.00941
_cell_length_b       6.80973
_cell_length_c       7.47267
_cell_angle_alpha    112.761
_cell_angle_beta     90
_cell_angle_gamma    116.183

_space_group_name_H-M_alt    "P 1"
_space_group_IT_number       1

loop_
  _space_group_symop_operation_xyz
  'x, y, z'

loop_
  _atom_site_type_symbol
  _atom_site_label
  _atom_site_symmetry_multiplicity
  _atom_site_fract_x
  _atom_site_fract_y
  _atom_site_fract_z
  _atom_site_occupancy
  K   K1        1.0  0.50900  0.01850  0.23600  1.0000
  K   K2        1.0  0.84500  0.68900  0.25200  1.0000
  K   K3        1.0  0.15500  0.31100  0.74800  1.0000
  K   K4        1.0  0.49100  0.98100  0.76400  1.0000
  Mo  Mo1       1.0  0.17600  0.35200  0.22700  1.0000
  Mo  Mo2       1.0  0.82400  0.64800  0.77300  1.0000
  O   O1        1.0  0.38400  0.28400  0.07380  1.0000
  O   O2        1.0  0.90000  0.28400  0.07380  1.0000
  O   O3        1.0  0.08670  0.17300  0.36400  1.0000
  O   O4        1.0  0.33600  0.67200  0.38600  1.0000
  O   O5        1.0  0.66400  0.32800  0.61400  1.0000
  O   O6        1.0  0.91300  0.82700  0.63600  1.0000
  O   O7        1.0  0.10000  0.71600  0.92600  1.0000
  O   O8        1.0  0.61600  0.71600  0.92600  1.0000
