data_image0
_chemical_formula_structural       In2S4Zn
_chemical_formula_sum              "In2 S4 Zn1"
_cell_length_a       3.90865
_cell_length_b       3.90921
_cell_length_c       12.5328
_cell_angle_alpha    90
_cell_angle_beta     90.0152
_cell_angle_gamma    120.005

_space_group_name_H-M_alt    "P 1"
_space_group_IT_number       1

loop_
  _space_group_symop_operation_xyz
  'x, y, z'

loop_
  _atom_site_type_symbol
  _atom_site_label
  _atom_site_symmetry_multiplicity
  _atom_site_fract_x
  _atom_site_fract_y
  _atom_site_fract_z
  _atom_site_occupancy
  In  In1       1.0  0.33300  0.66700  0.07440  1.0000
  In  In2       1.0  0.66700  0.33300  0.39300  1.0000
  S   S1        1.0  0.00000  0.00000  0.98800  1.0000
  S   S2        1.0  0.33300  0.66700  0.27000  1.0000
  S   S3        1.0  0.00010  0.00005  0.49400  1.0000
  S   S4        1.0  0.33300  0.66700  0.74500  1.0000
  Zn  Zn1       1.0  0.00000  0.00000  0.70400  1.0000
