data_image0
_chemical_formula_structural       Fe2K6O6
_chemical_formula_sum              "Fe2 K6 O6"
_cell_length_a       6.48906
_cell_length_b       6.56379
_cell_length_c       6.56379
_cell_angle_alpha    114.196
_cell_angle_beta     96.3011
_cell_angle_gamma    96.3011

_space_group_name_H-M_alt    "P 1"
_space_group_IT_number       1

loop_
  _space_group_symop_operation_xyz
  'x, y, z'

loop_
  _atom_site_type_symbol
  _atom_site_label
  _atom_site_symmetry_multiplicity
  _atom_site_fract_x
  _atom_site_fract_y
  _atom_site_fract_z
  _atom_site_occupancy
  Fe  Fe1       1.0  0.14600  0.17200  0.17200  1.0000
  Fe  Fe2       1.0  0.85400  0.82800  0.82800  1.0000
  K   K1        1.0  0.50000  0.81100  0.18900  1.0000
  K   K2        1.0  0.00000  0.73900  0.26100  1.0000
  K   K3        1.0  0.64700  0.37300  0.37300  1.0000
  K   K4        1.0  0.35300  0.62700  0.62700  1.0000
  K   K5        1.0  0.00000  0.26100  0.73900  1.0000
  K   K6        1.0  0.50000  0.18900  0.81100  1.0000
  O   O1        1.0  0.83700  0.09910  0.09910  1.0000
  O   O2        1.0  0.26800  0.43400  0.15700  1.0000
  O   O3        1.0  0.26800  0.15700  0.43400  1.0000
  O   O4        1.0  0.73200  0.84300  0.56600  1.0000
  O   O5        1.0  0.73200  0.56600  0.84300  1.0000
  O   O6        1.0  0.16300  0.90100  0.90100  1.0000
