data_image0
_chemical_formula_structural       Mo6Se6Tl2
_chemical_formula_sum              "Mo6 Se6 Tl2"
_cell_length_a       9.07336
_cell_length_b       9.07327
_cell_length_c       4.52155
_cell_angle_alpha    90
_cell_angle_beta     90
_cell_angle_gamma    119.998

_space_group_name_H-M_alt    "P 1"
_space_group_IT_number       1

loop_
  _space_group_symop_operation_xyz
  'x, y, z'

loop_
  _atom_site_type_symbol
  _atom_site_label
  _atom_site_symmetry_multiplicity
  _atom_site_fract_x
  _atom_site_fract_y
  _atom_site_fract_z
  _atom_site_occupancy
  Mo  Mo1       1.0  0.84900  0.03240  0.25000  1.0000
  Mo  Mo2       1.0  0.18400  0.15100  0.25000  1.0000
  Mo  Mo3       1.0  0.96800  0.81600  0.25000  1.0000
  Mo  Mo4       1.0  0.03240  0.18400  0.75000  1.0000
  Mo  Mo5       1.0  0.81600  0.84900  0.75000  1.0000
  Mo  Mo6       1.0  0.15100  0.96800  0.75000  1.0000
  Se  Se1       1.0  0.06590  0.36300  0.25000  1.0000
  Se  Se2       1.0  0.63700  0.70200  0.25000  1.0000
  Se  Se3       1.0  0.29800  0.93400  0.25000  1.0000
  Se  Se4       1.0  0.70200  0.06590  0.75000  1.0000
  Se  Se5       1.0  0.36300  0.29800  0.75000  1.0000
  Se  Se6       1.0  0.93400  0.63700  0.75000  1.0000
  Tl  Tl1       1.0  0.66700  0.33300  0.25000  1.0000
  Tl  Tl2       1.0  0.33300  0.66700  0.75000  1.0000
