data_image0
_chemical_formula_structural       Bi4Hg2S8
_chemical_formula_sum              "Bi4 Hg2 S8"
_cell_length_a       4.09003
_cell_length_b       7.54592
_cell_length_c       12.6589
_cell_angle_alpha    94.0398
_cell_angle_beta     99.2967
_cell_angle_gamma    74.2757

_space_group_name_H-M_alt    "P 1"
_space_group_IT_number       1

loop_
  _space_group_symop_operation_xyz
  'x, y, z'

loop_
  _atom_site_type_symbol
  _atom_site_label
  _atom_site_symmetry_multiplicity
  _atom_site_fract_x
  _atom_site_fract_y
  _atom_site_fract_z
  _atom_site_occupancy
  Bi  Bi1       1.0  0.34900  0.43900  0.13700  1.0000
  Bi  Bi2       1.0  0.22300  0.92200  0.36800  1.0000
  Bi  Bi3       1.0  0.77700  0.07800  0.63200  1.0000
  Bi  Bi4       1.0  0.65100  0.56100  0.86300  1.0000
  Hg  Hg1       1.0  0.00000  0.00000  0.00000  1.0000
  Hg  Hg2       1.0  0.00000  0.50000  0.50000  1.0000
  S   S1        1.0  0.69200  0.67900  0.06340  1.0000
  S   S2        1.0  0.99900  0.16900  0.16800  1.0000
  S   S3        1.0  0.84400  0.64200  0.32900  1.0000
  S   S4        1.0  0.62800  0.17100  0.42800  1.0000
  S   S5        1.0  0.37200  0.82900  0.57200  1.0000
  S   S6        1.0  0.15600  0.35800  0.67100  1.0000
  S   S7        1.0  0.00054  0.83100  0.83200  1.0000
  S   S8        1.0  0.30800  0.32100  0.93700  1.0000
