data_image0
_chemical_formula_structural       F4Hg6S4
_chemical_formula_sum              "F4 Hg6 S4"
_cell_length_a       7.05564
_cell_length_b       7.05564
_cell_length_c       7.05564
_cell_angle_alpha    109.471
_cell_angle_beta     109.471
_cell_angle_gamma    109.471

_space_group_name_H-M_alt    "P 1"
_space_group_IT_number       1

loop_
  _space_group_symop_operation_xyz
  'x, y, z'

loop_
  _atom_site_type_symbol
  _atom_site_label
  _atom_site_symmetry_multiplicity
  _atom_site_fract_x
  _atom_site_fract_y
  _atom_site_fract_z
  _atom_site_occupancy
  F   F1        1.0  0.92500  0.00000  0.00000  1.0000
  F   F2        1.0  0.57500  0.57500  0.07530  1.0000
  F   F3        1.0  0.00000  0.50000  0.42500  1.0000
  F   F4        1.0  0.50000  0.92500  0.50000  1.0000
  Hg  Hg1       1.0  0.25000  0.42000  0.17000  1.0000
  Hg  Hg2       1.0  0.07990  0.83000  0.25000  1.0000
  Hg  Hg3       1.0  0.75000  0.07990  0.33000  1.0000
  Hg  Hg4       1.0  0.83000  0.75000  0.58000  1.0000
  Hg  Hg5       1.0  0.42000  0.67000  0.75000  1.0000
  Hg  Hg6       1.0  0.67000  0.25000  0.92000  1.0000
  S   S1        1.0  0.41600  0.00000  0.00000  1.0000
  S   S2        1.0  0.50000  0.41600  0.50000  1.0000
  S   S3        1.0  0.08410  0.08410  0.58400  1.0000
  S   S4        1.0  0.00000  0.50000  0.91600  1.0000
