data_image0
_chemical_formula_structural       C4CdHgN4S4
_chemical_formula_sum              "C4 Cd1 Hg1 N4 S4"
_cell_length_a       4.15472
_cell_length_b       8.42966
_cell_length_c       8.42966
_cell_angle_alpha    93.4817
_cell_angle_beta     75.7334
_cell_angle_gamma    104.267

_space_group_name_H-M_alt    "P 1"
_space_group_IT_number       1

loop_
  _space_group_symop_operation_xyz
  'x, y, z'

loop_
  _atom_site_type_symbol
  _atom_site_label
  _atom_site_symmetry_multiplicity
  _atom_site_fract_x
  _atom_site_fract_y
  _atom_site_fract_z
  _atom_site_occupancy
  C   C1        1.0  0.57800  0.65200  0.17900  1.0000
  C   C2        1.0  0.07440  0.17900  0.34800  1.0000
  C   C3        1.0  0.24300  0.82100  0.65200  1.0000
  C   C4        1.0  0.10500  0.34800  0.82100  1.0000
  Cd  Cd1       1.0  0.75000  0.50000  0.50000  1.0000
  Hg  Hg1       1.0  0.00000  0.00000  0.00000  1.0000
  N   N1        1.0  0.60800  0.59900  0.29900  1.0000
  N   N2        1.0  0.99100  0.29900  0.40100  1.0000
  N   N3        1.0  0.09260  0.70100  0.59900  1.0000
  N   N4        1.0  0.30900  0.40100  0.70100  1.0000
  S   S1        1.0  0.52900  0.72400  0.01280  1.0000
  S   S2        1.0  0.19500  0.01280  0.27600  1.0000
  S   S3        1.0  0.45800  0.98700  0.72400  1.0000
  S   S4        1.0  0.81800  0.27600  0.98700  1.0000
