data_image0
_chemical_formula_structural       Na4O8Se2
_chemical_formula_sum              "Na4 O8 Se2"
_cell_length_a       5.8566
_cell_length_b       5.8566
_cell_length_c       6.95929
_cell_angle_alpha    102.932
_cell_angle_beta     102.932
_cell_angle_gamma    117.914

_space_group_name_H-M_alt    "P 1"
_space_group_IT_number       1

loop_
  _space_group_symop_operation_xyz
  'x, y, z'

loop_
  _atom_site_type_symbol
  _atom_site_label
  _atom_site_symmetry_multiplicity
  _atom_site_fract_x
  _atom_site_fract_y
  _atom_site_fract_z
  _atom_site_occupancy
  Na  Na1       1.0  0.05990  0.44000  0.25000  1.0000
  Na  Na2       1.0  0.69000  0.81000  0.25000  1.0000
  Na  Na3       1.0  0.31000  0.19000  0.75000  1.0000
  Na  Na4       1.0  0.94000  0.56000  0.75000  1.0000
  O   O1        1.0  0.35800  0.31000  0.10300  1.0000
  O   O2        1.0  0.24400  0.79200  0.10300  1.0000
  O   O3        1.0  0.19000  0.14200  0.39700  1.0000
  O   O4        1.0  0.70800  0.25600  0.39700  1.0000
  O   O5        1.0  0.29200  0.74400  0.60300  1.0000
  O   O6        1.0  0.81000  0.85800  0.60300  1.0000
  O   O7        1.0  0.75600  0.20800  0.89700  1.0000
  O   O8        1.0  0.64200  0.69000  0.89700  1.0000
  Se  Se1       1.0  0.37500  0.12500  0.25000  1.0000
  Se  Se2       1.0  0.62500  0.87500  0.75000  1.0000
