data_image0
_chemical_formula_structural       Ga2O6Rb6
_chemical_formula_sum              "Ga2 O6 Rb6"
_cell_length_a       6.76739
_cell_length_b       6.80704
_cell_length_c       6.80704
_cell_angle_alpha    113.984
_cell_angle_beta     97.3443
_cell_angle_gamma    97.3443

_space_group_name_H-M_alt    "P 1"
_space_group_IT_number       1

loop_
  _space_group_symop_operation_xyz
  'x, y, z'

loop_
  _atom_site_type_symbol
  _atom_site_label
  _atom_site_symmetry_multiplicity
  _atom_site_fract_x
  _atom_site_fract_y
  _atom_site_fract_z
  _atom_site_occupancy
  Ga  Ga1       1.0  0.14700  0.16700  0.16700  1.0000
  Ga  Ga2       1.0  0.85300  0.83300  0.83300  1.0000
  O   O1        1.0  0.85100  0.09550  0.09550  1.0000
  O   O2        1.0  0.26600  0.42200  0.15500  1.0000
  O   O3        1.0  0.26600  0.15500  0.42200  1.0000
  O   O4        1.0  0.73400  0.84500  0.57800  1.0000
  O   O5        1.0  0.73400  0.57800  0.84500  1.0000
  O   O6        1.0  0.14900  0.90400  0.90400  1.0000
  Rb  Rb1       1.0  0.50000  0.80800  0.19200  1.0000
  Rb  Rb2       1.0  0.00000  0.73800  0.26200  1.0000
  Rb  Rb3       1.0  0.65500  0.37200  0.37200  1.0000
  Rb  Rb4       1.0  0.34500  0.62800  0.62800  1.0000
  Rb  Rb5       1.0  0.00000  0.26200  0.73800  1.0000
  Rb  Rb6       1.0  0.50000  0.19200  0.80800  1.0000
