data_image0
_chemical_formula_structural       Ge2S8Sr4
_chemical_formula_sum              "Ge2 S8 Sr4"
_cell_length_a       8.28113
_cell_length_b       6.73907
_cell_length_c       6.75319
_cell_angle_alpha    90
_cell_angle_beta     108.178
_cell_angle_gamma    90

_space_group_name_H-M_alt    "P 1"
_space_group_IT_number       1

loop_
  _space_group_symop_operation_xyz
  'x, y, z'

loop_
  _atom_site_type_symbol
  _atom_site_label
  _atom_site_symmetry_multiplicity
  _atom_site_fract_x
  _atom_site_fract_y
  _atom_site_fract_z
  _atom_site_occupancy
  Ge  Ge1       1.0  0.20000  0.25000  0.27300  1.0000
  Ge  Ge2       1.0  0.80000  0.75000  0.72700  1.0000
  S   S1        1.0  0.37300  0.25000  0.07800  1.0000
  S   S2        1.0  0.92400  0.25000  0.09770  1.0000
  S   S3        1.0  0.26100  0.50400  0.49400  1.0000
  S   S4        1.0  0.26100  0.99600  0.49400  1.0000
  S   S5        1.0  0.73900  0.00392  0.50600  1.0000
  S   S6        1.0  0.73900  0.49600  0.50600  1.0000
  S   S7        1.0  0.07590  0.75000  0.90200  1.0000
  S   S8        1.0  0.62700  0.75000  0.92200  1.0000
  Sr  Sr1       1.0  0.43200  0.75000  0.23400  1.0000
  Sr  Sr2       1.0  0.94800  0.75000  0.27900  1.0000
  Sr  Sr3       1.0  0.05210  0.25000  0.72100  1.0000
  Sr  Sr4       1.0  0.56800  0.25000  0.76600  1.0000
