data_image0
_chemical_formula_structural       Ba2N12
_chemical_formula_sum              "Ba2 N12"
_cell_length_a       9.5765
_cell_length_b       4.30757
_cell_length_c       5.39681
_cell_angle_alpha    90
_cell_angle_beta     99.4249
_cell_angle_gamma    90

_space_group_name_H-M_alt    "P 1"
_space_group_IT_number       1

loop_
  _space_group_symop_operation_xyz
  'x, y, z'

loop_
  _atom_site_type_symbol
  _atom_site_label
  _atom_site_symmetry_multiplicity
  _atom_site_fract_x
  _atom_site_fract_y
  _atom_site_fract_z
  _atom_site_occupancy
  Ba  Ba1       1.0  0.21600  0.25000  0.17500  1.0000
  Ba  Ba2       1.0  0.78400  0.75000  0.82500  1.0000
  N   N1        1.0  0.90300  0.25000  0.12800  1.0000
  N   N2        1.0  0.41400  0.75000  0.22300  1.0000
  N   N3        1.0  0.54000  0.75000  0.25600  1.0000
  N   N4        1.0  0.66500  0.75000  0.29100  1.0000
  N   N5        1.0  0.89100  0.25000  0.34400  1.0000
  N   N6        1.0  0.11700  0.75000  0.44100  1.0000
  N   N7        1.0  0.88300  0.25000  0.55900  1.0000
  N   N8        1.0  0.10900  0.75000  0.65600  1.0000
  N   N9        1.0  0.33500  0.25000  0.70900  1.0000
  N   N10       1.0  0.46000  0.25000  0.74400  1.0000
  N   N11       1.0  0.58600  0.25000  0.77700  1.0000
  N   N12       1.0  0.09690  0.75000  0.87200  1.0000
