data_image0
_chemical_formula_structural       Nd4Te10
_chemical_formula_sum              "Nd4 Te10"
_cell_length_a       4.43434
_cell_length_b       4.43315
_cell_length_c       22.6964
_cell_angle_alpha    84.3955
_cell_angle_beta     90
_cell_angle_gamma    90

_space_group_name_H-M_alt    "P 1"
_space_group_IT_number       1

loop_
  _space_group_symop_operation_xyz
  'x, y, z'

loop_
  _atom_site_type_symbol
  _atom_site_label
  _atom_site_symmetry_multiplicity
  _atom_site_fract_x
  _atom_site_fract_y
  _atom_site_fract_z
  _atom_site_occupancy
  Nd  Nd1       1.0  0.25000  0.90100  0.19900  1.0000
  Nd  Nd2       1.0  0.75000  0.30700  0.38600  1.0000
  Nd  Nd3       1.0  0.25000  0.69300  0.61400  1.0000
  Nd  Nd4       1.0  0.75000  0.09930  0.80100  1.0000
  Te  Te1       1.0  0.75000  0.95700  0.08670  1.0000
  Te  Te2       1.0  0.25000  0.45700  0.08670  1.0000
  Te  Te3       1.0  0.75000  0.37900  0.24200  1.0000
  Te  Te4       1.0  0.25000  0.82700  0.34700  1.0000
  Te  Te5       1.0  0.75000  0.75000  0.50000  1.0000
  Te  Te6       1.0  0.25000  0.25000  0.50000  1.0000
  Te  Te7       1.0  0.75000  0.17300  0.65300  1.0000
  Te  Te8       1.0  0.25000  0.62100  0.75800  1.0000
  Te  Te9       1.0  0.75000  0.54300  0.91300  1.0000
  Te  Te10      1.0  0.25000  0.04330  0.91300  1.0000
