data_image0
_chemical_formula_structural       Br4Hg6Te4
_chemical_formula_sum              "Br4 Hg6 Te4"
_cell_length_a       8.36412
_cell_length_b       8.36412
_cell_length_c       8.36412
_cell_angle_alpha    109.471
_cell_angle_beta     109.471
_cell_angle_gamma    109.471

_space_group_name_H-M_alt    "P 1"
_space_group_IT_number       1

loop_
  _space_group_symop_operation_xyz
  'x, y, z'

loop_
  _atom_site_type_symbol
  _atom_site_label
  _atom_site_symmetry_multiplicity
  _atom_site_fract_x
  _atom_site_fract_y
  _atom_site_fract_z
  _atom_site_occupancy
  Br  Br1       1.0  0.96900  0.00000  0.00000  1.0000
  Br  Br2       1.0  0.53100  0.53100  0.03110  1.0000
  Br  Br3       1.0  0.00000  0.50000  0.46900  1.0000
  Br  Br4       1.0  0.50000  0.96900  0.50000  1.0000
  Hg  Hg1       1.0  0.25000  0.43600  0.18600  1.0000
  Hg  Hg2       1.0  0.06400  0.81400  0.25000  1.0000
  Hg  Hg3       1.0  0.75000  0.06400  0.31400  1.0000
  Hg  Hg4       1.0  0.81400  0.75000  0.56400  1.0000
  Hg  Hg5       1.0  0.43600  0.68600  0.75000  1.0000
  Hg  Hg6       1.0  0.68600  0.25000  0.93600  1.0000
  Te  Te1       1.0  0.44100  0.00000  0.00000  1.0000
  Te  Te2       1.0  0.50000  0.44100  0.50000  1.0000
  Te  Te3       1.0  0.05930  0.05930  0.55900  1.0000
  Te  Te4       1.0  0.00000  0.50000  0.94100  1.0000
