data_image0
_chemical_formula_structural       Cu2K2S6Th2
_chemical_formula_sum              "Cu2 K2 S6 Th2"
_cell_length_a       4.08142
_cell_length_b       7.24932
_cell_length_c       10.5909
_cell_angle_alpha    90
_cell_angle_beta     90
_cell_angle_gamma    73.65

_space_group_name_H-M_alt    "P 1"
_space_group_IT_number       1

loop_
  _space_group_symop_operation_xyz
  'x, y, z'

loop_
  _atom_site_type_symbol
  _atom_site_label
  _atom_site_symmetry_multiplicity
  _atom_site_fract_x
  _atom_site_fract_y
  _atom_site_fract_z
  _atom_site_occupancy
  Cu  Cu1       1.0  0.46700  0.06530  0.25000  1.0000
  Cu  Cu2       1.0  0.53300  0.93500  0.75000  1.0000
  K   K1        1.0  0.74400  0.51200  0.25000  1.0000
  K   K2        1.0  0.25600  0.48800  0.75000  1.0000
  S   S1        1.0  0.37400  0.25200  0.06820  1.0000
  S   S2        1.0  0.06340  0.87300  0.25000  1.0000
  S   S3        1.0  0.37400  0.25200  0.43200  1.0000
  S   S4        1.0  0.62600  0.74800  0.56800  1.0000
  S   S5        1.0  0.93700  0.12700  0.75000  1.0000
  S   S6        1.0  0.62600  0.74800  0.93200  1.0000
  Th  Th1       1.0  0.00000  0.00000  0.00000  1.0000
  Th  Th2       1.0  0.00000  0.00000  0.50000  1.0000
