data_image0
_chemical_formula_structural       O10S2V2
_chemical_formula_sum              "O10 S2 V2"
_cell_length_a       6.25728
_cell_length_b       6.25728
_cell_length_c       3.93673
_cell_angle_alpha    90
_cell_angle_beta     90
_cell_angle_gamma    90

_space_group_name_H-M_alt    "P 1"
_space_group_IT_number       1

loop_
  _space_group_symop_operation_xyz
  'x, y, z'

loop_
  _atom_site_type_symbol
  _atom_site_label
  _atom_site_symmetry_multiplicity
  _atom_site_fract_x
  _atom_site_fract_y
  _atom_site_fract_z
  _atom_site_occupancy
  O   O1        1.0  0.00000  0.50000  0.21400  1.0000
  O   O2        1.0  0.81300  0.04220  0.27800  1.0000
  O   O3        1.0  0.45800  0.31300  0.27800  1.0000
  O   O4        1.0  0.54200  0.68700  0.27800  1.0000
  O   O5        1.0  0.18700  0.95800  0.27800  1.0000
  O   O6        1.0  0.04220  0.18700  0.72200  1.0000
  O   O7        1.0  0.68700  0.45800  0.72200  1.0000
  O   O8        1.0  0.31300  0.54200  0.72200  1.0000
  O   O9        1.0  0.95800  0.81300  0.72200  1.0000
  O   O10       1.0  0.50000  0.00000  0.78600  1.0000
  S   S1        1.0  0.00000  0.00000  0.50000  1.0000
  S   S2        1.0  0.50000  0.50000  0.50000  1.0000
  V   V1        1.0  0.50000  0.00000  0.36600  1.0000
  V   V2        1.0  0.00000  0.50000  0.63400  1.0000
