data_image0
_chemical_formula_structural       Mn2O8Re2
_chemical_formula_sum              "Mn2 O8 Re2"
_cell_length_a       4.74666
_cell_length_b       5.64529
_cell_length_c       5.09481
_cell_angle_alpha    90
_cell_angle_beta     92.7171
_cell_angle_gamma    90

_space_group_name_H-M_alt    "P 1"
_space_group_IT_number       1

loop_
  _space_group_symop_operation_xyz
  'x, y, z'

loop_
  _atom_site_type_symbol
  _atom_site_label
  _atom_site_symmetry_multiplicity
  _atom_site_fract_x
  _atom_site_fract_y
  _atom_site_fract_z
  _atom_site_occupancy
  Mn  Mn1       1.0  0.50000  0.67500  0.25000  1.0000
  Mn  Mn2       1.0  0.50000  0.32500  0.75000  1.0000
  O   O1        1.0  0.78900  0.89700  0.05870  1.0000
  O   O2        1.0  0.73800  0.37600  0.11000  1.0000
  O   O3        1.0  0.26200  0.37600  0.39000  1.0000
  O   O4        1.0  0.21100  0.89700  0.44100  1.0000
  O   O5        1.0  0.78900  0.10300  0.55900  1.0000
  O   O6        1.0  0.73800  0.62400  0.61000  1.0000
  O   O7        1.0  0.26200  0.62400  0.89000  1.0000
  O   O8        1.0  0.21100  0.10300  0.94100  1.0000
  Re  Re1       1.0  0.00000  0.17000  0.25000  1.0000
  Re  Re2       1.0  0.00000  0.83000  0.75000  1.0000
