data_image0
_chemical_formula_structural       K2Mo6S6
_chemical_formula_sum              "K2 Mo6 S6"
_cell_length_a       8.84876
_cell_length_b       8.84869
_cell_length_c       4.44646
_cell_angle_alpha    90
_cell_angle_beta     90
_cell_angle_gamma    120

_space_group_name_H-M_alt    "P 1"
_space_group_IT_number       1

loop_
  _space_group_symop_operation_xyz
  'x, y, z'

loop_
  _atom_site_type_symbol
  _atom_site_label
  _atom_site_symmetry_multiplicity
  _atom_site_fract_x
  _atom_site_fract_y
  _atom_site_fract_z
  _atom_site_occupancy
  K   K1        1.0  0.66700  0.33300  0.25000  1.0000
  K   K2        1.0  0.33300  0.66700  0.75000  1.0000
  Mo  Mo1       1.0  0.84400  0.03120  0.25000  1.0000
  Mo  Mo2       1.0  0.18700  0.15600  0.25000  1.0000
  Mo  Mo3       1.0  0.96900  0.81300  0.25000  1.0000
  Mo  Mo4       1.0  0.03120  0.18700  0.75000  1.0000
  Mo  Mo5       1.0  0.81300  0.84400  0.75000  1.0000
  Mo  Mo6       1.0  0.15600  0.96900  0.75000  1.0000
  S   S1        1.0  0.06010  0.35200  0.25000  1.0000
  S   S2        1.0  0.64800  0.70800  0.25000  1.0000
  S   S3        1.0  0.29200  0.94000  0.25000  1.0000
  S   S4        1.0  0.70800  0.06010  0.75000  1.0000
  S   S5        1.0  0.35200  0.29200  0.75000  1.0000
  S   S6        1.0  0.94000  0.64800  0.75000  1.0000
