data_image0
_chemical_formula_structural       Hg2Na2O8P2
_chemical_formula_sum              "Hg2 Na2 O8 P2"
_cell_length_a       5.50077
_cell_length_b       5.50077
_cell_length_c       6.50205
_cell_angle_alpha    90
_cell_angle_beta     90
_cell_angle_gamma    116.255

_space_group_name_H-M_alt    "P 1"
_space_group_IT_number       1

loop_
  _space_group_symop_operation_xyz
  'x, y, z'

loop_
  _atom_site_type_symbol
  _atom_site_label
  _atom_site_symmetry_multiplicity
  _atom_site_fract_x
  _atom_site_fract_y
  _atom_site_fract_z
  _atom_site_occupancy
  Hg  Hg1       1.0  0.19000  0.81000  0.25000  1.0000
  Hg  Hg2       1.0  0.81000  0.19000  0.75000  1.0000
  Na  Na1       1.0  0.50000  0.50000  0.00000  1.0000
  Na  Na2       1.0  0.50000  0.50000  0.50000  1.0000
  O   O1        1.0  0.75200  0.24800  0.06570  1.0000
  O   O2        1.0  0.17300  0.26300  0.25000  1.0000
  O   O3        1.0  0.73700  0.82700  0.25000  1.0000
  O   O4        1.0  0.75200  0.24800  0.43400  1.0000
  O   O5        1.0  0.24800  0.75200  0.56600  1.0000
  O   O6        1.0  0.26300  0.17300  0.75000  1.0000
  O   O7        1.0  0.82700  0.73700  0.75000  1.0000
  O   O8        1.0  0.24800  0.75200  0.93400  1.0000
  P   P1        1.0  0.86000  0.14000  0.25000  1.0000
  P   P2        1.0  0.14000  0.86000  0.75000  1.0000
