data_image0
_chemical_formula_structural       Cu2O8Rh4
_chemical_formula_sum              "Cu2 O8 Rh4"
_cell_length_a       5.93165
_cell_length_b       5.93165
_cell_length_c       5.93165
_cell_angle_alpha    117.204
_cell_angle_beta     94.9146
_cell_angle_gamma    117.204

_space_group_name_H-M_alt    "P 1"
_space_group_IT_number       1

loop_
  _space_group_symop_operation_xyz
  'x, y, z'

loop_
  _atom_site_type_symbol
  _atom_site_label
  _atom_site_symmetry_multiplicity
  _atom_site_fract_x
  _atom_site_fract_y
  _atom_site_fract_z
  _atom_site_occupancy
  Cu  Cu1       1.0  0.00000  0.00000  0.00000  1.0000
  Cu  Cu2       1.0  0.75000  0.50000  0.25000  1.0000
  O   O1        1.0  0.15300  0.78200  0.37000  1.0000
  O   O2        1.0  0.58800  0.21800  0.37100  1.0000
  O   O3        1.0  0.12000  0.28200  0.40300  1.0000
  O   O4        1.0  0.63000  0.78300  0.41200  1.0000
  O   O5        1.0  0.12100  0.71800  0.83800  1.0000
  O   O6        1.0  0.62900  0.21700  0.84700  1.0000
  O   O7        1.0  0.59700  0.71700  0.87900  1.0000
  O   O8        1.0  0.16200  0.28300  0.88000  1.0000
  Rh  Rh1       1.0  0.37500  0.75000  0.12500  1.0000
  Rh  Rh2       1.0  0.37500  0.75000  0.62500  1.0000
  Rh  Rh3       1.0  0.37500  0.25000  0.62500  1.0000
  Rh  Rh4       1.0  0.87500  0.25000  0.62500  1.0000
