data_image0
_chemical_formula_structural       As8Eu6
_chemical_formula_sum              "As8 Eu6"
_cell_length_a       5.8548
_cell_length_b       7.8492
_cell_length_c       9.25262
_cell_angle_alpha    96.7766
_cell_angle_beta     71.5555
_cell_angle_gamma    111.898

_space_group_name_H-M_alt    "P 1"
_space_group_IT_number       1

loop_
  _space_group_symop_operation_xyz
  'x, y, z'

loop_
  _atom_site_type_symbol
  _atom_site_label
  _atom_site_symmetry_multiplicity
  _atom_site_fract_x
  _atom_site_fract_y
  _atom_site_fract_z
  _atom_site_occupancy
  As  As1       1.0  0.41200  0.82300  0.00662  1.0000
  As  As2       1.0  0.31000  0.33200  0.16200  1.0000
  As  As3       1.0  0.72200  0.83200  0.33800  1.0000
  As  As4       1.0  0.66900  0.32300  0.49300  1.0000
  As  As5       1.0  0.83900  0.67700  0.50700  1.0000
  As  As6       1.0  0.22800  0.16800  0.66200  1.0000
  As  As7       1.0  0.14000  0.66800  0.83800  1.0000
  As  As8       1.0  0.59600  0.17700  0.99300  1.0000
  Eu  Eu1       1.0  0.00354  0.00000  0.00000  1.0000
  Eu  Eu2       1.0  0.89000  0.50600  0.16700  1.0000
  Eu  Eu3       1.0  0.30700  0.00616  0.33300  1.0000
  Eu  Eu4       1.0  0.25400  0.50000  0.50000  1.0000
  Eu  Eu5       1.0  0.63400  0.99400  0.66700  1.0000
  Eu  Eu6       1.0  0.55100  0.49400  0.83300  1.0000
