data_image0
_chemical_formula_structural       K3NaO8S2
_chemical_formula_sum              "K3 Na1 O8 S2"
_cell_length_a       5.61677
_cell_length_b       5.61687
_cell_length_c       7.27218
_cell_angle_alpha    90
_cell_angle_beta     90.0008
_cell_angle_gamma    120.001

_space_group_name_H-M_alt    "P 1"
_space_group_IT_number       1

loop_
  _space_group_symop_operation_xyz
  'x, y, z'

loop_
  _atom_site_type_symbol
  _atom_site_label
  _atom_site_symmetry_multiplicity
  _atom_site_fract_x
  _atom_site_fract_y
  _atom_site_fract_z
  _atom_site_occupancy
  K   K1        1.0  0.00000  0.00000  0.00000  1.0000
  K   K2        1.0  0.33300  0.66700  0.32600  1.0000
  K   K3        1.0  0.66700  0.33300  0.67400  1.0000
  Na  Na1       1.0  0.00000  0.00000  0.50000  1.0000
  O   O1        1.0  0.66700  0.33300  0.02940  1.0000
  O   O2        1.0  0.81100  0.62100  0.30400  1.0000
  O   O3        1.0  0.81100  0.18900  0.30400  1.0000
  O   O4        1.0  0.37900  0.18900  0.30400  1.0000
  O   O5        1.0  0.62100  0.81100  0.69600  1.0000
  O   O6        1.0  0.18900  0.81100  0.69600  1.0000
  O   O7        1.0  0.18900  0.37900  0.69600  1.0000
  O   O8        1.0  0.33300  0.66700  0.97100  1.0000
  S   S1        1.0  0.66700  0.33300  0.23100  1.0000
  S   S2        1.0  0.33300  0.66700  0.76900  1.0000
