data_image0
_chemical_formula_structural       Ag4O8S2
_chemical_formula_sum              "Ag4 O8 S2"
_cell_length_a       5.79001
_cell_length_b       5.87825
_cell_length_c       6.9804
_cell_angle_alpha    101.786
_cell_angle_beta     114.503
_cell_angle_gamma    60.4953

_space_group_name_H-M_alt    "P 1"
_space_group_IT_number       1

loop_
  _space_group_symop_operation_xyz
  'x, y, z'

loop_
  _atom_site_type_symbol
  _atom_site_label
  _atom_site_symmetry_multiplicity
  _atom_site_fract_x
  _atom_site_fract_y
  _atom_site_fract_z
  _atom_site_occupancy
  Ag  Ag1       1.0  0.19400  0.61100  0.25000  1.0000
  Ag  Ag2       1.0  0.55600  0.88900  0.25000  1.0000
  Ag  Ag3       1.0  0.44400  0.11100  0.75000  1.0000
  Ag  Ag4       1.0  0.80600  0.38900  0.75000  1.0000
  O   O1        1.0  0.74600  0.07890  0.11400  1.0000
  O   O2        1.0  0.86800  0.42100  0.11400  1.0000
  O   O3        1.0  0.17500  0.07890  0.38600  1.0000
  O   O4        1.0  0.71100  0.42100  0.38600  1.0000
  O   O5        1.0  0.28900  0.57900  0.61400  1.0000
  O   O6        1.0  0.82500  0.92100  0.61400  1.0000
  O   O7        1.0  0.13200  0.57900  0.88600  1.0000
  O   O8        1.0  0.25400  0.92100  0.88600  1.0000
  S   S1        1.0  0.87500  0.25000  0.25000  1.0000
  S   S2        1.0  0.12500  0.75000  0.75000  1.0000
