data_image0
_chemical_formula_structural       As4Cu10
_chemical_formula_sum              "As4 Cu10"
_cell_length_a       5.5104
_cell_length_b       5.98662
_cell_length_c       7.07008
_cell_angle_alpha    115.048
_cell_angle_beta     112.936
_cell_angle_gamma    90

_space_group_name_H-M_alt    "P 1"
_space_group_IT_number       1

loop_
  _space_group_symop_operation_xyz
  'x, y, z'

loop_
  _atom_site_type_symbol
  _atom_site_label
  _atom_site_symmetry_multiplicity
  _atom_site_fract_x
  _atom_site_fract_y
  _atom_site_fract_z
  _atom_site_occupancy
  As  As1       1.0  0.11500  0.33400  0.23000  1.0000
  As  As2       1.0  0.61500  0.89700  0.23000  1.0000
  As  As3       1.0  0.38500  0.10300  0.77000  1.0000
  As  As4       1.0  0.88500  0.66600  0.77000  1.0000
  Cu  Cu1       1.0  0.25000  0.50000  0.00000  1.0000
  Cu  Cu2       1.0  0.75000  0.50000  0.00000  1.0000
  Cu  Cu3       1.0  0.60700  0.30300  0.21400  1.0000
  Cu  Cu4       1.0  0.10700  0.91100  0.21400  1.0000
  Cu  Cu5       1.0  0.47900  0.72900  0.45800  1.0000
  Cu  Cu6       1.0  0.97900  0.72900  0.45800  1.0000
  Cu  Cu7       1.0  0.02100  0.27100  0.54200  1.0000
  Cu  Cu8       1.0  0.52100  0.27100  0.54200  1.0000
  Cu  Cu9       1.0  0.89300  0.08870  0.78600  1.0000
  Cu  Cu10      1.0  0.39300  0.69700  0.78600  1.0000
