data_image0
_chemical_formula_structural       O6Tl8
_chemical_formula_sum              "O6 Tl8"
_cell_length_a       10.9023
_cell_length_b       3.49977
_cell_length_c       7.60134
_cell_angle_alpha    90
_cell_angle_beta     109.62
_cell_angle_gamma    90

_space_group_name_H-M_alt    "P 1"
_space_group_IT_number       1

loop_
  _space_group_symop_operation_xyz
  'x, y, z'

loop_
  _atom_site_type_symbol
  _atom_site_label
  _atom_site_symmetry_multiplicity
  _atom_site_fract_x
  _atom_site_fract_y
  _atom_site_fract_z
  _atom_site_occupancy
  O   O1        1.0  0.60000  0.75000  0.22200  1.0000
  O   O2        1.0  0.38700  0.25000  0.36100  1.0000
  O   O3        1.0  0.16700  0.75000  0.47100  1.0000
  O   O4        1.0  0.83300  0.25000  0.52900  1.0000
  O   O5        1.0  0.61300  0.75000  0.63900  1.0000
  O   O6        1.0  0.40000  0.25000  0.77800  1.0000
  Tl  Tl1       1.0  0.36500  0.75000  0.06650  1.0000
  Tl  Tl2       1.0  0.12600  0.25000  0.21600  1.0000
  Tl  Tl3       1.0  0.85700  0.75000  0.30300  1.0000
  Tl  Tl4       1.0  0.61200  0.25000  0.42800  1.0000
  Tl  Tl5       1.0  0.38800  0.75000  0.57200  1.0000
  Tl  Tl6       1.0  0.14300  0.25000  0.69700  1.0000
  Tl  Tl7       1.0  0.87400  0.75000  0.78400  1.0000
  Tl  Tl8       1.0  0.63500  0.25000  0.93400  1.0000
