data_image0
_chemical_formula_structural       Cl6N6Ti2
_chemical_formula_sum              "Cl6 N6 Ti2"
_cell_length_a       6.70411
_cell_length_b       7.57078
_cell_length_c       5.78423
_cell_angle_alpha    96.9584
_cell_angle_beta     100.704
_cell_angle_gamma    88.8962

_space_group_name_H-M_alt    "P 1"
_space_group_IT_number       1

loop_
  _space_group_symop_operation_xyz
  'x, y, z'

loop_
  _atom_site_type_symbol
  _atom_site_label
  _atom_site_symmetry_multiplicity
  _atom_site_fract_x
  _atom_site_fract_y
  _atom_site_fract_z
  _atom_site_occupancy
  Cl  Cl1       1.0  0.23000  0.96500  0.10800  1.0000
  Cl  Cl2       1.0  0.08750  0.38100  0.23700  1.0000
  Cl  Cl3       1.0  0.65400  0.25000  0.37800  1.0000
  Cl  Cl4       1.0  0.34600  0.75000  0.62200  1.0000
  Cl  Cl5       1.0  0.91200  0.61900  0.76300  1.0000
  Cl  Cl6       1.0  0.77000  0.03510  0.89200  1.0000
  N   N1        1.0  0.62600  0.67300  0.19300  1.0000
  N   N2        1.0  0.75100  0.77200  0.28900  1.0000
  N   N3        1.0  0.88400  0.87900  0.39000  1.0000
  N   N4        1.0  0.11600  0.12100  0.61000  1.0000
  N   N5        1.0  0.24900  0.22800  0.71100  1.0000
  N   N6        1.0  0.37400  0.32700  0.80700  1.0000
  Ti  Ti1       1.0  0.93400  0.13400  0.27800  1.0000
  Ti  Ti2       1.0  0.06640  0.86600  0.72200  1.0000
