data_image0
_chemical_formula_structural       C4Hg2I2K2N4
_chemical_formula_sum              "C4 Hg2 I2 K2 N4"
_cell_length_a       4.41478
_cell_length_b       8.43238
_cell_length_c       9.69181
_cell_angle_alpha    90
_cell_angle_beta     90
_cell_angle_gamma    74.8246

_space_group_name_H-M_alt    "P 1"
_space_group_IT_number       1

loop_
  _space_group_symop_operation_xyz
  'x, y, z'

loop_
  _atom_site_type_symbol
  _atom_site_label
  _atom_site_symmetry_multiplicity
  _atom_site_fract_x
  _atom_site_fract_y
  _atom_site_fract_z
  _atom_site_occupancy
  C   C1        1.0  0.87800  0.24500  0.05070  1.0000
  C   C2        1.0  0.87800  0.24500  0.44900  1.0000
  C   C3        1.0  0.12200  0.75500  0.55100  1.0000
  C   C4        1.0  0.12200  0.75500  0.94900  1.0000
  Hg  Hg1       1.0  0.00000  0.00000  0.00000  1.0000
  Hg  Hg2       1.0  0.00000  0.00000  0.50000  1.0000
  I   I1        1.0  0.55200  0.89600  0.25000  1.0000
  I   I2        1.0  0.44800  0.10400  0.75000  1.0000
  K   K1        1.0  0.23600  0.52800  0.25000  1.0000
  K   K2        1.0  0.76400  0.47200  0.75000  1.0000
  N   N1        1.0  0.80800  0.38300  0.08450  1.0000
  N   N2        1.0  0.80800  0.38300  0.41600  1.0000
  N   N3        1.0  0.19200  0.61700  0.58400  1.0000
  N   N4        1.0  0.19200  0.61700  0.91600  1.0000
