data_image0
_chemical_formula_structural       B2K2Na4O6
_chemical_formula_sum              "B2 K2 Na4 O6"
_cell_length_a       5.98799
_cell_length_b       5.56305
_cell_length_c       5.544
_cell_angle_alpha    90
_cell_angle_beta     90
_cell_angle_gamma    90

_space_group_name_H-M_alt    "P 1"
_space_group_IT_number       1

loop_
  _space_group_symop_operation_xyz
  'x, y, z'

loop_
  _atom_site_type_symbol
  _atom_site_label
  _atom_site_symmetry_multiplicity
  _atom_site_fract_x
  _atom_site_fract_y
  _atom_site_fract_z
  _atom_site_occupancy
  B   B1        1.0  0.75000  0.25000  0.20800  1.0000
  B   B2        1.0  0.25000  0.75000  0.79200  1.0000
  K   K1        1.0  0.25000  0.25000  0.08460  1.0000
  K   K2        1.0  0.75000  0.75000  0.91500  1.0000
  Na  Na1       1.0  0.02070  0.75000  0.37100  1.0000
  Na  Na2       1.0  0.47900  0.75000  0.37100  1.0000
  Na  Na3       1.0  0.52100  0.25000  0.62900  1.0000
  Na  Na4       1.0  0.97900  0.25000  0.62900  1.0000
  O   O1        1.0  0.25000  0.75000  0.04150  1.0000
  O   O2        1.0  0.75000  0.03560  0.34000  1.0000
  O   O3        1.0  0.75000  0.46400  0.34000  1.0000
  O   O4        1.0  0.25000  0.53600  0.66000  1.0000
  O   O5        1.0  0.25000  0.96400  0.66000  1.0000
  O   O6        1.0  0.75000  0.25000  0.95800  1.0000
