data_image0
_chemical_formula_structural       Na4O8S2
_chemical_formula_sum              "Na4 O8 S2"
_cell_length_a       5.21893
_cell_length_b       5.21893
_cell_length_c       6.89955
_cell_angle_alpha    90
_cell_angle_beta     90
_cell_angle_gamma    64.0271

_space_group_name_H-M_alt    "P 1"
_space_group_IT_number       1

loop_
  _space_group_symop_operation_xyz
  'x, y, z'

loop_
  _atom_site_type_symbol
  _atom_site_label
  _atom_site_symmetry_multiplicity
  _atom_site_fract_x
  _atom_site_fract_y
  _atom_site_fract_z
  _atom_site_occupancy
  Na  Na1       1.0  0.00000  0.50000  0.00000  1.0000
  Na  Na2       1.0  0.31200  0.81200  0.25000  1.0000
  Na  Na3       1.0  0.00000  0.50000  0.50000  1.0000
  Na  Na4       1.0  0.68800  0.18800  0.75000  1.0000
  O   O1        1.0  0.74600  0.24600  0.07510  1.0000
  O   O2        1.0  0.33200  0.27000  0.25000  1.0000
  O   O3        1.0  0.77000  0.83200  0.25000  1.0000
  O   O4        1.0  0.74600  0.24600  0.42500  1.0000
  O   O5        1.0  0.25400  0.75400  0.57500  1.0000
  O   O6        1.0  0.23000  0.16800  0.75000  1.0000
  O   O7        1.0  0.66800  0.73000  0.75000  1.0000
  O   O8        1.0  0.25400  0.75400  0.92500  1.0000
  S   S1        1.0  0.65000  0.15000  0.25000  1.0000
  S   S2        1.0  0.35000  0.85000  0.75000  1.0000
