data_image0
_chemical_formula_structural       O8Rb4W2
_chemical_formula_sum              "O8 Rb4 W2"
_cell_length_a       6.23094
_cell_length_b       7.08616
_cell_length_c       7.82449
_cell_angle_alpha    113.004
_cell_angle_beta     90
_cell_angle_gamma    116.082

_space_group_name_H-M_alt    "P 1"
_space_group_IT_number       1

loop_
  _space_group_symop_operation_xyz
  'x, y, z'

loop_
  _atom_site_type_symbol
  _atom_site_label
  _atom_site_symmetry_multiplicity
  _atom_site_fract_x
  _atom_site_fract_y
  _atom_site_fract_z
  _atom_site_occupancy
  O   O1        1.0  0.37800  0.28400  0.07490  1.0000
  O   O2        1.0  0.90600  0.28400  0.07490  1.0000
  O   O3        1.0  0.08960  0.17900  0.35400  1.0000
  O   O4        1.0  0.32900  0.65900  0.37400  1.0000
  O   O5        1.0  0.67100  0.34100  0.62600  1.0000
  O   O6        1.0  0.91000  0.82100  0.64600  1.0000
  O   O7        1.0  0.09430  0.71600  0.92500  1.0000
  O   O8        1.0  0.62200  0.71600  0.92500  1.0000
  Rb  Rb1       1.0  0.51400  0.02720  0.24000  1.0000
  Rb  Rb2       1.0  0.84600  0.69100  0.25800  1.0000
  Rb  Rb3       1.0  0.15400  0.30900  0.74200  1.0000
  Rb  Rb4       1.0  0.48600  0.97300  0.76000  1.0000
  W   W1        1.0  0.17500  0.35000  0.22100  1.0000
  W   W2        1.0  0.82500  0.65000  0.77900  1.0000
