data_image0
_chemical_formula_structural       Mo6Rb2S6
_chemical_formula_sum              "Mo6 Rb2 S6"
_cell_length_a       9.10604
_cell_length_b       9.10627
_cell_length_c       4.45206
_cell_angle_alpha    90
_cell_angle_beta     90
_cell_angle_gamma    120.004

_space_group_name_H-M_alt    "P 1"
_space_group_IT_number       1

loop_
  _space_group_symop_operation_xyz
  'x, y, z'

loop_
  _atom_site_type_symbol
  _atom_site_label
  _atom_site_symmetry_multiplicity
  _atom_site_fract_x
  _atom_site_fract_y
  _atom_site_fract_z
  _atom_site_occupancy
  Mo  Mo1       1.0  0.84700  0.02800  0.25000  1.0000
  Mo  Mo2       1.0  0.18100  0.15300  0.25000  1.0000
  Mo  Mo3       1.0  0.97200  0.81900  0.25000  1.0000
  Mo  Mo4       1.0  0.02800  0.18100  0.75000  1.0000
  Mo  Mo5       1.0  0.81900  0.84700  0.75000  1.0000
  Mo  Mo6       1.0  0.15300  0.97200  0.75000  1.0000
  Rb  Rb1       1.0  0.66700  0.33300  0.25000  1.0000
  Rb  Rb2       1.0  0.33300  0.66700  0.75000  1.0000
  S   S1        1.0  0.05430  0.34000  0.25000  1.0000
  S   S2        1.0  0.66000  0.71400  0.25000  1.0000
  S   S3        1.0  0.28600  0.94600  0.25000  1.0000
  S   S4        1.0  0.71400  0.05430  0.75000  1.0000
  S   S5        1.0  0.34000  0.28600  0.75000  1.0000
  S   S6        1.0  0.94600  0.66000  0.75000  1.0000
