data_image0
_chemical_formula_structural       Fe2I8Rb4
_chemical_formula_sum              "Fe2 I8 Rb4"
_cell_length_a       7.79203
_cell_length_b       8.27207
_cell_length_c       10.4728
_cell_angle_alpha    90
_cell_angle_beta     109.415
_cell_angle_gamma    90

_space_group_name_H-M_alt    "P 1"
_space_group_IT_number       1

loop_
  _space_group_symop_operation_xyz
  'x, y, z'

loop_
  _atom_site_type_symbol
  _atom_site_label
  _atom_site_symmetry_multiplicity
  _atom_site_fract_x
  _atom_site_fract_y
  _atom_site_fract_z
  _atom_site_occupancy
  Fe  Fe1       1.0  0.79500  0.74500  0.21000  1.0000
  Fe  Fe2       1.0  0.20500  0.24500  0.79000  1.0000
  I   I1        1.0  0.37200  0.25000  0.05300  1.0000
  I   I2        1.0  0.01310  0.49200  0.26900  1.0000
  I   I3        1.0  0.01780  0.99400  0.27600  1.0000
  I   I4        1.0  0.58300  0.74800  0.36000  1.0000
  I   I5        1.0  0.41700  0.24800  0.64000  1.0000
  I   I6        1.0  0.98200  0.49400  0.72400  1.0000
  I   I7        1.0  0.98700  0.99200  0.73100  1.0000
  I   I8        1.0  0.62800  0.75000  0.94700  1.0000
  Rb  Rb1       1.0  0.20000  0.74100  0.03920  1.0000
  Rb  Rb2       1.0  0.71000  0.23900  0.41700  1.0000
  Rb  Rb3       1.0  0.29000  0.73900  0.58300  1.0000
  Rb  Rb4       1.0  0.80000  0.24100  0.96100  1.0000
