data_image0
_chemical_formula_structural       As12V16
_chemical_formula_sum              "As12 V16"
_cell_length_a       7.05161
_cell_length_b       7.05161
_cell_length_c       17.8973
_cell_angle_alpha    90
_cell_angle_beta     90
_cell_angle_gamma    27.695

_space_group_name_H-M_alt    "P 1"
_space_group_IT_number       1

loop_
  _space_group_symop_operation_xyz
  'x, y, z'

loop_
  _atom_site_type_symbol
  _atom_site_label
  _atom_site_symmetry_multiplicity
  _atom_site_fract_x
  _atom_site_fract_y
  _atom_site_fract_z
  _atom_site_occupancy
  As  As1       1.0  0.09870  0.09870  0.88300  1.0000
  As  As2       1.0  0.90100  0.90100  0.38300  1.0000
  As  As3       1.0  0.90100  0.90100  0.11700  1.0000
  As  As4       1.0  0.09870  0.09870  0.61700  1.0000
  As  As5       1.0  0.30300  0.30300  0.25000  1.0000
  As  As6       1.0  0.69700  0.69700  0.75000  1.0000
  As  As7       1.0  0.58200  0.58200  0.25000  1.0000
  As  As8       1.0  0.41800  0.41800  0.75000  1.0000
  As  As9       1.0  0.15900  0.15900  0.07610  1.0000
  As  As10      1.0  0.84100  0.84100  0.57600  1.0000
  As  As11      1.0  0.84100  0.84100  0.92400  1.0000
  As  As12      1.0  0.15900  0.15900  0.42400  1.0000
  V   V1        1.0  0.00000  0.00000  0.00000  1.0000
  V   V2        1.0  0.00000  0.00000  0.50000  1.0000
  V   V3        1.0  0.94200  0.94200  0.25000  1.0000
  V   V4        1.0  0.05800  0.05800  0.75000  1.0000
  V   V5        1.0  0.26700  0.26700  0.83700  1.0000
  V   V6        1.0  0.73300  0.73300  0.33700  1.0000
  V   V7        1.0  0.73300  0.73300  0.16300  1.0000
  V   V8        1.0  0.26700  0.26700  0.66300  1.0000
  V   V9        1.0  0.46600  0.46600  0.88400  1.0000
  V   V10       1.0  0.53400  0.53400  0.38400  1.0000
  V   V11       1.0  0.53400  0.53400  0.11600  1.0000
  V   V12       1.0  0.46600  0.46600  0.61600  1.0000
  V   V13       1.0  0.33500  0.33500  0.02780  1.0000
  V   V14       1.0  0.66500  0.66500  0.52800  1.0000
  V   V15       1.0  0.66500  0.66500  0.97200  1.0000
  V   V16       1.0  0.33500  0.33500  0.47200  1.0000
