data_image0
_chemical_formula_structural       BaHfO8P2
_chemical_formula_sum              "Ba1 Hf1 O8 P2"
_cell_length_a       4.99824
_cell_length_b       4.99824
_cell_length_c       7.81628
_cell_angle_alpha    92.7264
_cell_angle_beta     92.7264
_cell_angle_gamma    63.9945

_space_group_name_H-M_alt    "P 1"
_space_group_IT_number       1

loop_
  _space_group_symop_operation_xyz
  'x, y, z'

loop_
  _atom_site_type_symbol
  _atom_site_label
  _atom_site_symmetry_multiplicity
  _atom_site_fract_x
  _atom_site_fract_y
  _atom_site_fract_z
  _atom_site_occupancy
  Ba  Ba1       1.0  0.00000  1.00000  0.50000  1.0000
  Hf  Hf1       1.0  0.00000  0.00000  0.00000  1.0000
  O   O1        1.0  0.22900  0.22900  0.08450  1.0000
  O   O2        1.0  0.70500  0.23000  0.19200  1.0000
  O   O3        1.0  0.23000  0.70500  0.19200  1.0000
  O   O4        1.0  0.31400  0.31400  0.40700  1.0000
  O   O5        1.0  0.68600  0.68600  0.59300  1.0000
  O   O6        1.0  0.77000  0.29500  0.80800  1.0000
  O   O7        1.0  0.29500  0.77000  0.80800  1.0000
  O   O8        1.0  0.77100  0.77100  0.91500  1.0000
  P   P1        1.0  0.36500  0.36500  0.22300  1.0000
  P   P2        1.0  0.63500  0.63500  0.77700  1.0000
