data_image0
_chemical_formula_structural       B2Br2Mg4N4
_chemical_formula_sum              "B2 Br2 Mg4 N4"
_cell_length_a       5.65174
_cell_length_b       5.65174
_cell_length_c       6.46361
_cell_angle_alpha    105.669
_cell_angle_beta     105.669
_cell_angle_gamma    71.6117

_space_group_name_H-M_alt    "P 1"
_space_group_IT_number       1

loop_
  _space_group_symop_operation_xyz
  'x, y, z'

loop_
  _atom_site_type_symbol
  _atom_site_label
  _atom_site_symmetry_multiplicity
  _atom_site_fract_x
  _atom_site_fract_y
  _atom_site_fract_z
  _atom_site_occupancy
  B   B1        1.0  0.88600  0.11400  0.25000  1.0000
  B   B2        1.0  0.11400  0.88600  0.75000  1.0000
  Br  Br1       1.0  0.36800  0.63200  0.25000  1.0000
  Br  Br2       1.0  0.63200  0.36800  0.75000  1.0000
  Mg  Mg1       1.0  0.34400  0.14000  0.16400  1.0000
  Mg  Mg2       1.0  0.86000  0.65600  0.33600  1.0000
  Mg  Mg3       1.0  0.14000  0.34400  0.66400  1.0000
  Mg  Mg4       1.0  0.65600  0.86000  0.83600  1.0000
  N   N1        1.0  0.73100  0.95900  0.18000  1.0000
  N   N2        1.0  0.04140  0.26900  0.32000  1.0000
  N   N3        1.0  0.95900  0.73100  0.68000  1.0000
  N   N4        1.0  0.26900  0.04140  0.82000  1.0000
