data_image0
_chemical_formula_structural       As4I4Se4
_chemical_formula_sum              "As4 I4 Se4"
_cell_length_a       9.18556
_cell_length_b       4.02982
_cell_length_c       10.1119
_cell_angle_alpha    90
_cell_angle_beta     90.8108
_cell_angle_gamma    90

_space_group_name_H-M_alt    "P 1"
_space_group_IT_number       1

loop_
  _space_group_symop_operation_xyz
  'x, y, z'

loop_
  _atom_site_type_symbol
  _atom_site_label
  _atom_site_symmetry_multiplicity
  _atom_site_fract_x
  _atom_site_fract_y
  _atom_site_fract_z
  _atom_site_occupancy
  As  As1       1.0  0.35800  0.10800  0.13700  1.0000
  As  As2       1.0  0.14200  0.60800  0.36300  1.0000
  As  As3       1.0  0.85800  0.39200  0.63700  1.0000
  As  As4       1.0  0.64200  0.89200  0.86300  1.0000
  I   I1        1.0  0.71300  0.47100  0.07740  1.0000
  I   I2        1.0  0.78700  0.97100  0.42300  1.0000
  I   I3        1.0  0.21300  0.02950  0.57700  1.0000
  I   I4        1.0  0.28700  0.52900  0.92300  1.0000
  Se  Se1       1.0  0.09920  0.05700  0.19000  1.0000
  Se  Se2       1.0  0.40100  0.55700  0.31000  1.0000
  Se  Se3       1.0  0.59900  0.44300  0.69000  1.0000
  Se  Se4       1.0  0.90100  0.94300  0.81000  1.0000
