data_image0
_chemical_formula_structural       Li3N4Ni4Sr3
_chemical_formula_sum              "Li3 N4 Ni4 Sr3"
_cell_length_a       4.00889
_cell_length_b       7.05259
_cell_length_c       9.26586
_cell_angle_alpha    112.369
_cell_angle_beta     102.493
_cell_angle_gamma    90

_space_group_name_H-M_alt    "P 1"
_space_group_IT_number       1

loop_
  _space_group_symop_operation_xyz
  'x, y, z'

loop_
  _atom_site_type_symbol
  _atom_site_label
  _atom_site_symmetry_multiplicity
  _atom_site_fract_x
  _atom_site_fract_y
  _atom_site_fract_z
  _atom_site_occupancy
  Li  Li1       1.0  0.50000  0.50000  0.00000  1.0000
  Li  Li2       1.0  0.11600  0.61600  0.23200  1.0000
  Li  Li3       1.0  0.88400  0.38400  0.76800  1.0000
  N   N1        1.0  0.61600  0.11600  0.23200  1.0000
  N   N2        1.0  0.62100  0.62100  0.24100  1.0000
  N   N3        1.0  0.37900  0.37900  0.75900  1.0000
  N   N4        1.0  0.38400  0.88400  0.76800  1.0000
  Ni  Ni1       1.0  0.62000  0.37000  0.23900  1.0000
  Ni  Ni2       1.0  0.62000  0.87000  0.23900  1.0000
  Ni  Ni3       1.0  0.38000  0.13000  0.76100  1.0000
  Ni  Ni4       1.0  0.38000  0.63000  0.76100  1.0000
  Sr  Sr1       1.0  0.00000  0.00000  0.00000  1.0000
  Sr  Sr2       1.0  0.21800  0.21800  0.43700  1.0000
  Sr  Sr3       1.0  0.78200  0.78200  0.56300  1.0000
