data_image0
_chemical_formula_structural       B2Mg2Na2O6
_chemical_formula_sum              "B2 Mg2 Na2 O6"
_cell_length_a       4.98919
_cell_length_b       5.05317
_cell_length_c       5.46952
_cell_angle_alpha    95.1959
_cell_angle_beta     100.57
_cell_angle_gamma    60.418

_space_group_name_H-M_alt    "P 1"
_space_group_IT_number       1

loop_
  _space_group_symop_operation_xyz
  'x, y, z'

loop_
  _atom_site_type_symbol
  _atom_site_label
  _atom_site_symmetry_multiplicity
  _atom_site_fract_x
  _atom_site_fract_y
  _atom_site_fract_z
  _atom_site_occupancy
  B   B1        1.0  0.33300  0.33500  0.25000  1.0000
  B   B2        1.0  0.66700  0.66500  0.75000  1.0000
  Mg  Mg1       1.0  0.00000  0.00000  0.00000  1.0000
  Mg  Mg2       1.0  0.00000  0.00000  0.50000  1.0000
  Na  Na1       1.0  0.66600  0.66700  0.25000  1.0000
  Na  Na2       1.0  0.33400  0.33300  0.75000  1.0000
  O   O1        1.0  0.63300  0.18000  0.19700  1.0000
  O   O2        1.0  0.17500  0.65000  0.25000  1.0000
  O   O3        1.0  0.18700  0.18000  0.30300  1.0000
  O   O4        1.0  0.81300  0.82000  0.69700  1.0000
  O   O5        1.0  0.82500  0.35000  0.75000  1.0000
  O   O6        1.0  0.36700  0.82000  0.80300  1.0000
