data_image0
_chemical_formula_structural       Cr2Nb2Se10
_chemical_formula_sum              "Cr2 Nb2 Se10"
_cell_length_a       9.35522
_cell_length_b       3.5312
_cell_length_c       10.4743
_cell_angle_alpha    90
_cell_angle_beta     116.454
_cell_angle_gamma    90

_space_group_name_H-M_alt    "P 1"
_space_group_IT_number       1

loop_
  _space_group_symop_operation_xyz
  'x, y, z'

loop_
  _atom_site_type_symbol
  _atom_site_label
  _atom_site_symmetry_multiplicity
  _atom_site_fract_x
  _atom_site_fract_y
  _atom_site_fract_z
  _atom_site_occupancy
  Cr  Cr1       1.0  0.43000  0.75000  0.10400  1.0000
  Cr  Cr2       1.0  0.57000  0.25000  0.89600  1.0000
  Nb  Nb1       1.0  0.26900  0.25000  0.36300  1.0000
  Nb  Nb2       1.0  0.73100  0.75000  0.63700  1.0000
  Se  Se1       1.0  0.22900  0.25000  0.08670  1.0000
  Se  Se2       1.0  0.63900  0.25000  0.15200  1.0000
  Se  Se3       1.0  0.03040  0.75000  0.24000  1.0000
  Se  Se4       1.0  0.48300  0.75000  0.36500  1.0000
  Se  Se5       1.0  0.16600  0.75000  0.49500  1.0000
  Se  Se6       1.0  0.83400  0.25000  0.50500  1.0000
  Se  Se7       1.0  0.51700  0.25000  0.63500  1.0000
  Se  Se8       1.0  0.97000  0.25000  0.76000  1.0000
  Se  Se9       1.0  0.36100  0.75000  0.84800  1.0000
  Se  Se10      1.0  0.77100  0.75000  0.91300  1.0000
