data_image0
_chemical_formula_structural       Cs2Mo6S6
_chemical_formula_sum              "Cs2 Mo6 S6"
_cell_length_a       9.41681
_cell_length_b       9.41609
_cell_length_c       4.45414
_cell_angle_alpha    90
_cell_angle_beta     90
_cell_angle_gamma    119.999

_space_group_name_H-M_alt    "P 1"
_space_group_IT_number       1

loop_
  _space_group_symop_operation_xyz
  'x, y, z'

loop_
  _atom_site_type_symbol
  _atom_site_label
  _atom_site_symmetry_multiplicity
  _atom_site_fract_x
  _atom_site_fract_y
  _atom_site_fract_z
  _atom_site_occupancy
  Cs  Cs1       1.0  0.66700  0.33300  0.25000  1.0000
  Cs  Cs2       1.0  0.33300  0.66700  0.75000  1.0000
  Mo  Mo1       1.0  0.84900  0.02240  0.25000  1.0000
  Mo  Mo2       1.0  0.17400  0.15100  0.25000  1.0000
  Mo  Mo3       1.0  0.97800  0.82600  0.25000  1.0000
  Mo  Mo4       1.0  0.02240  0.17400  0.75000  1.0000
  Mo  Mo5       1.0  0.82600  0.84900  0.75000  1.0000
  Mo  Mo6       1.0  0.15100  0.97800  0.75000  1.0000
  S   S1        1.0  0.04400  0.32600  0.25000  1.0000
  S   S2        1.0  0.67400  0.71800  0.25000  1.0000
  S   S3        1.0  0.28200  0.95600  0.25000  1.0000
  S   S4        1.0  0.71800  0.04400  0.75000  1.0000
  S   S5        1.0  0.32600  0.28200  0.75000  1.0000
  S   S6        1.0  0.95600  0.67400  0.75000  1.0000
