data_image0
_chemical_formula_structural       N12Sr2
_chemical_formula_sum              "N12 Sr2"
_cell_length_a       6.1153
_cell_length_b       6.46265
_cell_length_c       6.51451
_cell_angle_alpha    102.83
_cell_angle_beta     62.0072
_cell_angle_gamma    118.237

_space_group_name_H-M_alt    "P 1"
_space_group_IT_number       1

loop_
  _space_group_symop_operation_xyz
  'x, y, z'

loop_
  _atom_site_type_symbol
  _atom_site_label
  _atom_site_symmetry_multiplicity
  _atom_site_fract_x
  _atom_site_fract_y
  _atom_site_fract_z
  _atom_site_occupancy
  N   N1        1.0  0.59200  0.13100  0.24700  1.0000
  N   N2        1.0  0.16100  0.86900  0.24700  1.0000
  N   N3        1.0  0.37500  0.00000  0.25000  1.0000
  N   N4        1.0  0.37500  0.50000  0.25000  1.0000
  N   N5        1.0  0.15800  0.36900  0.25300  1.0000
  N   N6        1.0  0.58900  0.63100  0.25300  1.0000
  N   N7        1.0  0.21100  0.36900  0.74700  1.0000
  N   N8        1.0  0.04200  0.63100  0.74700  1.0000
  N   N9        1.0  0.12500  0.50000  0.75000  1.0000
  N   N10       1.0  0.62500  0.00000  0.75000  1.0000
  N   N11       1.0  0.53900  0.13100  0.75300  1.0000
  N   N12       1.0  0.70800  0.86900  0.75300  1.0000
  Sr  Sr1       1.0  0.00000  0.00000  0.00000  1.0000
  Sr  Sr2       1.0  0.75000  0.50000  0.50000  1.0000
