data_image0
_chemical_formula_structural       Cs2F6Mo2O4
_chemical_formula_sum              "Cs2 F6 Mo2 O4"
_cell_length_a       5.45838
_cell_length_b       6.30673
_cell_length_c       8.09435
_cell_angle_alpha    112.928
_cell_angle_beta     109.705
_cell_angle_gamma    90

_space_group_name_H-M_alt    "P 1"
_space_group_IT_number       1

loop_
  _space_group_symop_operation_xyz
  'x, y, z'

loop_
  _atom_site_type_symbol
  _atom_site_label
  _atom_site_symmetry_multiplicity
  _atom_site_fract_x
  _atom_site_fract_y
  _atom_site_fract_z
  _atom_site_occupancy
  Cs  Cs1       1.0  0.63500  0.88500  0.27000  1.0000
  Cs  Cs2       1.0  0.36500  0.11500  0.73000  1.0000
  F   F1        1.0  0.16200  0.11500  0.32400  1.0000
  F   F2        1.0  0.16200  0.70900  0.32400  1.0000
  F   F3        1.0  0.00000  0.50000  0.50000  1.0000
  F   F4        1.0  0.50000  0.50000  0.50000  1.0000
  F   F5        1.0  0.83800  0.29100  0.67600  1.0000
  F   F6        1.0  0.83800  0.88500  0.67600  1.0000
  Mo  Mo1       1.0  0.13000  0.38000  0.25900  1.0000
  Mo  Mo2       1.0  0.87000  0.62000  0.74100  1.0000
  O   O1        1.0  0.29800  0.30200  0.10400  1.0000
  O   O2        1.0  0.80600  0.30200  0.10400  1.0000
  O   O3        1.0  0.19400  0.69800  0.89600  1.0000
  O   O4        1.0  0.70200  0.69800  0.89600  1.0000
