data_image0
_chemical_formula_structural       Al2B8Lu2
_chemical_formula_sum              "Al2 B8 Lu2"
_cell_length_a       3.49681
_cell_length_b       5.8917
_cell_length_c       5.8917
_cell_angle_alpha    103.818
_cell_angle_beta     90
_cell_angle_gamma    90

_space_group_name_H-M_alt    "P 1"
_space_group_IT_number       1

loop_
  _space_group_symop_operation_xyz
  'x, y, z'

loop_
  _atom_site_type_symbol
  _atom_site_label
  _atom_site_symmetry_multiplicity
  _atom_site_fract_x
  _atom_site_fract_y
  _atom_site_fract_z
  _atom_site_occupancy
  Al  Al1       1.0  0.00000  0.18100  0.18100  1.0000
  Al  Al2       1.0  0.00000  0.81900  0.81900  1.0000
  B   B1        1.0  0.50000  0.38300  0.06310  1.0000
  B   B2        1.0  0.50000  0.90700  0.09290  1.0000
  B   B3        1.0  0.50000  0.37900  0.37900  1.0000
  B   B4        1.0  0.50000  0.06310  0.38300  1.0000
  B   B5        1.0  0.50000  0.93700  0.61700  1.0000
  B   B6        1.0  0.50000  0.62100  0.62100  1.0000
  B   B7        1.0  0.50000  0.09290  0.90700  1.0000
  B   B8        1.0  0.50000  0.61700  0.93700  1.0000
  Lu  Lu1       1.0  0.00000  0.70000  0.30000  1.0000
  Lu  Lu2       1.0  0.00000  0.30000  0.70000  1.0000
