data_image0
_chemical_formula_structural       Au12Pr2
_chemical_formula_sum              "Au12 Pr2"
_cell_length_a       5.54701
_cell_length_b       5.54701
_cell_length_c       9.17694
_cell_angle_alpha    97.3046
_cell_angle_beta     82.6954
_cell_angle_gamma    90.1413

_space_group_name_H-M_alt    "P 1"
_space_group_IT_number       1

loop_
  _space_group_symop_operation_xyz
  'x, y, z'

loop_
  _atom_site_type_symbol
  _atom_site_label
  _atom_site_symmetry_multiplicity
  _atom_site_fract_x
  _atom_site_fract_y
  _atom_site_fract_z
  _atom_site_occupancy
  Au  Au1       1.0  0.38500  0.77900  0.08120  1.0000
  Au  Au2       1.0  0.83500  0.54100  0.12700  1.0000
  Au  Au3       1.0  0.84400  0.04170  0.13600  1.0000
  Au  Au4       1.0  0.04170  0.84400  0.36400  1.0000
  Au  Au5       1.0  0.54100  0.83500  0.37300  1.0000
  Au  Au6       1.0  0.77900  0.38500  0.41900  1.0000
  Au  Au7       1.0  0.22100  0.61500  0.58100  1.0000
  Au  Au8       1.0  0.45900  0.16500  0.62700  1.0000
  Au  Au9       1.0  0.95800  0.15600  0.63600  1.0000
  Au  Au10      1.0  0.15600  0.95800  0.86400  1.0000
  Au  Au11      1.0  0.16500  0.45900  0.87300  1.0000
  Au  Au12      1.0  0.61500  0.22100  0.91900  1.0000
  Pr  Pr1       1.0  0.31400  0.31400  0.25000  1.0000
  Pr  Pr2       1.0  0.68600  0.68600  0.75000  1.0000
