data_image0
_chemical_formula_structural       Hg4O6Te2
_chemical_formula_sum              "Hg4 O6 Te2"
_cell_length_a       5.94958
_cell_length_b       11.0698
_cell_length_c       3.58174
_cell_angle_alpha    90
_cell_angle_beta     90
_cell_angle_gamma    90

_space_group_name_H-M_alt    "P 1"
_space_group_IT_number       1

loop_
  _space_group_symop_operation_xyz
  'x, y, z'

loop_
  _atom_site_type_symbol
  _atom_site_label
  _atom_site_symmetry_multiplicity
  _atom_site_fract_x
  _atom_site_fract_y
  _atom_site_fract_z
  _atom_site_occupancy
  Hg  Hg1       1.0  0.81600  0.06250  0.96000  1.0000
  Hg  Hg2       1.0  0.81600  0.43700  0.96000  1.0000
  Hg  Hg3       1.0  0.18400  0.56300  0.96000  1.0000
  Hg  Hg4       1.0  0.18400  0.93700  0.96000  1.0000
  O   O1        1.0  0.74800  0.25000  0.43500  1.0000
  O   O2        1.0  0.25200  0.75000  0.43500  1.0000
  O   O3        1.0  0.46200  0.12300  0.90300  1.0000
  O   O4        1.0  0.46200  0.37700  0.90300  1.0000
  O   O5        1.0  0.53800  0.62300  0.90300  1.0000
  O   O6        1.0  0.53800  0.87700  0.90300  1.0000
  Te  Te1       1.0  0.43500  0.25000  0.53100  1.0000
  Te  Te2       1.0  0.56500  0.75000  0.53100  1.0000
