data_image0
_chemical_formula_structural       Au4Y8
_chemical_formula_sum              "Au4 Y8"
_cell_length_a       7.14061
_cell_length_b       4.9523
_cell_length_c       8.9426
_cell_angle_alpha    90
_cell_angle_beta     90
_cell_angle_gamma    90

_space_group_name_H-M_alt    "P 1"
_space_group_IT_number       1

loop_
  _space_group_symop_operation_xyz
  'x, y, z'

loop_
  _atom_site_type_symbol
  _atom_site_label
  _atom_site_symmetry_multiplicity
  _atom_site_fract_x
  _atom_site_fract_y
  _atom_site_fract_z
  _atom_site_occupancy
  Au  Au1       1.0  0.74300  0.25000  0.10000  1.0000
  Au  Au2       1.0  0.24300  0.25000  0.40000  1.0000
  Au  Au3       1.0  0.75700  0.75000  0.60000  1.0000
  Au  Au4       1.0  0.25700  0.75000  0.90000  1.0000
  Y   Y1        1.0  0.14800  0.25000  0.08080  1.0000
  Y   Y2        1.0  0.48400  0.75000  0.17600  1.0000
  Y   Y3        1.0  0.98400  0.75000  0.32400  1.0000
  Y   Y4        1.0  0.64800  0.25000  0.41900  1.0000
  Y   Y5        1.0  0.35200  0.75000  0.58100  1.0000
  Y   Y6        1.0  0.01590  0.25000  0.67600  1.0000
  Y   Y7        1.0  0.51600  0.25000  0.82400  1.0000
  Y   Y8        1.0  0.85200  0.75000  0.91900  1.0000
