data_image0
_chemical_formula_structural       Ba8In4
_chemical_formula_sum              "Ba8 In4"
_cell_length_a       8.13246
_cell_length_b       5.94441
_cell_length_c       11.0054
_cell_angle_alpha    90
_cell_angle_beta     90
_cell_angle_gamma    90

_space_group_name_H-M_alt    "P 1"
_space_group_IT_number       1

loop_
  _space_group_symop_operation_xyz
  'x, y, z'

loop_
  _atom_site_type_symbol
  _atom_site_label
  _atom_site_symmetry_multiplicity
  _atom_site_fract_x
  _atom_site_fract_y
  _atom_site_fract_z
  _atom_site_occupancy
  Ba  Ba1       1.0  0.82200  0.75000  0.07390  1.0000
  Ba  Ba2       1.0  0.52200  0.25000  0.19400  1.0000
  Ba  Ba3       1.0  0.02250  0.25000  0.30600  1.0000
  Ba  Ba4       1.0  0.32200  0.75000  0.42600  1.0000
  Ba  Ba5       1.0  0.67800  0.25000  0.57400  1.0000
  Ba  Ba6       1.0  0.97800  0.75000  0.69400  1.0000
  Ba  Ba7       1.0  0.47800  0.75000  0.80600  1.0000
  Ba  Ba8       1.0  0.17800  0.25000  0.92600  1.0000
  In  In1       1.0  0.26900  0.75000  0.10500  1.0000
  In  In2       1.0  0.76900  0.75000  0.39500  1.0000
  In  In3       1.0  0.23100  0.25000  0.60500  1.0000
  In  In4       1.0  0.73100  0.25000  0.89500  1.0000
