data_image0
_chemical_formula_structural       Cl8Cu2Ga2
_chemical_formula_sum              "Cl8 Cu2 Ga2"
_cell_length_a       5.42168
_cell_length_b       5.42168
_cell_length_c       10.2089
_cell_angle_alpha    90
_cell_angle_beta     90
_cell_angle_gamma    90

_space_group_name_H-M_alt    "P 1"
_space_group_IT_number       1

loop_
  _space_group_symop_operation_xyz
  'x, y, z'

loop_
  _atom_site_type_symbol
  _atom_site_label
  _atom_site_symmetry_multiplicity
  _atom_site_fract_x
  _atom_site_fract_y
  _atom_site_fract_z
  _atom_site_occupancy
  Cl  Cl1       1.0  0.26600  0.23900  0.12600  1.0000
  Cl  Cl2       1.0  0.73400  0.76100  0.12600  1.0000
  Cl  Cl3       1.0  0.73400  0.23900  0.37400  1.0000
  Cl  Cl4       1.0  0.26600  0.76100  0.37400  1.0000
  Cl  Cl5       1.0  0.23900  0.26600  0.62600  1.0000
  Cl  Cl6       1.0  0.76100  0.73400  0.62600  1.0000
  Cl  Cl7       1.0  0.76100  0.26600  0.87400  1.0000
  Cl  Cl8       1.0  0.23900  0.73400  0.87400  1.0000
  Cu  Cu1       1.0  0.00000  0.00000  0.00000  1.0000
  Cu  Cu2       1.0  0.00000  0.00000  0.50000  1.0000
  Ga  Ga1       1.0  0.50000  0.00000  0.25000  1.0000
  Ga  Ga2       1.0  0.00000  0.50000  0.75000  1.0000
