data_image0
_chemical_formula_structural       B2K6P4
_chemical_formula_sum              "B2 K6 P4"
_cell_length_a       6.46466
_cell_length_b       6.46466
_cell_length_c       9.02893
_cell_angle_alpha    105.175
_cell_angle_beta     74.8251
_cell_angle_gamma    93.0744

_space_group_name_H-M_alt    "P 1"
_space_group_IT_number       1

loop_
  _space_group_symop_operation_xyz
  'x, y, z'

loop_
  _atom_site_type_symbol
  _atom_site_label
  _atom_site_symmetry_multiplicity
  _atom_site_fract_x
  _atom_site_fract_y
  _atom_site_fract_z
  _atom_site_occupancy
  B   B1        1.0  0.28200  0.28200  0.25000  1.0000
  B   B2        1.0  0.71800  0.71800  0.75000  1.0000
  K   K1        1.0  0.25600  0.84400  0.01830  1.0000
  K   K2        1.0  0.65400  0.65400  0.25000  1.0000
  K   K3        1.0  0.84400  0.25600  0.48200  1.0000
  K   K4        1.0  0.15600  0.74400  0.51800  1.0000
  K   K5        1.0  0.34600  0.34600  0.75000  1.0000
  K   K6        1.0  0.74400  0.15600  0.98200  1.0000
  P   P1        1.0  0.15000  0.40500  0.14500  1.0000
  P   P2        1.0  0.40500  0.15000  0.35500  1.0000
  P   P3        1.0  0.59500  0.85000  0.64500  1.0000
  P   P4        1.0  0.85000  0.59500  0.85500  1.0000
