data_image0
_chemical_formula_structural       Au4Cl8
_chemical_formula_sum              "Au4 Cl8"
_cell_length_a       7.17942
_cell_length_b       6.91642
_cell_length_c       6.82853
_cell_angle_alpha    94.2105
_cell_angle_beta     109.19
_cell_angle_gamma    86.8327

_space_group_name_H-M_alt    "P 1"
_space_group_IT_number       1

loop_
  _space_group_symop_operation_xyz
  'x, y, z'

loop_
  _atom_site_type_symbol
  _atom_site_label
  _atom_site_symmetry_multiplicity
  _atom_site_fract_x
  _atom_site_fract_y
  _atom_site_fract_z
  _atom_site_occupancy
  Au  Au1       1.0  0.46000  0.51900  0.26400  1.0000
  Au  Au2       1.0  0.08890  0.24000  0.37500  1.0000
  Au  Au3       1.0  0.91100  0.76000  0.62500  1.0000
  Au  Au4       1.0  0.54000  0.48100  0.73600  1.0000
  Cl  Cl1       1.0  0.81300  0.28700  0.08570  1.0000
  Cl  Cl2       1.0  0.29300  0.23100  0.16300  1.0000
  Cl  Cl3       1.0  0.62400  0.80800  0.32700  1.0000
  Cl  Cl4       1.0  0.11000  0.74700  0.41700  1.0000
  Cl  Cl5       1.0  0.89000  0.25300  0.58300  1.0000
  Cl  Cl6       1.0  0.37600  0.19200  0.67300  1.0000
  Cl  Cl7       1.0  0.70700  0.76900  0.83700  1.0000
  Cl  Cl8       1.0  0.18700  0.71300  0.91400  1.0000
