data_image0
_chemical_formula_structural       B4Ni6Zn2
_chemical_formula_sum              "B4 Ni6 Zn2"
_cell_length_a       2.89104
_cell_length_b       4.97401
_cell_length_c       8.44345
_cell_angle_alpha    100.85
_cell_angle_beta     90
_cell_angle_gamma    106.895

_space_group_name_H-M_alt    "P 1"
_space_group_IT_number       1

loop_
  _space_group_symop_operation_xyz
  'x, y, z'

loop_
  _atom_site_type_symbol
  _atom_site_label
  _atom_site_symmetry_multiplicity
  _atom_site_fract_x
  _atom_site_fract_y
  _atom_site_fract_z
  _atom_site_occupancy
  B   B1        1.0  0.01490  0.02990  0.11200  1.0000
  B   B2        1.0  0.84500  0.69000  0.18500  1.0000
  B   B3        1.0  0.15500  0.31000  0.81500  1.0000
  B   B4        1.0  0.98500  0.97000  0.88800  1.0000
  Ni  Ni1       1.0  0.63800  0.27700  0.00236  1.0000
  Ni  Ni2       1.0  0.21900  0.43800  0.25100  1.0000
  Ni  Ni3       1.0  0.49600  0.99200  0.28900  1.0000
  Ni  Ni4       1.0  0.50400  0.00847  0.71100  1.0000
  Ni  Ni5       1.0  0.78100  0.56200  0.74900  1.0000
  Ni  Ni6       1.0  0.36200  0.72300  0.99800  1.0000
  Zn  Zn1       1.0  0.86200  0.72300  0.47500  1.0000
  Zn  Zn2       1.0  0.13800  0.27700  0.52500  1.0000
