data_image0
_chemical_formula_structural       Cr4Si4
_chemical_formula_sum              "Cr4 Si4"
_cell_length_a       4.59004
_cell_length_b       4.59004
_cell_length_c       4.59004
_cell_angle_alpha    90
_cell_angle_beta     90
_cell_angle_gamma    90

_space_group_name_H-M_alt    "P 1"
_space_group_IT_number       1

loop_
  _space_group_symop_operation_xyz
  'x, y, z'

loop_
  _atom_site_type_symbol
  _atom_site_label
  _atom_site_symmetry_multiplicity
  _atom_site_fract_x
  _atom_site_fract_y
  _atom_site_fract_z
  _atom_site_occupancy
  Cr  Cr1       1.0  0.13800  0.13800  0.13800  1.0000
  Cr  Cr2       1.0  0.86200  0.63800  0.36200  1.0000
  Cr  Cr3       1.0  0.36200  0.86200  0.63800  1.0000
  Cr  Cr4       1.0  0.63800  0.36200  0.86200  1.0000
  Si  Si1       1.0  0.34700  0.65300  0.15300  1.0000
  Si  Si2       1.0  0.65300  0.15300  0.34700  1.0000
  Si  Si3       1.0  0.15300  0.34700  0.65300  1.0000
  Si  Si4       1.0  0.84700  0.84700  0.84700  1.0000
