data_image0
_chemical_formula_structural       Eu4Ga4
_chemical_formula_sum              "Eu4 Ga4"
_cell_length_a       5.73763
_cell_length_b       6.17903
_cell_length_c       6.45357
_cell_angle_alpha    67.8605
_cell_angle_beta     79.6204
_cell_angle_gamma    84.7745

_space_group_name_H-M_alt    "P 1"
_space_group_IT_number       1

loop_
  _space_group_symop_operation_xyz
  'x, y, z'

loop_
  _atom_site_type_symbol
  _atom_site_label
  _atom_site_symmetry_multiplicity
  _atom_site_fract_x
  _atom_site_fract_y
  _atom_site_fract_z
  _atom_site_occupancy
  Eu  Eu1       1.0  0.23600  0.14900  0.07870  1.0000
  Eu  Eu2       1.0  0.67600  0.30500  0.34800  1.0000
  Eu  Eu3       1.0  0.32400  0.69500  0.65200  1.0000
  Eu  Eu4       1.0  0.76400  0.85100  0.92100  1.0000
  Ga  Ga1       1.0  0.21300  0.61100  0.19000  1.0000
  Ga  Ga2       1.0  0.86300  0.76200  0.42900  1.0000
  Ga  Ga3       1.0  0.13700  0.23800  0.57100  1.0000
  Ga  Ga4       1.0  0.78700  0.38900  0.81000  1.0000
