data_image0
_chemical_formula_structural       O8Se2Te2
_chemical_formula_sum              "O8 Se2 Te2"
_cell_length_a       4.24045
_cell_length_b       6.74854
_cell_length_c       7.36723
_cell_angle_alpha    117.133
_cell_angle_beta     106.552
_cell_angle_gamma    90.4771

_space_group_name_H-M_alt    "P 1"
_space_group_IT_number       1

loop_
  _space_group_symop_operation_xyz
  'x, y, z'

loop_
  _atom_site_type_symbol
  _atom_site_label
  _atom_site_symmetry_multiplicity
  _atom_site_fract_x
  _atom_site_fract_y
  _atom_site_fract_z
  _atom_site_occupancy
  O   O1        1.0  0.71100  0.05600  0.10000  1.0000
  O   O2        1.0  0.34000  0.78700  0.20800  1.0000
  O   O3        1.0  0.33400  0.42300  0.22400  1.0000
  O   O4        1.0  0.85300  0.25400  0.49800  1.0000
  O   O5        1.0  0.85500  0.75600  0.50300  1.0000
  O   O6        1.0  0.60900  0.19600  0.77400  1.0000
  O   O7        1.0  0.63000  0.57900  0.79200  1.0000
  O   O8        1.0  0.11100  0.95500  0.90100  1.0000
  Se  Se1       1.0  0.63300  0.61400  0.23500  1.0000
  Se  Se2       1.0  0.89800  0.37900  0.76500  1.0000
  Te  Te1       1.0  0.35400  0.11300  0.22700  1.0000
  Te  Te2       1.0  0.62600  0.88600  0.77300  1.0000
