data_image0
_chemical_formula_structural       Pt4Si4Zr4
_chemical_formula_sum              "Pt4 Si4 Zr4"
_cell_length_a       6.65089
_cell_length_b       3.93317
_cell_length_c       7.60987
_cell_angle_alpha    90
_cell_angle_beta     90
_cell_angle_gamma    90

_space_group_name_H-M_alt    "P 1"
_space_group_IT_number       1

loop_
  _space_group_symop_operation_xyz
  'x, y, z'

loop_
  _atom_site_type_symbol
  _atom_site_label
  _atom_site_symmetry_multiplicity
  _atom_site_fract_x
  _atom_site_fract_y
  _atom_site_fract_z
  _atom_site_occupancy
  Pt  Pt1       1.0  0.14600  0.25000  0.06380  1.0000
  Pt  Pt2       1.0  0.64600  0.25000  0.43600  1.0000
  Pt  Pt3       1.0  0.35400  0.75000  0.56400  1.0000
  Pt  Pt4       1.0  0.85400  0.75000  0.93600  1.0000
  Si  Si1       1.0  0.76300  0.25000  0.12200  1.0000
  Si  Si2       1.0  0.26300  0.25000  0.37800  1.0000
  Si  Si3       1.0  0.73700  0.75000  0.62200  1.0000
  Si  Si4       1.0  0.23700  0.75000  0.87800  1.0000
  Zr  Zr1       1.0  0.47600  0.75000  0.17800  1.0000
  Zr  Zr2       1.0  0.97600  0.75000  0.32200  1.0000
  Zr  Zr3       1.0  0.02430  0.25000  0.67800  1.0000
  Zr  Zr4       1.0  0.52400  0.25000  0.82200  1.0000
