data_image0
_chemical_formula_structural       B2Cs6P4
_chemical_formula_sum              "B2 Cs6 P4"
_cell_length_a       6.96142
_cell_length_b       6.96142
_cell_length_c       9.92568
_cell_angle_alpha    103.834
_cell_angle_beta     76.1661
_cell_angle_gamma    90.8538

_space_group_name_H-M_alt    "P 1"
_space_group_IT_number       1

loop_
  _space_group_symop_operation_xyz
  'x, y, z'

loop_
  _atom_site_type_symbol
  _atom_site_label
  _atom_site_symmetry_multiplicity
  _atom_site_fract_x
  _atom_site_fract_y
  _atom_site_fract_z
  _atom_site_occupancy
  B   B1        1.0  0.28700  0.28700  0.25000  1.0000
  B   B2        1.0  0.71300  0.71300  0.75000  1.0000
  Cs  Cs1       1.0  0.25500  0.84500  0.01950  1.0000
  Cs  Cs2       1.0  0.66000  0.66000  0.25000  1.0000
  Cs  Cs3       1.0  0.84500  0.25500  0.48100  1.0000
  Cs  Cs4       1.0  0.15500  0.74500  0.51900  1.0000
  Cs  Cs5       1.0  0.34000  0.34000  0.75000  1.0000
  Cs  Cs6       1.0  0.74500  0.15500  0.98100  1.0000
  P   P1        1.0  0.16700  0.40200  0.14800  1.0000
  P   P2        1.0  0.40200  0.16700  0.35200  1.0000
  P   P3        1.0  0.59800  0.83300  0.64800  1.0000
  P   P4        1.0  0.83300  0.59800  0.85200  1.0000
