data_image0
_chemical_formula_structural       P4W4
_chemical_formula_sum              "P4 W4"
_cell_length_a       5.75417
_cell_length_b       3.26002
_cell_length_c       6.25592
_cell_angle_alpha    90
_cell_angle_beta     90
_cell_angle_gamma    90

_space_group_name_H-M_alt    "P 1"
_space_group_IT_number       1

loop_
  _space_group_symop_operation_xyz
  'x, y, z'

loop_
  _atom_site_type_symbol
  _atom_site_label
  _atom_site_symmetry_multiplicity
  _atom_site_fract_x
  _atom_site_fract_y
  _atom_site_fract_z
  _atom_site_occupancy
  P   P1        1.0  0.31700  0.75000  0.06520  1.0000
  P   P2        1.0  0.81700  0.75000  0.43500  1.0000
  P   P3        1.0  0.18300  0.25000  0.56500  1.0000
  P   P4        1.0  0.68300  0.25000  0.93500  1.0000
  W   W1        1.0  0.01450  0.25000  0.18800  1.0000
  W   W2        1.0  0.51400  0.25000  0.31200  1.0000
  W   W3        1.0  0.48600  0.75000  0.68800  1.0000
  W   W4        1.0  0.98600  0.75000  0.81200  1.0000
