data_image0
_chemical_formula_structural       B4CCl6O
_chemical_formula_sum              "B4 C1 Cl6 O1"
_cell_length_a       6.96148
_cell_length_b       6.96148
_cell_length_c       6.962
_cell_angle_alpha    107.503
_cell_angle_beta     107.503
_cell_angle_gamma    107.501

_space_group_name_H-M_alt    "P 1"
_space_group_IT_number       1

loop_
  _space_group_symop_operation_xyz
  'x, y, z'

loop_
  _atom_site_type_symbol
  _atom_site_label
  _atom_site_symmetry_multiplicity
  _atom_site_fract_x
  _atom_site_fract_y
  _atom_site_fract_z
  _atom_site_occupancy
  B   B1        1.0  0.31900  0.31900  0.06600  1.0000
  B   B2        1.0  0.30200  0.30200  0.30200  1.0000
  B   B3        1.0  0.06600  0.31900  0.31900  1.0000
  B   B4        1.0  0.31900  0.06600  0.31900  1.0000
  C   C1        1.0  0.49900  0.49900  0.49900  1.0000
  Cl  Cl1       1.0  0.53900  0.53900  0.08080  1.0000
  Cl  Cl2       1.0  0.11800  0.80000  0.11800  1.0000
  Cl  Cl3       1.0  0.80000  0.11800  0.11800  1.0000
  Cl  Cl4       1.0  0.08090  0.53900  0.53900  1.0000
  Cl  Cl5       1.0  0.53900  0.08090  0.53900  1.0000
  Cl  Cl6       1.0  0.11800  0.11800  0.80000  1.0000
  O   O1        1.0  0.65000  0.65000  0.65000  1.0000
