data_image0
_chemical_formula_structural       Cd2Cs2Pr2Se6
_chemical_formula_sum              "Cd2 Cs2 Pr2 Se6"
_cell_length_a       4.41375
_cell_length_b       8.28462
_cell_length_c       11.5
_cell_angle_alpha    90
_cell_angle_beta     90
_cell_angle_gamma    74.5509

_space_group_name_H-M_alt    "P 1"
_space_group_IT_number       1

loop_
  _space_group_symop_operation_xyz
  'x, y, z'

loop_
  _atom_site_type_symbol
  _atom_site_label
  _atom_site_symmetry_multiplicity
  _atom_site_fract_x
  _atom_site_fract_y
  _atom_site_fract_z
  _atom_site_occupancy
  Cd  Cd1       1.0  0.54000  0.92000  0.25000  1.0000
  Cd  Cd2       1.0  0.46000  0.07990  0.75000  1.0000
  Cs  Cs1       1.0  0.25800  0.48500  0.25000  1.0000
  Cs  Cs2       1.0  0.74200  0.51500  0.75000  1.0000
  Pr  Pr1       1.0  0.00000  0.00000  0.00000  1.0000
  Pr  Pr2       1.0  0.00000  0.00000  0.50000  1.0000
  Se  Se1       1.0  0.62400  0.75300  0.05200  1.0000
  Se  Se2       1.0  0.93900  0.12200  0.25000  1.0000
  Se  Se3       1.0  0.62400  0.75300  0.44800  1.0000
  Se  Se4       1.0  0.37600  0.24700  0.55200  1.0000
  Se  Se5       1.0  0.06120  0.87800  0.75000  1.0000
  Se  Se6       1.0  0.37600  0.24700  0.94800  1.0000
