data_image0
_chemical_formula_structural       Cl2Y2
_chemical_formula_sum              "Cl2 Y2"
_cell_length_a       3.74751
_cell_length_b       3.74751
_cell_length_c       9.60261
_cell_angle_alpha    101.252
_cell_angle_beta     78.7477
_cell_angle_gamma    120

_space_group_name_H-M_alt    "P 1"
_space_group_IT_number       1

loop_
  _space_group_symop_operation_xyz
  'x, y, z'

loop_
  _atom_site_type_symbol
  _atom_site_label
  _atom_site_symmetry_multiplicity
  _atom_site_fract_x
  _atom_site_fract_y
  _atom_site_fract_z
  _atom_site_occupancy
  Cl  Cl1       1.0  0.61200  0.38800  0.16500  1.0000
  Cl  Cl2       1.0  0.38800  0.61200  0.83500  1.0000
  Y   Y1        1.0  0.21600  0.78400  0.35100  1.0000
  Y   Y2        1.0  0.78400  0.21600  0.64900  1.0000
