data_image0
_chemical_formula_structural       Cd2Ce2Cs2Se6
_chemical_formula_sum              "Cd2 Ce2 Cs2 Se6"
_cell_length_a       4.44355
_cell_length_b       8.28769
_cell_length_c       11.574
_cell_angle_alpha    90
_cell_angle_beta     90
_cell_angle_gamma    74.4499

_space_group_name_H-M_alt    "P 1"
_space_group_IT_number       1

loop_
  _space_group_symop_operation_xyz
  'x, y, z'

loop_
  _atom_site_type_symbol
  _atom_site_label
  _atom_site_symmetry_multiplicity
  _atom_site_fract_x
  _atom_site_fract_y
  _atom_site_fract_z
  _atom_site_occupancy
  Cd  Cd1       1.0  0.54000  0.92000  0.25000  1.0000
  Cd  Cd2       1.0  0.46000  0.08020  0.75000  1.0000
  Ce  Ce1       1.0  0.00000  0.00000  0.00000  1.0000
  Ce  Ce2       1.0  0.00000  0.00000  0.50000  1.0000
  Cs  Cs1       1.0  0.25800  0.48400  0.25000  1.0000
  Cs  Cs2       1.0  0.74200  0.51600  0.75000  1.0000
  Se  Se1       1.0  0.62400  0.75100  0.05330  1.0000
  Se  Se2       1.0  0.93900  0.12200  0.25000  1.0000
  Se  Se3       1.0  0.62400  0.75100  0.44700  1.0000
  Se  Se4       1.0  0.37600  0.24900  0.55300  1.0000
  Se  Se5       1.0  0.06100  0.87800  0.75000  1.0000
  Se  Se6       1.0  0.37600  0.24900  0.94700  1.0000
