data_image0
_chemical_formula_structural       Cs2Ho2Se6Zn2
_chemical_formula_sum              "Cs2 Ho2 Se6 Zn2"
_cell_length_a       4.15323
_cell_length_b       8.30276
_cell_length_c       10.9549
_cell_angle_alpha    90
_cell_angle_beta     90
_cell_angle_gamma    75.5159

_space_group_name_H-M_alt    "P 1"
_space_group_IT_number       1

loop_
  _space_group_symop_operation_xyz
  'x, y, z'

loop_
  _atom_site_type_symbol
  _atom_site_label
  _atom_site_symmetry_multiplicity
  _atom_site_fract_x
  _atom_site_fract_y
  _atom_site_fract_z
  _atom_site_occupancy
  Cs  Cs1       1.0  0.25800  0.48300  0.25000  1.0000
  Cs  Cs2       1.0  0.74200  0.51700  0.75000  1.0000
  Ho  Ho1       1.0  0.00000  0.00000  0.00000  1.0000
  Ho  Ho2       1.0  0.00000  0.00000  0.50000  1.0000
  Se  Se1       1.0  0.61700  0.76500  0.05740  1.0000
  Se  Se2       1.0  0.94600  0.10900  0.25000  1.0000
  Se  Se3       1.0  0.61700  0.76500  0.44300  1.0000
  Se  Se4       1.0  0.38300  0.23500  0.55700  1.0000
  Se  Se5       1.0  0.05440  0.89100  0.75000  1.0000
  Se  Se6       1.0  0.38300  0.23500  0.94300  1.0000
  Zn  Zn1       1.0  0.54000  0.91900  0.25000  1.0000
  Zn  Zn2       1.0  0.46000  0.08070  0.75000  1.0000
