data_image0
_chemical_formula_structural       As4B2Cs6
_chemical_formula_sum              "As4 B2 Cs6"
_cell_length_a       7.13535
_cell_length_b       7.13535
_cell_length_c       10.2281
_cell_angle_alpha    104.355
_cell_angle_beta     75.645
_cell_angle_gamma    90.9701

_space_group_name_H-M_alt    "P 1"
_space_group_IT_number       1

loop_
  _space_group_symop_operation_xyz
  'x, y, z'

loop_
  _atom_site_type_symbol
  _atom_site_label
  _atom_site_symmetry_multiplicity
  _atom_site_fract_x
  _atom_site_fract_y
  _atom_site_fract_z
  _atom_site_occupancy
  As  As1       1.0  0.16200  0.40500  0.14500  1.0000
  As  As2       1.0  0.40500  0.16200  0.35500  1.0000
  As  As3       1.0  0.59500  0.83800  0.64500  1.0000
  As  As4       1.0  0.83800  0.59500  0.85500  1.0000
  B   B1        1.0  0.28700  0.28700  0.25000  1.0000
  B   B2        1.0  0.71300  0.71300  0.75000  1.0000
  Cs  Cs1       1.0  0.25700  0.84800  0.01950  1.0000
  Cs  Cs2       1.0  0.65500  0.65500  0.25000  1.0000
  Cs  Cs3       1.0  0.84800  0.25700  0.48100  1.0000
  Cs  Cs4       1.0  0.15200  0.74300  0.51900  1.0000
  Cs  Cs5       1.0  0.34500  0.34500  0.75000  1.0000
  Cs  Cs6       1.0  0.74300  0.15200  0.98100  1.0000
