data_image0
_chemical_formula_structural       Ag2Cs2S6U2
_chemical_formula_sum              "Ag2 Cs2 S6 U2"
_cell_length_a       4.13277
_cell_length_b       7.97014
_cell_length_c       10.5266
_cell_angle_alpha    90
_cell_angle_beta     90
_cell_angle_gamma    74.9735

_space_group_name_H-M_alt    "P 1"
_space_group_IT_number       1

loop_
  _space_group_symop_operation_xyz
  'x, y, z'

loop_
  _atom_site_type_symbol
  _atom_site_label
  _atom_site_symmetry_multiplicity
  _atom_site_fract_x
  _atom_site_fract_y
  _atom_site_fract_z
  _atom_site_occupancy
  Ag  Ag1       1.0  0.45500  0.09000  0.25000  1.0000
  Ag  Ag2       1.0  0.54500  0.91000  0.75000  1.0000
  Cs  Cs1       1.0  0.74100  0.51900  0.25000  1.0000
  Cs  Cs2       1.0  0.25900  0.48100  0.75000  1.0000
  S   S1        1.0  0.38600  0.22900  0.03710  1.0000
  S   S2        1.0  0.05420  0.89200  0.25000  1.0000
  S   S3        1.0  0.38600  0.22900  0.46300  1.0000
  S   S4        1.0  0.61400  0.77100  0.53700  1.0000
  S   S5        1.0  0.94600  0.10800  0.75000  1.0000
  S   S6        1.0  0.61400  0.77100  0.96300  1.0000
  U   U1        1.0  0.00000  0.00000  0.00000  1.0000
  U   U2        1.0  0.00000  0.00000  0.50000  1.0000
