data_image0
_chemical_formula_structural       Cd2Cs2Se6Tb2
_chemical_formula_sum              "Cd2 Cs2 Se6 Tb2"
_cell_length_a       4.28998
_cell_length_b       8.33445
_cell_length_c       11.206
_cell_angle_alpha    90
_cell_angle_beta     90
_cell_angle_gamma    75.0863

_space_group_name_H-M_alt    "P 1"
_space_group_IT_number       1

loop_
  _space_group_symop_operation_xyz
  'x, y, z'

loop_
  _atom_site_type_symbol
  _atom_site_label
  _atom_site_symmetry_multiplicity
  _atom_site_fract_x
  _atom_site_fract_y
  _atom_site_fract_z
  _atom_site_occupancy
  Cd  Cd1       1.0  0.54200  0.91700  0.25000  1.0000
  Cd  Cd2       1.0  0.45800  0.08320  0.75000  1.0000
  Cs  Cs1       1.0  0.25700  0.48600  0.25000  1.0000
  Cs  Cs2       1.0  0.74300  0.51400  0.75000  1.0000
  Se  Se1       1.0  0.62000  0.76000  0.04490  1.0000
  Se  Se2       1.0  0.94000  0.12100  0.25000  1.0000
  Se  Se3       1.0  0.62000  0.76000  0.45500  1.0000
  Se  Se4       1.0  0.38000  0.24000  0.54500  1.0000
  Se  Se5       1.0  0.06030  0.87900  0.75000  1.0000
  Se  Se6       1.0  0.38000  0.24000  0.95500  1.0000
  Tb  Tb1       1.0  0.00000  0.00000  0.00000  1.0000
  Tb  Tb2       1.0  0.00000  0.00000  0.50000  1.0000
