data_image0
_chemical_formula_structural       Mo6S8
_chemical_formula_sum              "Mo6 S8"
_cell_length_a       6.47428
_cell_length_b       6.47428
_cell_length_c       6.47428
_cell_angle_alpha    91.3318
_cell_angle_beta     91.3318
_cell_angle_gamma    91.3318

_space_group_name_H-M_alt    "P 1"
_space_group_IT_number       1

loop_
  _space_group_symop_operation_xyz
  'x, y, z'

loop_
  _atom_site_type_symbol
  _atom_site_label
  _atom_site_symmetry_multiplicity
  _atom_site_fract_x
  _atom_site_fract_y
  _atom_site_fract_z
  _atom_site_occupancy
  Mo  Mo1       1.0  0.40500  0.55100  0.21200  1.0000
  Mo  Mo2       1.0  0.55100  0.21200  0.40500  1.0000
  Mo  Mo3       1.0  0.78800  0.59500  0.44900  1.0000
  Mo  Mo4       1.0  0.21200  0.40500  0.55100  1.0000
  Mo  Mo5       1.0  0.44900  0.78800  0.59500  1.0000
  Mo  Mo6       1.0  0.59500  0.44900  0.78800  1.0000
  S   S1        1.0  0.73400  0.38800  0.13200  1.0000
  S   S2        1.0  0.22000  0.22000  0.22000  1.0000
  S   S3        1.0  0.61200  0.86800  0.26600  1.0000
  S   S4        1.0  0.13200  0.73400  0.38800  1.0000
  S   S5        1.0  0.86800  0.26600  0.61200  1.0000
  S   S6        1.0  0.38800  0.13200  0.73400  1.0000
  S   S7        1.0  0.78000  0.78000  0.78000  1.0000
  S   S8        1.0  0.26600  0.61200  0.86800  1.0000
