data_image0
_chemical_formula_structural       Al4Ba2Te8
_chemical_formula_sum              "Al4 Ba2 Te8"
_cell_length_a       8.68606
_cell_length_b       8.68606
_cell_length_c       6.76155
_cell_angle_alpha    90
_cell_angle_beta     90
_cell_angle_gamma    90

_space_group_name_H-M_alt    "P 1"
_space_group_IT_number       1

loop_
  _space_group_symop_operation_xyz
  'x, y, z'

loop_
  _atom_site_type_symbol
  _atom_site_label
  _atom_site_symmetry_multiplicity
  _atom_site_fract_x
  _atom_site_fract_y
  _atom_site_fract_z
  _atom_site_occupancy
  Al  Al1       1.0  0.75000  0.25000  0.00000  1.0000
  Al  Al2       1.0  0.25000  0.75000  0.00000  1.0000
  Al  Al3       1.0  0.75000  0.25000  0.50000  1.0000
  Al  Al4       1.0  0.25000  0.75000  0.50000  1.0000
  Ba  Ba1       1.0  0.25000  0.25000  0.00000  1.0000
  Ba  Ba2       1.0  0.75000  0.75000  0.00000  1.0000
  Te  Te1       1.0  0.58300  0.08290  0.25000  1.0000
  Te  Te2       1.0  0.91700  0.41700  0.25000  1.0000
  Te  Te3       1.0  0.41700  0.58300  0.25000  1.0000
  Te  Te4       1.0  0.08290  0.91700  0.25000  1.0000
  Te  Te5       1.0  0.91700  0.08290  0.75000  1.0000
  Te  Te6       1.0  0.58300  0.41700  0.75000  1.0000
  Te  Te7       1.0  0.08290  0.58300  0.75000  1.0000
  Te  Te8       1.0  0.41700  0.91700  0.75000  1.0000
