data_image0
_chemical_formula_structural       Ba6P8
_chemical_formula_sum              "Ba6 P8"
_cell_length_a       6.22974
_cell_length_b       8.11731
_cell_length_c       9.71156
_cell_angle_alpha    97.0697
_cell_angle_beta     71.2924
_cell_angle_gamma    112.565

_space_group_name_H-M_alt    "P 1"
_space_group_IT_number       1

loop_
  _space_group_symop_operation_xyz
  'x, y, z'

loop_
  _atom_site_type_symbol
  _atom_site_label
  _atom_site_symmetry_multiplicity
  _atom_site_fract_x
  _atom_site_fract_y
  _atom_site_fract_z
  _atom_site_occupancy
  Ba  Ba1       1.0  0.74700  0.00000  0.00000  1.0000
  Ba  Ba2       1.0  0.66700  0.50900  0.16300  1.0000
  Ba  Ba3       1.0  0.07990  0.00913  0.33700  1.0000
  Ba  Ba4       1.0  0.99700  0.50000  0.50000  1.0000
  Ba  Ba5       1.0  0.40800  0.99100  0.66300  1.0000
  Ba  Ba6       1.0  0.32100  0.49100  0.83700  1.0000
  P   P1        1.0  0.17500  0.84400  0.00555  1.0000
  P   P2        1.0  0.24900  0.69300  0.15200  1.0000
  P   P3        1.0  0.65100  0.19300  0.34800  1.0000
  P   P4        1.0  0.43000  0.34400  0.49400  1.0000
  P   P5        1.0  0.58100  0.65600  0.50600  1.0000
  P   P6        1.0  0.80600  0.80700  0.65200  1.0000
  P   P7        1.0  0.70800  0.30700  0.84800  1.0000
  P   P8        1.0  0.33600  0.15600  0.99400  1.0000
