data_image0
_chemical_formula_structural       Ga2K4Na2P4
_chemical_formula_sum              "Ga2 K4 Na2 P4"
_cell_length_a       6.42385
_cell_length_b       6.62336
_cell_length_c       8.60714
_cell_angle_alpha    112.629
_cell_angle_beta     111.911
_cell_angle_gamma    90

_space_group_name_H-M_alt    "P 1"
_space_group_IT_number       1

loop_
  _space_group_symop_operation_xyz
  'x, y, z'

loop_
  _atom_site_type_symbol
  _atom_site_label
  _atom_site_symmetry_multiplicity
  _atom_site_fract_x
  _atom_site_fract_y
  _atom_site_fract_z
  _atom_site_occupancy
  Ga  Ga1       1.0  0.25000  0.50000  0.00000  1.0000
  Ga  Ga2       1.0  0.75000  0.50000  0.00000  1.0000
  K   K1        1.0  0.67500  0.41700  0.35000  1.0000
  K   K2        1.0  0.17500  0.93300  0.35000  1.0000
  K   K3        1.0  0.82500  0.06710  0.65000  1.0000
  K   K4        1.0  0.32500  0.58300  0.65000  1.0000
  Na  Na1       1.0  0.25000  0.00000  0.00000  1.0000
  Na  Na2       1.0  0.75000  0.00000  0.00000  1.0000
  P   P1        1.0  0.09230  0.39300  0.18500  1.0000
  P   P2        1.0  0.59200  0.79100  0.18500  1.0000
  P   P3        1.0  0.40800  0.20900  0.81500  1.0000
  P   P4        1.0  0.90800  0.60700  0.81500  1.0000
