data_image0
_chemical_formula_structural       In5KS8
_chemical_formula_sum              "In5 K1 S8"
_cell_length_a       3.90441
_cell_length_b       9.32355
_cell_length_c       9.81565
_cell_angle_alpha    102.741
_cell_angle_beta     101.472
_cell_angle_gamma    90

_space_group_name_H-M_alt    "P 1"
_space_group_IT_number       1

loop_
  _space_group_symop_operation_xyz
  'x, y, z'

loop_
  _atom_site_type_symbol
  _atom_site_label
  _atom_site_symmetry_multiplicity
  _atom_site_fract_x
  _atom_site_fract_y
  _atom_site_fract_z
  _atom_site_occupancy
  In  In1       1.0  0.00000  0.00000  0.00000  1.0000
  In  In2       1.0  0.64500  0.90800  0.28900  1.0000
  In  In3       1.0  0.71300  0.33800  0.42600  1.0000
  In  In4       1.0  0.28700  0.66200  0.57400  1.0000
  In  In5       1.0  0.35500  0.09170  0.71100  1.0000
  K   K1        1.0  0.50000  0.50000  0.00000  1.0000
  S   S1        1.0  0.06870  0.78200  0.13700  1.0000
  S   S2        1.0  0.58500  0.12500  0.17100  1.0000
  S   S3        1.0  0.16400  0.47600  0.32900  1.0000
  S   S4        1.0  0.23700  0.15200  0.47500  1.0000
  S   S5        1.0  0.76300  0.84800  0.52500  1.0000
  S   S6        1.0  0.83600  0.52400  0.67100  1.0000
  S   S7        1.0  0.41500  0.87500  0.82900  1.0000
  S   S8        1.0  0.93100  0.21800  0.86300  1.0000
