data_image0
_chemical_formula_structural       Br9Rb3Sb2
_chemical_formula_sum              "Br9 Rb3 Sb2"
_cell_length_a       7.89225
_cell_length_b       7.89235
_cell_length_c       9.69845
_cell_angle_alpha    90
_cell_angle_beta     89.9995
_cell_angle_gamma    120

_space_group_name_H-M_alt    "P 1"
_space_group_IT_number       1

loop_
  _space_group_symop_operation_xyz
  'x, y, z'

loop_
  _atom_site_type_symbol
  _atom_site_label
  _atom_site_symmetry_multiplicity
  _atom_site_fract_x
  _atom_site_fract_y
  _atom_site_fract_z
  _atom_site_occupancy
  Br  Br1       1.0  0.50000  0.00000  0.00000  1.0000
  Br  Br2       1.0  0.50000  0.50000  0.00000  1.0000
  Br  Br3       1.0  0.00000  0.50000  1.00000  1.0000
  Br  Br4       1.0  0.33700  0.16800  0.34100  1.0000
  Br  Br5       1.0  0.83200  0.66300  0.34100  1.0000
  Br  Br6       1.0  0.83200  0.16800  0.34100  1.0000
  Br  Br7       1.0  0.16800  0.83200  0.65900  1.0000
  Br  Br8       1.0  0.16800  0.33700  0.65900  1.0000
  Br  Br9       1.0  0.66300  0.83200  0.65900  1.0000
  Rb  Rb1       1.0  0.00000  0.00000  0.00000  1.0000
  Rb  Rb2       1.0  0.33300  0.66700  0.33100  1.0000
  Rb  Rb3       1.0  0.66700  0.33300  0.66900  1.0000
  Sb  Sb1       1.0  0.66700  0.33300  0.19100  1.0000
  Sb  Sb2       1.0  0.33300  0.66700  0.80900  1.0000
