data_image0
_chemical_formula_structural       Al4Au4Yb4
_chemical_formula_sum              "Al4 Au4 Yb4"
_cell_length_a       7.19679
_cell_length_b       4.47477
_cell_length_c       7.86986
_cell_angle_alpha    90
_cell_angle_beta     90
_cell_angle_gamma    90

_space_group_name_H-M_alt    "P 1"
_space_group_IT_number       1

loop_
  _space_group_symop_operation_xyz
  'x, y, z'

loop_
  _atom_site_type_symbol
  _atom_site_label
  _atom_site_symmetry_multiplicity
  _atom_site_fract_x
  _atom_site_fract_y
  _atom_site_fract_z
  _atom_site_occupancy
  Al  Al1       1.0  0.14500  0.25000  0.06060  1.0000
  Al  Al2       1.0  0.64500  0.25000  0.43900  1.0000
  Al  Al3       1.0  0.35500  0.75000  0.56100  1.0000
  Al  Al4       1.0  0.85500  0.75000  0.93900  1.0000
  Au  Au1       1.0  0.78100  0.25000  0.12500  1.0000
  Au  Au2       1.0  0.28100  0.25000  0.37500  1.0000
  Au  Au3       1.0  0.71900  0.75000  0.62500  1.0000
  Au  Au4       1.0  0.21900  0.75000  0.87500  1.0000
  Yb  Yb1       1.0  0.47500  0.75000  0.17700  1.0000
  Yb  Yb2       1.0  0.97500  0.75000  0.32300  1.0000
  Yb  Yb3       1.0  0.02450  0.25000  0.67700  1.0000
  Yb  Yb4       1.0  0.52500  0.25000  0.82300  1.0000
