data_image0
_chemical_formula_structural       Al4Pd4Yb4
_chemical_formula_sum              "Al4 Pd4 Yb4"
_cell_length_a       7.04588
_cell_length_b       4.22518
_cell_length_c       7.98499
_cell_angle_alpha    90
_cell_angle_beta     90
_cell_angle_gamma    90

_space_group_name_H-M_alt    "P 1"
_space_group_IT_number       1

loop_
  _space_group_symop_operation_xyz
  'x, y, z'

loop_
  _atom_site_type_symbol
  _atom_site_label
  _atom_site_symmetry_multiplicity
  _atom_site_fract_x
  _atom_site_fract_y
  _atom_site_fract_z
  _atom_site_occupancy
  Al  Al1       1.0  0.13400  0.25000  0.05880  1.0000
  Al  Al2       1.0  0.63400  0.25000  0.44100  1.0000
  Al  Al3       1.0  0.36600  0.75000  0.55900  1.0000
  Al  Al4       1.0  0.86600  0.75000  0.94100  1.0000
  Pd  Pd1       1.0  0.77500  0.25000  0.12900  1.0000
  Pd  Pd2       1.0  0.27500  0.25000  0.37100  1.0000
  Pd  Pd3       1.0  0.72500  0.75000  0.62900  1.0000
  Pd  Pd4       1.0  0.22500  0.75000  0.87100  1.0000
  Yb  Yb1       1.0  0.46600  0.75000  0.17400  1.0000
  Yb  Yb2       1.0  0.96600  0.75000  0.32600  1.0000
  Yb  Yb3       1.0  0.03370  0.25000  0.67400  1.0000
  Yb  Yb4       1.0  0.53400  0.25000  0.82600  1.0000
