data_image0
_chemical_formula_structural       Ga4Sr2Te8
_chemical_formula_sum              "Ga4 Sr2 Te8"
_cell_length_a       6.79888
_cell_length_b       6.79888
_cell_length_c       11.8282
_cell_angle_alpha    90
_cell_angle_beta     90
_cell_angle_gamma    120.242

_space_group_name_H-M_alt    "P 1"
_space_group_IT_number       1

loop_
  _space_group_symop_operation_xyz
  'x, y, z'

loop_
  _atom_site_type_symbol
  _atom_site_label
  _atom_site_symmetry_multiplicity
  _atom_site_fract_x
  _atom_site_fract_y
  _atom_site_fract_z
  _atom_site_occupancy
  Ga  Ga1       1.0  0.75600  0.24100  0.00000  1.0000
  Ga  Ga2       1.0  0.24400  0.75900  0.00000  1.0000
  Ga  Ga3       1.0  0.75900  0.24400  0.50000  1.0000
  Ga  Ga4       1.0  0.24100  0.75600  0.50000  1.0000
  Sr  Sr1       1.0  0.50000  0.50000  0.25000  1.0000
  Sr  Sr2       1.0  0.50000  0.50000  0.75000  1.0000
  Te  Te1       1.0  0.18800  0.33900  0.00000  1.0000
  Te  Te2       1.0  0.81200  0.66100  0.00000  1.0000
  Te  Te3       1.0  0.50000  0.00000  0.17500  1.0000
  Te  Te4       1.0  0.00000  0.50000  0.32500  1.0000
  Te  Te5       1.0  0.33900  0.18800  0.50000  1.0000
  Te  Te6       1.0  0.66100  0.81200  0.50000  1.0000
  Te  Te7       1.0  0.00000  0.50000  0.67500  1.0000
  Te  Te8       1.0  0.50000  0.00000  0.82500  1.0000
