data_image0
_chemical_formula_structural       Li2Mo2O8Rb2
_chemical_formula_sum              "Li2 Mo2 O8 Rb2"
_cell_length_a       5.5592
_cell_length_b       5.5592
_cell_length_c       9.76188
_cell_angle_alpha    104.786
_cell_angle_beta     92.055
_cell_angle_gamma    119.267

_space_group_name_H-M_alt    "P 1"
_space_group_IT_number       1

loop_
  _space_group_symop_operation_xyz
  'x, y, z'

loop_
  _atom_site_type_symbol
  _atom_site_label
  _atom_site_symmetry_multiplicity
  _atom_site_fract_x
  _atom_site_fract_y
  _atom_site_fract_z
  _atom_site_occupancy
  Li  Li1       1.0  0.11200  0.23900  0.37100  1.0000
  Li  Li2       1.0  0.63200  0.25900  0.87100  1.0000
  Mo  Mo1       1.0  0.75100  0.50200  0.24800  1.0000
  Mo  Mo2       1.0  0.24700  0.49700  0.74800  1.0000
  O   O1        1.0  0.79300  0.36900  0.06910  1.0000
  O   O2        1.0  0.40900  0.25900  0.27300  1.0000
  O   O3        1.0  0.79600  0.85200  0.27600  1.0000
  O   O4        1.0  0.00555  0.52200  0.37500  1.0000
  O   O5        1.0  0.20000  0.27600  0.56900  1.0000
  O   O6        1.0  0.51400  0.86500  0.77300  1.0000
  O   O7        1.0  0.92300  0.48000  0.77600  1.0000
  O   O8        1.0  0.35300  0.37000  0.87500  1.0000
  Rb  Rb1       1.0  0.97600  0.96300  0.00209  1.0000
  Rb  Rb2       1.0  0.53900  0.02630  0.50200  1.0000
