data_image0
_chemical_formula_structural       Cl2Gd2O8W2
_chemical_formula_sum              "Cl2 Gd2 O8 W2"
_cell_length_a       6.30951
_cell_length_b       6.30951
_cell_length_c       6.87953
_cell_angle_alpha    104.095
_cell_angle_beta     104.095
_cell_angle_gamma    70.8112

_space_group_name_H-M_alt    "P 1"
_space_group_IT_number       1

loop_
  _space_group_symop_operation_xyz
  'x, y, z'

loop_
  _atom_site_type_symbol
  _atom_site_label
  _atom_site_symmetry_multiplicity
  _atom_site_fract_x
  _atom_site_fract_y
  _atom_site_fract_z
  _atom_site_occupancy
  Cl  Cl1       1.0  0.99000  0.99000  0.23900  1.0000
  Cl  Cl2       1.0  0.00999  0.00999  0.76100  1.0000
  Gd  Gd1       1.0  0.22100  0.22100  0.11100  1.0000
  Gd  Gd2       1.0  0.77900  0.77900  0.88900  1.0000
  O   O1        1.0  0.89000  0.50900  0.15300  1.0000
  O   O2        1.0  0.50900  0.89000  0.15300  1.0000
  O   O3        1.0  0.45600  0.45600  0.20100  1.0000
  O   O4        1.0  0.29200  0.29200  0.46300  1.0000
  O   O5        1.0  0.70800  0.70800  0.53700  1.0000
  O   O6        1.0  0.54400  0.54400  0.79900  1.0000
  O   O7        1.0  0.49100  0.11000  0.84700  1.0000
  O   O8        1.0  0.11000  0.49100  0.84700  1.0000
  W   W1        1.0  0.63700  0.63700  0.26900  1.0000
  W   W2        1.0  0.36300  0.36300  0.73100  1.0000
