data_image0
_chemical_formula_structural       Eu6P8
_chemical_formula_sum              "Eu6 P8"
_cell_length_a       5.69301
_cell_length_b       7.51711
_cell_length_c       8.93584
_cell_angle_alpha    96.9282
_cell_angle_beta     71.4248
_cell_angle_gamma    112.251

_space_group_name_H-M_alt    "P 1"
_space_group_IT_number       1

loop_
  _space_group_symop_operation_xyz
  'x, y, z'

loop_
  _atom_site_type_symbol
  _atom_site_label
  _atom_site_symmetry_multiplicity
  _atom_site_fract_x
  _atom_site_fract_y
  _atom_site_fract_z
  _atom_site_occupancy
  Eu  Eu1       1.0  0.74300  0.00000  0.00000  1.0000
  Eu  Eu2       1.0  0.67200  0.50300  0.16500  1.0000
  Eu  Eu3       1.0  0.08720  0.00272  0.33500  1.0000
  Eu  Eu4       1.0  0.99300  0.50000  0.50000  1.0000
  Eu  Eu5       1.0  0.42000  0.99700  0.66500  1.0000
  Eu  Eu6       1.0  0.33500  0.49700  0.83500  1.0000
  P   P1        1.0  0.33000  0.16600  0.99900  1.0000
  P   P2        1.0  0.16300  0.83400  0.00131  1.0000
  P   P3        1.0  0.25600  0.67900  0.15700  1.0000
  P   P4        1.0  0.66300  0.17900  0.34300  1.0000
  P   P5        1.0  0.41400  0.33400  0.49900  1.0000
  P   P6        1.0  0.57900  0.66600  0.50100  1.0000
  P   P7        1.0  0.82800  0.82100  0.65700  1.0000
  P   P8        1.0  0.73500  0.32100  0.84300  1.0000
