data_image0
_chemical_formula_structural       Al12Mn2
_chemical_formula_sum              "Al12 Mn2"
_cell_length_a       4.95959
_cell_length_b       4.95959
_cell_length_c       8.83371
_cell_angle_alpha    90
_cell_angle_beta     90
_cell_angle_gamma    81.1943

_space_group_name_H-M_alt    "P 1"
_space_group_IT_number       1

loop_
  _space_group_symop_operation_xyz
  'x, y, z'

loop_
  _atom_site_type_symbol
  _atom_site_label
  _atom_site_symmetry_multiplicity
  _atom_site_fract_x
  _atom_site_fract_y
  _atom_site_fract_z
  _atom_site_occupancy
  Al  Al1       1.0  0.32700  0.32700  0.00000  1.0000
  Al  Al2       1.0  0.67300  0.67300  0.00000  1.0000
  Al  Al3       1.0  0.14000  0.86000  0.10100  1.0000
  Al  Al4       1.0  0.60200  0.03220  0.25000  1.0000
  Al  Al5       1.0  0.96800  0.39800  0.25000  1.0000
  Al  Al6       1.0  0.14000  0.86000  0.39900  1.0000
  Al  Al7       1.0  0.32700  0.32700  0.50000  1.0000
  Al  Al8       1.0  0.67300  0.67300  0.50000  1.0000
  Al  Al9       1.0  0.86000  0.14000  0.60100  1.0000
  Al  Al10      1.0  0.03220  0.60200  0.75000  1.0000
  Al  Al11      1.0  0.39800  0.96800  0.75000  1.0000
  Al  Al12      1.0  0.86000  0.14000  0.89900  1.0000
  Mn  Mn1       1.0  0.45600  0.54400  0.25000  1.0000
  Mn  Mn2       1.0  0.54400  0.45600  0.75000  1.0000
