data_image0
_chemical_formula_structural       Cu2Ge8Hf4
_chemical_formula_sum              "Cu2 Ge8 Hf4"
_cell_length_a       3.78908
_cell_length_b       3.80428
_cell_length_c       16.6904
_cell_angle_alpha    83.456
_cell_angle_beta     90
_cell_angle_gamma    90

_space_group_name_H-M_alt    "P 1"
_space_group_IT_number       1

loop_
  _space_group_symop_operation_xyz
  'x, y, z'

loop_
  _atom_site_type_symbol
  _atom_site_label
  _atom_site_symmetry_multiplicity
  _atom_site_fract_x
  _atom_site_fract_y
  _atom_site_fract_z
  _atom_site_occupancy
  Cu  Cu1       1.0  0.75000  0.25000  0.50000  1.0000
  Cu  Cu2       1.0  0.25000  0.75000  0.50000  1.0000
  Ge  Ge1       1.0  0.25000  0.47200  0.05580  1.0000
  Ge  Ge2       1.0  0.75000  0.38700  0.22700  1.0000
  Ge  Ge3       1.0  0.25000  0.88600  0.22700  1.0000
  Ge  Ge4       1.0  0.75000  0.79900  0.40300  1.0000
  Ge  Ge5       1.0  0.25000  0.20100  0.59700  1.0000
  Ge  Ge6       1.0  0.75000  0.11400  0.77300  1.0000
  Ge  Ge7       1.0  0.25000  0.61300  0.77300  1.0000
  Ge  Ge8       1.0  0.75000  0.52800  0.94400  1.0000
  Hf  Hf1       1.0  0.75000  0.95200  0.09510  1.0000
  Hf  Hf2       1.0  0.25000  0.32200  0.35600  1.0000
  Hf  Hf3       1.0  0.75000  0.67800  0.64400  1.0000
  Hf  Hf4       1.0  0.25000  0.04760  0.90500  1.0000
