data_image0
_chemical_formula_structural       Fe13Ga13
_chemical_formula_sum              "Fe13 Ga13"
_cell_length_a       7.54495
_cell_length_b       7.54495
_cell_length_c       7.54495
_cell_angle_alpha    109.244
_cell_angle_beta     109.244
_cell_angle_gamma    109.244

_space_group_name_H-M_alt    "P 1"
_space_group_IT_number       1

loop_
  _space_group_symop_operation_xyz
  'x, y, z'

loop_
  _atom_site_type_symbol
  _atom_site_label
  _atom_site_symmetry_multiplicity
  _atom_site_fract_x
  _atom_site_fract_y
  _atom_site_fract_z
  _atom_site_occupancy
  Fe  Fe1       1.0  0.50000  0.50000  0.50000  1.0000
  Fe  Fe2       1.0  0.17800  0.17800  0.39700  1.0000
  Fe  Fe3       1.0  0.39700  0.17800  0.17800  1.0000
  Fe  Fe4       1.0  0.17800  0.39700  0.17800  1.0000
  Fe  Fe5       1.0  0.82200  0.82200  0.60300  1.0000
  Fe  Fe6       1.0  0.82200  0.60300  0.82200  1.0000
  Fe  Fe7       1.0  0.60300  0.82200  0.82200  1.0000
  Fe  Fe8       1.0  0.19700  0.19700  0.84600  1.0000
  Fe  Fe9       1.0  0.84600  0.19700  0.19700  1.0000
  Fe  Fe10      1.0  0.19700  0.84600  0.19700  1.0000
  Fe  Fe11      1.0  0.80300  0.80300  0.15400  1.0000
  Fe  Fe12      1.0  0.80300  0.15400  0.80300  1.0000
  Fe  Fe13      1.0  0.15400  0.80300  0.80300  1.0000
  Ga  Ga1       1.0  0.00000  0.00000  0.00000  1.0000
  Ga  Ga2       1.0  0.54100  0.54100  0.19300  1.0000
  Ga  Ga3       1.0  0.19300  0.54100  0.54100  1.0000
  Ga  Ga4       1.0  0.54100  0.19300  0.54100  1.0000
  Ga  Ga5       1.0  0.45900  0.45900  0.80700  1.0000
  Ga  Ga6       1.0  0.45900  0.80700  0.45900  1.0000
  Ga  Ga7       1.0  0.80700  0.45900  0.45900  1.0000
  Ga  Ga8       1.0  0.88700  0.50000  0.11300  1.0000
  Ga  Ga9       1.0  0.11300  0.88700  0.50000  1.0000
  Ga  Ga10      1.0  0.50000  0.11300  0.88700  1.0000
  Ga  Ga11      1.0  0.11300  0.50000  0.88700  1.0000
  Ga  Ga12      1.0  0.88700  0.11300  0.50000  1.0000
  Ga  Ga13      1.0  0.50000  0.88700  0.11300  1.0000
