data_image0
_chemical_formula_structural       Ni8P4Zr2
_chemical_formula_sum              "Ni8 P4 Zr2"
_cell_length_a       6.92797
_cell_length_b       6.92781
_cell_length_c       3.56397
_cell_angle_alpha    90
_cell_angle_beta     90
_cell_angle_gamma    90

_space_group_name_H-M_alt    "P 1"
_space_group_IT_number       1

loop_
  _space_group_symop_operation_xyz
  'x, y, z'

loop_
  _atom_site_type_symbol
  _atom_site_label
  _atom_site_symmetry_multiplicity
  _atom_site_fract_x
  _atom_site_fract_y
  _atom_site_fract_z
  _atom_site_occupancy
  Ni  Ni1       1.0  0.33500  0.08520  0.00000  1.0000
  Ni  Ni2       1.0  0.08520  0.33500  0.00000  1.0000
  Ni  Ni3       1.0  0.91500  0.66500  0.00000  1.0000
  Ni  Ni4       1.0  0.66500  0.91500  0.00000  1.0000
  Ni  Ni5       1.0  0.58500  0.16500  0.50000  1.0000
  Ni  Ni6       1.0  0.83500  0.41500  0.50000  1.0000
  Ni  Ni7       1.0  0.16500  0.58500  0.50000  1.0000
  Ni  Ni8       1.0  0.41500  0.83500  0.50000  1.0000
  P   P1        1.0  0.78200  0.21800  0.00000  1.0000
  P   P2        1.0  0.21800  0.78200  0.00000  1.0000
  P   P3        1.0  0.28200  0.28200  0.50000  1.0000
  P   P4        1.0  0.71800  0.71800  0.50000  1.0000
  Zr  Zr1       1.0  0.50000  0.50000  0.00000  1.0000
  Zr  Zr2       1.0  0.00000  0.00000  0.50000  1.0000
