data_image0
_chemical_formula_structural       Ge6Ni6Sm2
_chemical_formula_sum              "Ge6 Ni6 Sm2"
_cell_length_a       4.14077
_cell_length_b       4.14077
_cell_length_c       12.975
_cell_angle_alpha    99.1818
_cell_angle_beta     99.1818
_cell_angle_gamma    90

_space_group_name_H-M_alt    "P 1"
_space_group_IT_number       1

loop_
  _space_group_symop_operation_xyz
  'x, y, z'

loop_
  _atom_site_type_symbol
  _atom_site_label
  _atom_site_symmetry_multiplicity
  _atom_site_fract_x
  _atom_site_fract_y
  _atom_site_fract_z
  _atom_site_occupancy
  Ge  Ge1       1.0  0.00000  0.00000  0.00000  1.0000
  Ge  Ge2       1.0  0.50000  0.50000  0.00000  1.0000
  Ge  Ge3       1.0  0.11000  0.11000  0.22000  1.0000
  Ge  Ge4       1.0  0.75000  0.25000  0.50000  1.0000
  Ge  Ge5       1.0  0.25000  0.75000  0.50000  1.0000
  Ge  Ge6       1.0  0.89000  0.89000  0.78000  1.0000
  Ni  Ni1       1.0  0.55400  0.05410  0.10800  1.0000
  Ni  Ni2       1.0  0.05410  0.55400  0.10800  1.0000
  Ni  Ni3       1.0  0.20300  0.20300  0.40600  1.0000
  Ni  Ni4       1.0  0.79700  0.79700  0.59400  1.0000
  Ni  Ni5       1.0  0.94600  0.44600  0.89200  1.0000
  Ni  Ni6       1.0  0.44600  0.94600  0.89200  1.0000
  Sm  Sm1       1.0  0.65300  0.65300  0.30600  1.0000
  Sm  Sm2       1.0  0.34700  0.34700  0.69400  1.0000
