data_image0
_chemical_formula_structural       Cu9S5
_chemical_formula_sum              "Cu9 S5"
_cell_length_a       3.88264
_cell_length_b       3.88264
_cell_length_c       16.2617
_cell_angle_alpha    96.8563
_cell_angle_beta     83.1437
_cell_angle_gamma    120

_space_group_name_H-M_alt    "P 1"
_space_group_IT_number       1

loop_
  _space_group_symop_operation_xyz
  'x, y, z'

loop_
  _atom_site_type_symbol
  _atom_site_label
  _atom_site_symmetry_multiplicity
  _atom_site_fract_x
  _atom_site_fract_y
  _atom_site_fract_z
  _atom_site_occupancy
  Cu  Cu1       1.0  0.64800  0.35200  0.05660  1.0000
  Cu  Cu2       1.0  0.94900  0.05110  0.15300  1.0000
  Cu  Cu3       1.0  0.24900  0.75100  0.25400  1.0000
  Cu  Cu4       1.0  0.86200  0.13800  0.41300  1.0000
  Cu  Cu5       1.0  0.50000  0.50000  0.50000  1.0000
  Cu  Cu6       1.0  0.13800  0.86200  0.58700  1.0000
  Cu  Cu7       1.0  0.75100  0.24900  0.74600  1.0000
  Cu  Cu8       1.0  0.05110  0.94900  0.84700  1.0000
  Cu  Cu9       1.0  0.35200  0.64800  0.94300  1.0000
  S   S1        1.0  0.00000  0.00000  0.00000  1.0000
  S   S2        1.0  0.60000  0.40000  0.20100  1.0000
  S   S3        1.0  0.20200  0.79800  0.39500  1.0000
  S   S4        1.0  0.79800  0.20200  0.60500  1.0000
  S   S5        1.0  0.40000  0.60000  0.79900  1.0000
