data_image0
_chemical_formula_structural       Au2K6Se4
_chemical_formula_sum              "Au2 K6 Se4"
_cell_length_a       8.03907
_cell_length_b       8.03907
_cell_length_c       8.03907
_cell_angle_alpha    111.824
_cell_angle_beta     68.1761
_cell_angle_gamma    111.824

_space_group_name_H-M_alt    "P 1"
_space_group_IT_number       1

loop_
  _space_group_symop_operation_xyz
  'x, y, z'

loop_
  _atom_site_type_symbol
  _atom_site_label
  _atom_site_symmetry_multiplicity
  _atom_site_fract_x
  _atom_site_fract_y
  _atom_site_fract_z
  _atom_site_occupancy
  Au  Au1       1.0  0.00000  0.00000  0.00000  1.0000
  Au  Au2       1.0  0.50000  0.50000  0.50000  1.0000
  K   K1        1.0  0.75000  0.53900  0.03860  1.0000
  K   K2        1.0  0.53900  0.03860  0.25000  1.0000
  K   K3        1.0  0.03860  0.25000  0.46100  1.0000
  K   K4        1.0  0.96100  0.75000  0.53900  1.0000
  K   K5        1.0  0.46100  0.96100  0.75000  1.0000
  K   K6        1.0  0.25000  0.46100  0.96100  1.0000
  Se  Se1       1.0  0.13400  0.86600  0.13400  1.0000
  Se  Se2       1.0  0.36600  0.63400  0.36600  1.0000
  Se  Se3       1.0  0.63400  0.36600  0.63400  1.0000
  Se  Se4       1.0  0.86600  0.13400  0.86600  1.0000
