data_image0
_chemical_formula_structural       Cu2K2Np2S6
_chemical_formula_sum              "Cu2 K2 Np2 S6"
_cell_length_a       3.96108
_cell_length_b       7.19497
_cell_length_c       10.1956
_cell_angle_alpha    90
_cell_angle_beta     90
_cell_angle_gamma    74.0221

_space_group_name_H-M_alt    "P 1"
_space_group_IT_number       1

loop_
  _space_group_symop_operation_xyz
  'x, y, z'

loop_
  _atom_site_type_symbol
  _atom_site_label
  _atom_site_symmetry_multiplicity
  _atom_site_fract_x
  _atom_site_fract_y
  _atom_site_fract_z
  _atom_site_occupancy
  Cu  Cu1       1.0  0.46600  0.06870  0.25000  1.0000
  Cu  Cu2       1.0  0.53400  0.93100  0.75000  1.0000
  K   K1        1.0  0.74300  0.51400  0.25000  1.0000
  K   K2        1.0  0.25700  0.48600  0.75000  1.0000
  Np  Np1       1.0  0.00000  0.00000  0.00000  1.0000
  Np  Np2       1.0  0.00000  0.00000  0.50000  1.0000
  S   S1        1.0  0.37600  0.24800  0.06070  1.0000
  S   S2        1.0  0.06160  0.87700  0.25000  1.0000
  S   S3        1.0  0.37600  0.24800  0.43900  1.0000
  S   S4        1.0  0.62400  0.75200  0.56100  1.0000
  S   S5        1.0  0.93800  0.12300  0.75000  1.0000
  S   S6        1.0  0.62400  0.75200  0.93900  1.0000
