data_image0
_chemical_formula_structural       Cr2FeS4
_chemical_formula_sum              "Cr2 Fe1 S4"
_cell_length_a       3.40995
_cell_length_b       5.96843
_cell_length_c       6.49733
_cell_angle_alpha    117.613
_cell_angle_beta     105.213
_cell_angle_gamma    90

_space_group_name_H-M_alt    "P 1"
_space_group_IT_number       1

loop_
  _space_group_symop_operation_xyz
  'x, y, z'

loop_
  _atom_site_type_symbol
  _atom_site_label
  _atom_site_symmetry_multiplicity
  _atom_site_fract_x
  _atom_site_fract_y
  _atom_site_fract_z
  _atom_site_occupancy
  Cr  Cr1       1.0  0.74000  0.73000  0.48000  1.0000
  Cr  Cr2       1.0  0.26000  0.27000  0.52000  1.0000
  Fe  Fe1       1.0  0.00000  0.00000  0.00000  1.0000
  S   S1        1.0  0.12500  0.45000  0.25100  1.0000
  S   S2        1.0  0.63200  0.96700  0.26400  1.0000
  S   S3        1.0  0.36800  0.03270  0.73600  1.0000
  S   S4        1.0  0.87500  0.55000  0.74900  1.0000
