data_image0
_chemical_formula_structural       Se8TlV5
_chemical_formula_sum              "Se8 Tl1 V5"
_cell_length_a       3.41793
_cell_length_b       8.95938
_cell_length_c       9.37785
_cell_angle_alpha    104.304
_cell_angle_beta     100.5
_cell_angle_gamma    90

_space_group_name_H-M_alt    "P 1"
_space_group_IT_number       1

loop_
  _space_group_symop_operation_xyz
  'x, y, z'

loop_
  _atom_site_type_symbol
  _atom_site_label
  _atom_site_symmetry_multiplicity
  _atom_site_fract_x
  _atom_site_fract_y
  _atom_site_fract_z
  _atom_site_occupancy
  Se  Se1       1.0  0.07160  0.68900  0.14300  1.0000
  Se  Se2       1.0  0.58600  0.31900  0.17200  1.0000
  Se  Se3       1.0  0.65900  0.00181  0.31900  1.0000
  Se  Se4       1.0  0.74200  0.65900  0.48300  1.0000
  Se  Se5       1.0  0.25800  0.34100  0.51700  1.0000
  Se  Se6       1.0  0.34100  0.99800  0.68100  1.0000
  Se  Se7       1.0  0.41400  0.68100  0.82800  1.0000
  Se  Se8       1.0  0.92800  0.31100  0.85700  1.0000
  Tl  Tl1       1.0  0.00000  0.00000  0.00000  1.0000
  V   V1        1.0  0.50000  0.50000  0.00000  1.0000
  V   V2        1.0  0.14600  0.50400  0.29200  1.0000
  V   V3        1.0  0.21100  0.85500  0.42300  1.0000
  V   V4        1.0  0.78900  0.14500  0.57700  1.0000
  V   V5        1.0  0.85400  0.49600  0.70800  1.0000
