data_image0
_chemical_formula_structural       B2K4Na2P4
_chemical_formula_sum              "B2 K4 Na2 P4"
_cell_length_a       5.00476
_cell_length_b       6.77749
_cell_length_c       10.6903
_cell_angle_alpha    95.3191
_cell_angle_beta     103.537
_cell_angle_gamma    68.3325

_space_group_name_H-M_alt    "P 1"
_space_group_IT_number       1

loop_
  _space_group_symop_operation_xyz
  'x, y, z'

loop_
  _atom_site_type_symbol
  _atom_site_label
  _atom_site_symmetry_multiplicity
  _atom_site_fract_x
  _atom_site_fract_y
  _atom_site_fract_z
  _atom_site_occupancy
  B   B1        1.0  0.50000  0.00000  0.00000  1.0000
  B   B2        1.0  0.50000  0.50000  0.50000  1.0000
  K   K1        1.0  0.01730  0.14500  0.18000  1.0000
  K   K2        1.0  0.82300  0.76300  0.40800  1.0000
  K   K3        1.0  0.17700  0.23700  0.59200  1.0000
  K   K4        1.0  0.98300  0.85500  0.82000  1.0000
  Na  Na1       1.0  0.29700  0.53900  0.13400  1.0000
  Na  Na2       1.0  0.70300  0.46100  0.86600  1.0000
  P   P1        1.0  0.66500  0.75900  0.08870  1.0000
  P   P2        1.0  0.53300  0.30700  0.37400  1.0000
  P   P3        1.0  0.46700  0.69300  0.62600  1.0000
  P   P4        1.0  0.33500  0.24100  0.91100  1.0000
