data_image0
_chemical_formula_structural       Cr5Se8Tl
_chemical_formula_sum              "Cr5 Se8 Tl1"
_cell_length_a       3.65893
_cell_length_b       9.00105
_cell_length_c       9.59566
_cell_angle_alpha    104.396
_cell_angle_beta     100.991
_cell_angle_gamma    90

_space_group_name_H-M_alt    "P 1"
_space_group_IT_number       1

loop_
  _space_group_symop_operation_xyz
  'x, y, z'

loop_
  _atom_site_type_symbol
  _atom_site_label
  _atom_site_symmetry_multiplicity
  _atom_site_fract_x
  _atom_site_fract_y
  _atom_site_fract_z
  _atom_site_occupancy
  Cr  Cr1       1.0  0.50000  0.50000  0.00000  1.0000
  Cr  Cr2       1.0  0.15800  0.47700  0.31500  1.0000
  Cr  Cr3       1.0  0.20400  0.83500  0.40800  1.0000
  Cr  Cr4       1.0  0.79600  0.16500  0.59200  1.0000
  Cr  Cr5       1.0  0.84200  0.52300  0.68500  1.0000
  Se  Se1       1.0  0.07460  0.65600  0.14900  1.0000
  Se  Se2       1.0  0.58500  0.32300  0.17000  1.0000
  Se  Se3       1.0  0.67000  0.99200  0.34000  1.0000
  Se  Se4       1.0  0.73800  0.65600  0.47700  1.0000
  Se  Se5       1.0  0.26200  0.34400  0.52300  1.0000
  Se  Se6       1.0  0.33000  0.00826  0.66000  1.0000
  Se  Se7       1.0  0.41500  0.67700  0.83000  1.0000
  Se  Se8       1.0  0.92500  0.34400  0.85100  1.0000
  Tl  Tl1       1.0  0.00000  0.00000  0.00000  1.0000
