data_image0
_chemical_formula_structural       Ca2N12
_chemical_formula_sum              "Ca2 N12"
_cell_length_a       5.89207
_cell_length_b       6.19868
_cell_length_c       6.28597
_cell_angle_alpha    102.87
_cell_angle_beta     62.0521
_cell_angle_gamma    118.377

_space_group_name_H-M_alt    "P 1"
_space_group_IT_number       1

loop_
  _space_group_symop_operation_xyz
  'x, y, z'

loop_
  _atom_site_type_symbol
  _atom_site_label
  _atom_site_symmetry_multiplicity
  _atom_site_fract_x
  _atom_site_fract_y
  _atom_site_fract_z
  _atom_site_occupancy
  Ca  Ca1       1.0  0.87500  0.75000  0.25000  1.0000
  Ca  Ca2       1.0  0.12500  0.25000  0.75000  1.0000
  N   N1        1.0  0.50200  0.75000  0.99500  1.0000
  N   N2        1.0  0.27700  0.11200  0.00000  1.0000
  N   N3        1.0  0.72400  0.38800  0.00000  1.0000
  N   N4        1.0  0.27600  0.61200  0.00026  1.0000
  N   N5        1.0  0.72300  0.88800  0.00026  1.0000
  N   N6        1.0  0.49800  0.25000  0.00494  1.0000
  N   N7        1.0  0.75200  0.25000  0.49500  1.0000
  N   N8        1.0  0.33500  0.61200  0.50000  1.0000
  N   N9        1.0  0.16500  0.88800  0.50000  1.0000
  N   N10       1.0  0.83500  0.11200  0.50000  1.0000
  N   N11       1.0  0.66500  0.38800  0.50000  1.0000
  N   N12       1.0  0.24800  0.75000  0.50500  1.0000
