data_image0
_chemical_formula_structural       Fe8O16Si4
_chemical_formula_sum              "Fe8 O16 Si4"
_cell_length_a       4.82157
_cell_length_b       10.1069
_cell_length_c       6.00706
_cell_angle_alpha    89.689
_cell_angle_beta     90.001
_cell_angle_gamma    89.9991

_space_group_name_H-M_alt    "P 1"
_space_group_IT_number       1

loop_
  _space_group_symop_operation_xyz
  'x, y, z'

loop_
  _atom_site_type_symbol
  _atom_site_label
  _atom_site_symmetry_multiplicity
  _atom_site_fract_x
  _atom_site_fract_y
  _atom_site_fract_z
  _atom_site_occupancy
  Fe  Fe1       1.0  0.48000  0.22400  0.74900  1.0000
  Fe  Fe2       1.0  0.52000  0.77600  0.25100  1.0000
  Fe  Fe3       1.0  0.50000  0.50000  0.50000  1.0000
  Fe  Fe4       1.0  0.98000  0.27600  0.25100  1.0000
  Fe  Fe5       1.0  0.02040  0.72400  0.74900  1.0000
  Fe  Fe6       1.0  0.50000  0.50000  0.00000  1.0000
  Fe  Fe7       1.0  0.00000  0.00000  0.50000  1.0000
  Fe  Fe8       1.0  0.00000  0.00000  0.00000  1.0000
  O   O1        1.0  0.21700  0.66800  0.46600  1.0000
  O   O2        1.0  0.78300  0.33200  0.53400  1.0000
  O   O3        1.0  0.78200  0.33200  0.96700  1.0000
  O   O4        1.0  0.21800  0.66800  0.03320  1.0000
  O   O5        1.0  0.28300  0.16800  0.46600  1.0000
  O   O6        1.0  0.71700  0.83200  0.53400  1.0000
  O   O7        1.0  0.28200  0.16800  0.03320  1.0000
  O   O8        1.0  0.71800  0.83200  0.96700  1.0000
  O   O9        1.0  0.21500  0.44700  0.25000  1.0000
  O   O10       1.0  0.78500  0.55300  0.75000  1.0000
  O   O11       1.0  0.28500  0.94700  0.25000  1.0000
  O   O12       1.0  0.71500  0.05320  0.75000  1.0000
  O   O13       1.0  0.26100  0.41100  0.75000  1.0000
  O   O14       1.0  0.73900  0.58900  0.25000  1.0000
  O   O15       1.0  0.23900  0.91100  0.75000  1.0000
  O   O16       1.0  0.76100  0.08910  0.25000  1.0000
  Si  Si1       1.0  0.92400  0.40400  0.75000  1.0000
  Si  Si2       1.0  0.07550  0.59600  0.25000  1.0000
  Si  Si3       1.0  0.42400  0.09620  0.25000  1.0000
  Si  Si4       1.0  0.57600  0.90400  0.75000  1.0000
