data_image0
_chemical_formula_structural       Cu2Rh4S8
_chemical_formula_sum              "Cu2 Rh4 S8"
_cell_length_a       6.97423
_cell_length_b       6.97423
_cell_length_c       6.97423
_cell_angle_alpha    120
_cell_angle_beta     90
_cell_angle_gamma    120

_space_group_name_H-M_alt    "P 1"
_space_group_IT_number       1

loop_
  _space_group_symop_operation_xyz
  'x, y, z'

loop_
  _atom_site_type_symbol
  _atom_site_label
  _atom_site_symmetry_multiplicity
  _atom_site_fract_x
  _atom_site_fract_y
  _atom_site_fract_z
  _atom_site_occupancy
  Cu  Cu1       1.0  0.00000  0.00000  0.00000  1.0000
  Cu  Cu2       1.0  0.75000  0.50000  0.25000  1.0000
  Rh  Rh1       1.0  0.37500  0.75000  0.12500  1.0000
  Rh  Rh2       1.0  0.87500  0.25000  0.62500  1.0000
  Rh  Rh3       1.0  0.37500  0.25000  0.62500  1.0000
  Rh  Rh4       1.0  0.37500  0.75000  0.62500  1.0000
  S   S1        1.0  0.61600  0.23100  0.38400  1.0000
  S   S2        1.0  0.15300  0.76900  0.38400  1.0000
  S   S3        1.0  0.61600  0.76900  0.38400  1.0000
  S   S4        1.0  0.13400  0.26900  0.40300  1.0000
  S   S5        1.0  0.61600  0.23100  0.84700  1.0000
  S   S6        1.0  0.13400  0.26900  0.86600  1.0000
  S   S7        1.0  0.13400  0.73100  0.86600  1.0000
  S   S8        1.0  0.59700  0.73100  0.86600  1.0000
