data_image0
_chemical_formula_structural       Cl4F4
_chemical_formula_sum              "Cl4 F4"
_cell_length_a       6.05869
_cell_length_b       3.62386
_cell_length_c       6.03834
_cell_angle_alpha    90
_cell_angle_beta     104.341
_cell_angle_gamma    90

_space_group_name_H-M_alt    "P 1"
_space_group_IT_number       1

loop_
  _space_group_symop_operation_xyz
  'x, y, z'

loop_
  _atom_site_type_symbol
  _atom_site_label
  _atom_site_symmetry_multiplicity
  _atom_site_fract_x
  _atom_site_fract_y
  _atom_site_fract_z
  _atom_site_occupancy
  Cl  Cl1       1.0  0.84400  0.00238  0.21000  1.0000
  Cl  Cl2       1.0  0.15600  0.50200  0.29000  1.0000
  Cl  Cl3       1.0  0.84400  0.49800  0.71000  1.0000
  Cl  Cl4       1.0  0.15600  0.99800  0.79000  1.0000
  F   F1        1.0  0.62000  0.71000  0.15100  1.0000
  F   F2        1.0  0.38000  0.21000  0.34900  1.0000
  F   F3        1.0  0.62000  0.79000  0.65100  1.0000
  F   F4        1.0  0.38000  0.29000  0.84900  1.0000
