data_image0
_chemical_formula_structural       Cu4O8S2
_chemical_formula_sum              "Cu4 O8 S2"
_cell_length_a       4.63101
_cell_length_b       5.93128
_cell_length_c       7.21708
_cell_angle_alpha    97.1953
_cell_angle_beta     71.2865
_cell_angle_gamma    112.979

_space_group_name_H-M_alt    "P 1"
_space_group_IT_number       1

loop_
  _space_group_symop_operation_xyz
  'x, y, z'

loop_
  _atom_site_type_symbol
  _atom_site_label
  _atom_site_symmetry_multiplicity
  _atom_site_fract_x
  _atom_site_fract_y
  _atom_site_fract_z
  _atom_site_occupancy
  Cu  Cu1       1.0  0.43400  0.75000  0.13100  1.0000
  Cu  Cu2       1.0  0.81600  0.75000  0.36900  1.0000
  Cu  Cu3       1.0  0.18400  0.25000  0.63100  1.0000
  Cu  Cu4       1.0  0.56600  0.25000  0.86900  1.0000
  O   O1        1.0  0.67800  0.09390  0.12200  1.0000
  O   O2        1.0  0.20100  0.40600  0.12200  1.0000
  O   O3        1.0  0.91600  0.09390  0.37800  1.0000
  O   O4        1.0  0.70500  0.40600  0.37800  1.0000
  O   O5        1.0  0.29500  0.59400  0.62200  1.0000
  O   O6        1.0  0.08380  0.90600  0.62200  1.0000
  O   O7        1.0  0.79900  0.59400  0.87800  1.0000
  O   O8        1.0  0.32200  0.90600  0.87800  1.0000
  S   S1        1.0  0.87500  0.25000  0.25000  1.0000
  S   S2        1.0  0.12500  0.75000  0.75000  1.0000
