data_image0
_chemical_formula_structural       Cs2Se6Y2Zn2
_chemical_formula_sum              "Cs2 Se6 Y2 Zn2"
_cell_length_a       4.16405
_cell_length_b       8.33167
_cell_length_c       11.0295
_cell_angle_alpha    90
_cell_angle_beta     90
_cell_angle_gamma    75.5288

_space_group_name_H-M_alt    "P 1"
_space_group_IT_number       1

loop_
  _space_group_symop_operation_xyz
  'x, y, z'

loop_
  _atom_site_type_symbol
  _atom_site_label
  _atom_site_symmetry_multiplicity
  _atom_site_fract_x
  _atom_site_fract_y
  _atom_site_fract_z
  _atom_site_occupancy
  Cs  Cs1       1.0  0.74200  0.51700  0.25000  1.0000
  Cs  Cs2       1.0  0.25800  0.48300  0.75000  1.0000
  Se  Se1       1.0  0.38200  0.23500  0.05850  1.0000
  Se  Se2       1.0  0.05430  0.89100  0.25000  1.0000
  Se  Se3       1.0  0.38200  0.23500  0.44200  1.0000
  Se  Se4       1.0  0.61800  0.76500  0.55800  1.0000
  Se  Se5       1.0  0.94600  0.10900  0.75000  1.0000
  Se  Se6       1.0  0.61800  0.76500  0.94200  1.0000
  Y   Y1        1.0  0.00000  0.00000  0.00000  1.0000
  Y   Y2        1.0  0.00000  0.00000  0.50000  1.0000
  Zn  Zn1       1.0  0.46000  0.08060  0.25000  1.0000
  Zn  Zn2       1.0  0.54000  0.91900  0.75000  1.0000
