data_image0
_chemical_formula_structural       Ca4O8Pb2
_chemical_formula_sum              "Ca4 O8 Pb2"
_cell_length_a       5.8097
_cell_length_b       9.76504
_cell_length_c       3.38043
_cell_angle_alpha    90
_cell_angle_beta     90
_cell_angle_gamma    90

_space_group_name_H-M_alt    "P 1"
_space_group_IT_number       1

loop_
  _space_group_symop_operation_xyz
  'x, y, z'

loop_
  _atom_site_type_symbol
  _atom_site_label
  _atom_site_symmetry_multiplicity
  _atom_site_fract_x
  _atom_site_fract_y
  _atom_site_fract_z
  _atom_site_occupancy
  Ca  Ca1       1.0  0.57300  0.18200  0.50000  1.0000
  Ca  Ca2       1.0  0.07310  0.31800  0.50000  1.0000
  Ca  Ca3       1.0  0.92700  0.68200  0.50000  1.0000
  Ca  Ca4       1.0  0.42700  0.81800  0.50000  1.0000
  O   O1        1.0  0.85700  0.20500  0.00000  1.0000
  O   O2        1.0  0.35700  0.29500  0.00000  1.0000
  O   O3        1.0  0.64300  0.70500  0.00000  1.0000
  O   O4        1.0  0.14300  0.79500  0.00000  1.0000
  O   O5        1.0  0.24400  0.04990  0.50000  1.0000
  O   O6        1.0  0.74400  0.45000  0.50000  1.0000
  O   O7        1.0  0.25600  0.55000  0.50000  1.0000
  O   O8        1.0  0.75600  0.95000  0.50000  1.0000
  Pb  Pb1       1.0  0.00000  0.00000  0.00000  1.0000
  Pb  Pb2       1.0  0.50000  0.50000  0.00000  1.0000
