data_image0
_chemical_formula_structural       AuBa4C4KO4
_chemical_formula_sum              "Au1 Ba4 C4 K1 O4"
_cell_length_a       6.07975
_cell_length_b       6.07975
_cell_length_c       8.72744
_cell_angle_alpha    110.384
_cell_angle_beta     110.384
_cell_angle_gamma    90

_space_group_name_H-M_alt    "P 1"
_space_group_IT_number       1

loop_
  _space_group_symop_operation_xyz
  'x, y, z'

loop_
  _atom_site_type_symbol
  _atom_site_label
  _atom_site_symmetry_multiplicity
  _atom_site_fract_x
  _atom_site_fract_y
  _atom_site_fract_z
  _atom_site_occupancy
  Au  Au1       1.0  0.00000  0.00000  0.00000  1.0000
  Ba  Ba1       1.0  0.62000  0.12000  0.24000  1.0000
  Ba  Ba2       1.0  0.12000  0.62000  0.24000  1.0000
  Ba  Ba3       1.0  0.88000  0.38000  0.76000  1.0000
  Ba  Ba4       1.0  0.38000  0.88000  0.76000  1.0000
  C   C1        1.0  0.69400  0.69400  0.38800  1.0000
  C   C2        1.0  0.22200  0.22200  0.44500  1.0000
  C   C3        1.0  0.77800  0.77800  0.55500  1.0000
  C   C4        1.0  0.30600  0.30600  0.61200  1.0000
  K   K1        1.0  0.50000  0.50000  0.00000  1.0000
  O   O1        1.0  0.23100  0.23100  0.00000  1.0000
  O   O2        1.0  0.76900  0.23100  0.00000  1.0000
  O   O3        1.0  0.23100  0.76900  0.00000  1.0000
  O   O4        1.0  0.76900  0.76900  0.00000  1.0000
