data_image0
_chemical_formula_structural       P8Sr6
_chemical_formula_sum              "P8 Sr6"
_cell_length_a       5.85838
_cell_length_b       7.74195
_cell_length_c       9.18197
_cell_angle_alpha    96.9325
_cell_angle_beta     71.3966
_cell_angle_gamma    112.232

_space_group_name_H-M_alt    "P 1"
_space_group_IT_number       1

loop_
  _space_group_symop_operation_xyz
  'x, y, z'

loop_
  _atom_site_type_symbol
  _atom_site_label
  _atom_site_symmetry_multiplicity
  _atom_site_fract_x
  _atom_site_fract_y
  _atom_site_fract_z
  _atom_site_occupancy
  P   P1        1.0  0.16600  0.83800  0.00159  1.0000
  P   P2        1.0  0.25500  0.68300  0.15400  1.0000
  P   P3        1.0  0.65900  0.18300  0.34600  1.0000
  P   P4        1.0  0.41800  0.33800  0.49800  1.0000
  P   P5        1.0  0.57800  0.66200  0.50200  1.0000
  P   P6        1.0  0.82200  0.81700  0.65400  1.0000
  P   P7        1.0  0.72600  0.31700  0.84600  1.0000
  P   P8        1.0  0.32900  0.16200  0.99800  1.0000
  Sr  Sr1       1.0  0.74400  0.00000  0.00000  1.0000
  Sr  Sr2       1.0  0.67300  0.50400  0.16400  1.0000
  Sr  Sr3       1.0  0.08680  0.00419  0.33600  1.0000
  Sr  Sr4       1.0  0.99400  0.50000  0.50000  1.0000
  Sr  Sr5       1.0  0.41900  0.99600  0.66400  1.0000
  Sr  Sr6       1.0  0.33300  0.49600  0.83600  1.0000
