data_image0
_chemical_formula_structural       Cr4Cu2Te8
_chemical_formula_sum              "Cr4 Cu2 Te8"
_cell_length_a       7.9198
_cell_length_b       7.9198
_cell_length_c       7.9198
_cell_angle_alpha    120
_cell_angle_beta     90
_cell_angle_gamma    120

_space_group_name_H-M_alt    "P 1"
_space_group_IT_number       1

loop_
  _space_group_symop_operation_xyz
  'x, y, z'

loop_
  _atom_site_type_symbol
  _atom_site_label
  _atom_site_symmetry_multiplicity
  _atom_site_fract_x
  _atom_site_fract_y
  _atom_site_fract_z
  _atom_site_occupancy
  Cr  Cr1       1.0  0.50000  0.00000  0.00000  1.0000
  Cr  Cr2       1.0  0.00000  0.50000  0.50000  1.0000
  Cr  Cr3       1.0  0.50000  0.50000  0.50000  1.0000
  Cr  Cr4       1.0  0.50000  0.00000  0.50000  1.0000
  Cu  Cu1       1.0  0.87500  0.75000  0.12500  1.0000
  Cu  Cu2       1.0  0.12500  0.25000  0.87500  1.0000
  Te  Te1       1.0  0.27200  0.01470  0.25700  1.0000
  Te  Te2       1.0  0.74300  0.01470  0.25700  1.0000
  Te  Te3       1.0  0.74300  0.48500  0.25700  1.0000
  Te  Te4       1.0  0.25700  0.51500  0.27200  1.0000
  Te  Te5       1.0  0.74300  0.48500  0.72800  1.0000
  Te  Te6       1.0  0.25700  0.51500  0.74300  1.0000
  Te  Te7       1.0  0.25700  0.98500  0.74300  1.0000
  Te  Te8       1.0  0.72800  0.98500  0.74300  1.0000
