data_image0
_chemical_formula_structural       Al11La3
_chemical_formula_sum              "Al11 La3"
_cell_length_a       4.44139
_cell_length_b       8.58617
_cell_length_c       8.58617
_cell_angle_alpha    99.9705
_cell_angle_beta     104.989
_cell_angle_gamma    104.989

_space_group_name_H-M_alt    "P 1"
_space_group_IT_number       1

loop_
  _space_group_symop_operation_xyz
  'x, y, z'

loop_
  _atom_site_type_symbol
  _atom_site_label
  _atom_site_symmetry_multiplicity
  _atom_site_fract_x
  _atom_site_fract_y
  _atom_site_fract_z
  _atom_site_occupancy
  Al  Al1       1.0  0.36800  0.70200  0.03390  1.0000
  Al  Al2       1.0  0.27400  0.41100  0.13600  1.0000
  Al  Al3       1.0  0.78400  0.28400  0.28400  1.0000
  Al  Al4       1.0  0.63200  0.96600  0.29800  1.0000
  Al  Al5       1.0  0.27400  0.13600  0.41100  1.0000
  Al  Al6       1.0  0.50000  0.50000  0.50000  1.0000
  Al  Al7       1.0  0.72600  0.86400  0.58900  1.0000
  Al  Al8       1.0  0.36800  0.03390  0.70200  1.0000
  Al  Al9       1.0  0.21600  0.71600  0.71600  1.0000
  Al  Al10      1.0  0.72600  0.58900  0.86400  1.0000
  Al  Al11      1.0  0.63200  0.29800  0.96600  1.0000
  La  La1       1.0  0.00000  0.00000  0.00000  1.0000
  La  La2       1.0  0.00000  0.68300  0.31700  1.0000
  La  La3       1.0  0.00000  0.31700  0.68300  1.0000
