data_image0
_chemical_formula_structural       Ag2Cs2Se6U2
_chemical_formula_sum              "Ag2 Cs2 Se6 U2"
_cell_length_a       4.2702
_cell_length_b       8.20787
_cell_length_c       10.9074
_cell_angle_alpha    90
_cell_angle_beta     90
_cell_angle_gamma    74.9223

_space_group_name_H-M_alt    "P 1"
_space_group_IT_number       1

loop_
  _space_group_symop_operation_xyz
  'x, y, z'

loop_
  _atom_site_type_symbol
  _atom_site_label
  _atom_site_symmetry_multiplicity
  _atom_site_fract_x
  _atom_site_fract_y
  _atom_site_fract_z
  _atom_site_occupancy
  Ag  Ag1       1.0  0.45800  0.08350  0.25000  1.0000
  Ag  Ag2       1.0  0.54200  0.91600  0.75000  1.0000
  Cs  Cs1       1.0  0.74500  0.51000  0.25000  1.0000
  Cs  Cs2       1.0  0.25500  0.49000  0.75000  1.0000
  Se  Se1       1.0  0.38100  0.23700  0.03840  1.0000
  Se  Se2       1.0  0.05960  0.88100  0.25000  1.0000
  Se  Se3       1.0  0.38100  0.23700  0.46200  1.0000
  Se  Se4       1.0  0.61900  0.76300  0.53800  1.0000
  Se  Se5       1.0  0.94000  0.11900  0.75000  1.0000
  Se  Se6       1.0  0.61900  0.76300  0.96200  1.0000
  U   U1        1.0  0.00000  0.00000  0.00000  1.0000
  U   U2        1.0  0.00000  0.00000  0.50000  1.0000
