data_image0
_chemical_formula_structural       Au4Ca10
_chemical_formula_sum              "Au4 Ca10"
_cell_length_a       6.81174
_cell_length_b       7.79554
_cell_length_c       9.03741
_cell_angle_alpha    97.0969
_cell_angle_beta     112.14
_cell_angle_gamma    90

_space_group_name_H-M_alt    "P 1"
_space_group_IT_number       1

loop_
  _space_group_symop_operation_xyz
  'x, y, z'

loop_
  _atom_site_type_symbol
  _atom_site_label
  _atom_site_symmetry_multiplicity
  _atom_site_fract_x
  _atom_site_fract_y
  _atom_site_fract_z
  _atom_site_occupancy
  Au  Au1       1.0  0.81500  0.58000  0.22000  1.0000
  Au  Au2       1.0  0.40500  0.08050  0.22000  1.0000
  Au  Au3       1.0  0.59500  0.92000  0.78000  1.0000
  Au  Au4       1.0  0.18500  0.42000  0.78000  1.0000
  Ca  Ca1       1.0  0.41600  0.75000  0.00000  1.0000
  Ca  Ca2       1.0  0.58400  0.25000  0.00000  1.0000
  Ca  Ca3       1.0  0.20100  0.42100  0.18300  1.0000
  Ca  Ca4       1.0  0.98100  0.92100  0.18300  1.0000
  Ca  Ca5       1.0  0.79800  0.31700  0.43800  1.0000
  Ca  Ca6       1.0  0.64000  0.81700  0.43800  1.0000
  Ca  Ca7       1.0  0.20200  0.68300  0.56200  1.0000
  Ca  Ca8       1.0  0.36000  0.18300  0.56200  1.0000
  Ca  Ca9       1.0  0.01850  0.07900  0.81700  1.0000
  Ca  Ca10      1.0  0.79900  0.57900  0.81700  1.0000
