data_image0
_chemical_formula_structural       Cd2Cs2Gd2Se6
_chemical_formula_sum              "Cd2 Cs2 Gd2 Se6"
_cell_length_a       4.31467
_cell_length_b       8.35528
_cell_length_c       11.2378
_cell_angle_alpha    90
_cell_angle_beta     90
_cell_angle_gamma    75.0367

_space_group_name_H-M_alt    "P 1"
_space_group_IT_number       1

loop_
  _space_group_symop_operation_xyz
  'x, y, z'

loop_
  _atom_site_type_symbol
  _atom_site_label
  _atom_site_symmetry_multiplicity
  _atom_site_fract_x
  _atom_site_fract_y
  _atom_site_fract_z
  _atom_site_occupancy
  Cd  Cd1       1.0  0.54100  0.91800  0.25000  1.0000
  Cd  Cd2       1.0  0.45900  0.08250  0.75000  1.0000
  Cs  Cs1       1.0  0.25700  0.48600  0.25000  1.0000
  Cs  Cs2       1.0  0.74300  0.51400  0.75000  1.0000
  Gd  Gd1       1.0  0.00000  0.00000  0.00000  1.0000
  Gd  Gd2       1.0  0.00000  0.00000  0.50000  1.0000
  Se  Se1       1.0  0.62000  0.76000  0.04570  1.0000
  Se  Se2       1.0  0.94000  0.12000  0.25000  1.0000
  Se  Se3       1.0  0.62000  0.76000  0.45400  1.0000
  Se  Se4       1.0  0.38000  0.24000  0.54600  1.0000
  Se  Se5       1.0  0.06010  0.88000  0.75000  1.0000
  Se  Se6       1.0  0.38000  0.24000  0.95400  1.0000
