data_image0
_chemical_formula_structural       B12P2
_chemical_formula_sum              "B12 P2"
_cell_length_a       5.24149
_cell_length_b       5.24149
_cell_length_c       5.24149
_cell_angle_alpha    110.432
_cell_angle_beta     69.5678
_cell_angle_gamma    110.432

_space_group_name_H-M_alt    "P 1"
_space_group_IT_number       1

loop_
  _space_group_symop_operation_xyz
  'x, y, z'

loop_
  _atom_site_type_symbol
  _atom_site_label
  _atom_site_symmetry_multiplicity
  _atom_site_fract_x
  _atom_site_fract_y
  _atom_site_fract_z
  _atom_site_occupancy
  B   B1        1.0  0.32600  0.98700  0.01270  1.0000
  B   B2        1.0  0.01270  0.67400  0.01270  1.0000
  B   B3        1.0  0.71700  0.81600  0.18400  1.0000
  B   B4        1.0  0.18400  0.28300  0.18400  1.0000
  B   B5        1.0  0.81600  0.18400  0.28300  1.0000
  B   B6        1.0  0.01270  0.98700  0.32600  1.0000
  B   B7        1.0  0.98700  0.01270  0.67400  1.0000
  B   B8        1.0  0.18400  0.81600  0.71700  1.0000
  B   B9        1.0  0.28300  0.18400  0.81600  1.0000
  B   B10       1.0  0.81600  0.71700  0.81600  1.0000
  B   B11       1.0  0.98700  0.32600  0.98700  1.0000
  B   B12       1.0  0.67400  0.01270  0.98700  1.0000
  P   P1        1.0  0.40500  0.59500  0.40500  1.0000
  P   P2        1.0  0.59500  0.40500  0.59500  1.0000
