data_image0
_chemical_formula_structural       Na2Sn10
_chemical_formula_sum              "Na2 Sn10"
_cell_length_a       6.38549
_cell_length_b       6.38549
_cell_length_c       8.94013
_cell_angle_alpha    90
_cell_angle_beta     90
_cell_angle_gamma    90

_space_group_name_H-M_alt    "P 1"
_space_group_IT_number       1

loop_
  _space_group_symop_operation_xyz
  'x, y, z'

loop_
  _atom_site_type_symbol
  _atom_site_label
  _atom_site_symmetry_multiplicity
  _atom_site_fract_x
  _atom_site_fract_y
  _atom_site_fract_z
  _atom_site_occupancy
  Na  Na1       1.0  0.00000  0.50000  0.20600  1.0000
  Na  Na2       1.0  0.50000  0.00000  0.79400  1.0000
  Sn  Sn1       1.0  0.00000  0.00000  0.00000  1.0000
  Sn  Sn2       1.0  0.50000  0.50000  0.00000  1.0000
  Sn  Sn3       1.0  0.65800  0.15800  0.18300  1.0000
  Sn  Sn4       1.0  0.34200  0.84200  0.18300  1.0000
  Sn  Sn5       1.0  0.74800  0.24800  0.49900  1.0000
  Sn  Sn6       1.0  0.25200  0.75200  0.49900  1.0000
  Sn  Sn7       1.0  0.24800  0.25200  0.50100  1.0000
  Sn  Sn8       1.0  0.75200  0.74800  0.50100  1.0000
  Sn  Sn9       1.0  0.15800  0.34200  0.81700  1.0000
  Sn  Sn10      1.0  0.84200  0.65800  0.81700  1.0000
