data_image0
_chemical_formula_structural       Al4Ca4Pd4
_chemical_formula_sum              "Al4 Ca4 Pd4"
_cell_length_a       5.7269
_cell_length_b       7.85311
_cell_length_c       5.61346
_cell_angle_alpha    90
_cell_angle_beta     90
_cell_angle_gamma    90

_space_group_name_H-M_alt    "P 1"
_space_group_IT_number       1

loop_
  _space_group_symop_operation_xyz
  'x, y, z'

loop_
  _atom_site_type_symbol
  _atom_site_label
  _atom_site_symmetry_multiplicity
  _atom_site_fract_x
  _atom_site_fract_y
  _atom_site_fract_z
  _atom_site_occupancy
  Al  Al1       1.0  0.10600  0.25000  0.00000  1.0000
  Al  Al2       1.0  0.89400  0.75000  0.00000  1.0000
  Al  Al3       1.0  0.10600  0.25000  0.50000  1.0000
  Al  Al4       1.0  0.89400  0.75000  0.50000  1.0000
  Ca  Ca1       1.0  0.63600  0.10000  0.25000  1.0000
  Ca  Ca2       1.0  0.36400  0.60000  0.25000  1.0000
  Ca  Ca3       1.0  0.63600  0.40000  0.75000  1.0000
  Ca  Ca4       1.0  0.36400  0.90000  0.75000  1.0000
  Pd  Pd1       1.0  0.87000  0.47500  0.25000  1.0000
  Pd  Pd2       1.0  0.13000  0.97500  0.25000  1.0000
  Pd  Pd3       1.0  0.87000  0.02540  0.75000  1.0000
  Pd  Pd4       1.0  0.13000  0.52500  0.75000  1.0000
