data_image0
_chemical_formula_structural       Cu2S8Ti4
_chemical_formula_sum              "Cu2 S8 Ti4"
_cell_length_a       7.05862
_cell_length_b       7.05862
_cell_length_c       7.05862
_cell_angle_alpha    120
_cell_angle_beta     90
_cell_angle_gamma    120

_space_group_name_H-M_alt    "P 1"
_space_group_IT_number       1

loop_
  _space_group_symop_operation_xyz
  'x, y, z'

loop_
  _atom_site_type_symbol
  _atom_site_label
  _atom_site_symmetry_multiplicity
  _atom_site_fract_x
  _atom_site_fract_y
  _atom_site_fract_z
  _atom_site_occupancy
  Cu  Cu1       1.0  0.87500  0.75000  0.12500  1.0000
  Cu  Cu2       1.0  0.12500  0.25000  0.87500  1.0000
  S   S1        1.0  0.26500  0.00973  0.25500  1.0000
  S   S2        1.0  0.74500  0.49000  0.25500  1.0000
  S   S3        1.0  0.74500  0.00973  0.25500  1.0000
  S   S4        1.0  0.25500  0.51000  0.26500  1.0000
  S   S5        1.0  0.74500  0.49000  0.73500  1.0000
  S   S6        1.0  0.25500  0.51000  0.74500  1.0000
  S   S7        1.0  0.25500  0.99000  0.74500  1.0000
  S   S8        1.0  0.73500  0.99000  0.74500  1.0000
  Ti  Ti1       1.0  0.50000  0.00000  0.00000  1.0000
  Ti  Ti2       1.0  0.50000  0.00000  0.50000  1.0000
  Ti  Ti3       1.0  0.00000  0.50000  0.50000  1.0000
  Ti  Ti4       1.0  0.50000  0.50000  0.50000  1.0000
