data_image0
_chemical_formula_structural       Gd4Si4
_chemical_formula_sum              "Gd4 Si4"
_cell_length_a       7.99626
_cell_length_b       3.86659
_cell_length_c       5.76423
_cell_angle_alpha    90
_cell_angle_beta     90
_cell_angle_gamma    90

_space_group_name_H-M_alt    "P 1"
_space_group_IT_number       1

loop_
  _space_group_symop_operation_xyz
  'x, y, z'

loop_
  _atom_site_type_symbol
  _atom_site_label
  _atom_site_symmetry_multiplicity
  _atom_site_fract_x
  _atom_site_fract_y
  _atom_site_fract_z
  _atom_site_occupancy
  Gd  Gd1       1.0  0.67900  0.25000  0.11400  1.0000
  Gd  Gd2       1.0  0.17900  0.25000  0.38600  1.0000
  Gd  Gd3       1.0  0.82100  0.75000  0.61400  1.0000
  Gd  Gd4       1.0  0.32100  0.75000  0.88600  1.0000
  Si  Si1       1.0  0.96300  0.75000  0.12700  1.0000
  Si  Si2       1.0  0.46300  0.75000  0.37300  1.0000
  Si  Si3       1.0  0.53700  0.25000  0.62700  1.0000
  Si  Si4       1.0  0.03710  0.25000  0.87300  1.0000
