data_image0
_chemical_formula_structural       B2Be4F2O6
_chemical_formula_sum              "B2 Be4 F2 O6"
_cell_length_a       4.43096
_cell_length_b       4.43096
_cell_length_c       8.58701
_cell_angle_alpha    104.976
_cell_angle_beta     104.976
_cell_angle_gamma    59.9706

_space_group_name_H-M_alt    "P 1"
_space_group_IT_number       1

loop_
  _space_group_symop_operation_xyz
  'x, y, z'

loop_
  _atom_site_type_symbol
  _atom_site_label
  _atom_site_symmetry_multiplicity
  _atom_site_fract_x
  _atom_site_fract_y
  _atom_site_fract_z
  _atom_site_occupancy
  B   B1        1.0  0.25000  0.75000  0.25000  1.0000
  B   B2        1.0  0.75000  0.25000  0.75000  1.0000
  Be  Be1       1.0  0.56300  0.06310  0.19000  1.0000
  Be  Be2       1.0  0.93700  0.43700  0.31000  1.0000
  Be  Be3       1.0  0.06310  0.56300  0.69000  1.0000
  Be  Be4       1.0  0.43700  0.93700  0.81000  1.0000
  F   F1        1.0  0.50000  0.00000  0.00000  1.0000
  F   F2        1.0  0.00000  0.50000  0.50000  1.0000
  O   O1        1.0  0.56000  0.74900  0.25000  1.0000
  O   O2        1.0  0.94100  0.05950  0.25000  1.0000
  O   O3        1.0  0.25100  0.44000  0.25100  1.0000
  O   O4        1.0  0.74900  0.56000  0.74900  1.0000
  O   O5        1.0  0.05950  0.94100  0.75000  1.0000
  O   O6        1.0  0.44000  0.25100  0.75000  1.0000
