data_image0
_chemical_formula_structural       Al9Sr5
_chemical_formula_sum              "Al9 Sr5"
_cell_length_a       5.86188
_cell_length_b       5.86188
_cell_length_c       12.3563
_cell_angle_alpha    76.2786
_cell_angle_beta     103.721
_cell_angle_gamma    120

_space_group_name_H-M_alt    "P 1"
_space_group_IT_number       1

loop_
  _space_group_symop_operation_xyz
  'x, y, z'

loop_
  _atom_site_type_symbol
  _atom_site_label
  _atom_site_symmetry_multiplicity
  _atom_site_fract_x
  _atom_site_fract_y
  _atom_site_fract_z
  _atom_site_occupancy
  Al  Al1       1.0  0.00000  0.00000  0.00000  1.0000
  Al  Al2       1.0  0.23700  0.27600  0.19700  1.0000
  Al  Al3       1.0  0.23700  0.76300  0.19700  1.0000
  Al  Al4       1.0  0.72400  0.76300  0.19700  1.0000
  Al  Al5       1.0  0.12400  0.87600  0.37200  1.0000
  Al  Al6       1.0  0.87600  0.12400  0.62800  1.0000
  Al  Al7       1.0  0.27600  0.23700  0.80300  1.0000
  Al  Al8       1.0  0.76300  0.23700  0.80300  1.0000
  Al  Al9       1.0  0.76300  0.72400  0.80300  1.0000
  Sr  Sr1       1.0  0.68300  0.31700  0.04950  1.0000
  Sr  Sr2       1.0  0.78300  0.21700  0.35000  1.0000
  Sr  Sr3       1.0  0.50000  0.50000  0.50000  1.0000
  Sr  Sr4       1.0  0.21700  0.78300  0.65000  1.0000
  Sr  Sr5       1.0  0.31700  0.68300  0.95000  1.0000
