data_image0
_chemical_formula_structural       IrKLi6O6
_chemical_formula_sum              "Ir1 K1 Li6 O6"
_cell_length_a       5.2806
_cell_length_b       5.2806
_cell_length_c       5.2806
_cell_angle_alpha    101.391
_cell_angle_beta     101.391
_cell_angle_gamma    101.391

_space_group_name_H-M_alt    "P 1"
_space_group_IT_number       1

loop_
  _space_group_symop_operation_xyz
  'x, y, z'

loop_
  _atom_site_type_symbol
  _atom_site_label
  _atom_site_symmetry_multiplicity
  _atom_site_fract_x
  _atom_site_fract_y
  _atom_site_fract_z
  _atom_site_occupancy
  Ir  Ir1       1.0  0.00000  0.00000  0.00000  1.0000
  K   K1        1.0  0.50000  0.50000  0.50000  1.0000
  Li  Li1       1.0  0.66100  0.33900  0.00000  1.0000
  Li  Li2       1.0  0.33900  0.66100  0.00000  1.0000
  Li  Li3       1.0  0.66100  0.00000  0.33900  1.0000
  Li  Li4       1.0  0.00000  0.66100  0.33900  1.0000
  Li  Li5       1.0  0.33900  0.00000  0.66100  1.0000
  Li  Li6       1.0  0.00000  0.33900  0.66100  1.0000
  O   O1        1.0  0.72400  0.72400  0.07760  1.0000
  O   O2        1.0  0.92200  0.27600  0.27600  1.0000
  O   O3        1.0  0.27600  0.92200  0.27600  1.0000
  O   O4        1.0  0.72400  0.07760  0.72400  1.0000
  O   O5        1.0  0.07760  0.72400  0.72400  1.0000
  O   O6        1.0  0.27600  0.27600  0.92200  1.0000
