data_image0
_chemical_formula_structural       As4In2K4Na2
_chemical_formula_sum              "As4 In2 K4 Na2"
_cell_length_a       6.77067
_cell_length_b       6.83022
_cell_length_c       9.08801
_cell_angle_alpha    112.073
_cell_angle_beta     111.87
_cell_angle_gamma    90

_space_group_name_H-M_alt    "P 1"
_space_group_IT_number       1

loop_
  _space_group_symop_operation_xyz
  'x, y, z'

loop_
  _atom_site_type_symbol
  _atom_site_label
  _atom_site_symmetry_multiplicity
  _atom_site_fract_x
  _atom_site_fract_y
  _atom_site_fract_z
  _atom_site_occupancy
  As  As1       1.0  0.82100  0.10200  0.20500  1.0000
  As  As2       1.0  0.38400  0.60200  0.20500  1.0000
  As  As3       1.0  0.61600  0.39800  0.79500  1.0000
  As  As4       1.0  0.17900  0.89800  0.79500  1.0000
  In  In1       1.0  0.50000  0.25000  0.00000  1.0000
  In  In2       1.0  0.50000  0.75000  0.00000  1.0000
  K   K1        1.0  0.41500  0.17600  0.35200  1.0000
  K   K2        1.0  0.93600  0.67600  0.35200  1.0000
  K   K3        1.0  0.06360  0.32400  0.64800  1.0000
  K   K4        1.0  0.58500  0.82400  0.64800  1.0000
  Na  Na1       1.0  0.00000  0.25000  0.00000  1.0000
  Na  Na2       1.0  0.00000  0.75000  0.00000  1.0000
