data_image0
_chemical_formula_structural       B2K4Li2O6
_chemical_formula_sum              "B2 K4 Li2 O6"
_cell_length_a       5.30698
_cell_length_b       5.30698
_cell_length_c       7.30335
_cell_angle_alpha    100.605
_cell_angle_beta     100.605
_cell_angle_gamma    69.6859

_space_group_name_H-M_alt    "P 1"
_space_group_IT_number       1

loop_
  _space_group_symop_operation_xyz
  'x, y, z'

loop_
  _atom_site_type_symbol
  _atom_site_label
  _atom_site_symmetry_multiplicity
  _atom_site_fract_x
  _atom_site_fract_y
  _atom_site_fract_z
  _atom_site_occupancy
  B   B1        1.0  0.51000  0.78700  0.21800  1.0000
  B   B2        1.0  0.21300  0.49000  0.78200  1.0000
  K   K1        1.0  0.00146  0.99900  1.00000  1.0000
  K   K2        1.0  0.16000  0.49200  0.32400  1.0000
  K   K3        1.0  0.83500  0.16500  0.50000  1.0000
  K   K4        1.0  0.50800  0.84000  0.67600  1.0000
  Li  Li1       1.0  0.46100  0.27000  0.03280  1.0000
  Li  Li2       1.0  0.73000  0.53900  0.96700  1.0000
  O   O1        1.0  0.57900  0.90600  0.08620  1.0000
  O   O2        1.0  0.63100  0.50300  0.21500  1.0000
  O   O3        1.0  0.32100  0.94000  0.33600  1.0000
  O   O4        1.0  0.05980  0.67900  0.66400  1.0000
  O   O5        1.0  0.49700  0.36900  0.78500  1.0000
  O   O6        1.0  0.09440  0.42100  0.91400  1.0000
