data_image0
_chemical_formula_structural       K2O8RbTbV2
_chemical_formula_sum              "K2 O8 Rb1 Tb1 V2"
_cell_length_a       5.9365
_cell_length_b       5.93606
_cell_length_c       7.6227
_cell_angle_alpha    90
_cell_angle_beta     89.9967
_cell_angle_gamma    119.998

_space_group_name_H-M_alt    "P 1"
_space_group_IT_number       1

loop_
  _space_group_symop_operation_xyz
  'x, y, z'

loop_
  _atom_site_type_symbol
  _atom_site_label
  _atom_site_symmetry_multiplicity
  _atom_site_fract_x
  _atom_site_fract_y
  _atom_site_fract_z
  _atom_site_occupancy
  K   K1        1.0  0.33300  0.66700  0.18900  1.0000
  K   K2        1.0  0.66700  0.33300  0.81100  1.0000
  O   O1        1.0  0.34800  0.17400  0.18000  1.0000
  O   O2        1.0  0.82600  0.17400  0.18000  1.0000
  O   O3        1.0  0.82600  0.65200  0.18000  1.0000
  O   O4        1.0  0.66700  0.33300  0.48000  1.0000
  O   O5        1.0  0.33300  0.66700  0.52000  1.0000
  O   O6        1.0  0.17400  0.82600  0.82000  1.0000
  O   O7        1.0  0.17400  0.34800  0.82000  1.0000
  O   O8        1.0  0.65200  0.82600  0.82000  1.0000
  Rb  Rb1       1.0  0.00000  0.00000  0.50000  1.0000
  Tb  Tb1       1.0  0.00000  0.00000  0.00000  1.0000
  V   V1        1.0  0.66700  0.33300  0.26000  1.0000
  V   V2        1.0  0.33300  0.66700  0.74000  1.0000
