data_image0
_chemical_formula_structural       K2O6Pd4
_chemical_formula_sum              "K2 O6 Pd4"
_cell_length_a       6.14601
_cell_length_b       6.14601
_cell_length_c       7.04727
_cell_angle_alpha    64.1475
_cell_angle_beta     115.853
_cell_angle_gamma    120

_space_group_name_H-M_alt    "P 1"
_space_group_IT_number       1

loop_
  _space_group_symop_operation_xyz
  'x, y, z'

loop_
  _atom_site_type_symbol
  _atom_site_label
  _atom_site_symmetry_multiplicity
  _atom_site_fract_x
  _atom_site_fract_y
  _atom_site_fract_z
  _atom_site_occupancy
  K   K1        1.0  0.83000  0.17000  0.49100  1.0000
  K   K2        1.0  0.17000  0.83000  0.50900  1.0000
  O   O1        1.0  0.39000  0.11100  0.16900  1.0000
  O   O2        1.0  0.88900  0.11100  0.16900  1.0000
  O   O3        1.0  0.88900  0.61000  0.16900  1.0000
  O   O4        1.0  0.11100  0.39000  0.83100  1.0000
  O   O5        1.0  0.11100  0.88900  0.83100  1.0000
  O   O6        1.0  0.61000  0.88900  0.83100  1.0000
  Pd  Pd1       1.0  0.00000  0.00000  0.00000  1.0000
  Pd  Pd2       1.0  0.50000  0.00000  0.00000  1.0000
  Pd  Pd3       1.0  0.00000  0.50000  0.00000  1.0000
  Pd  Pd4       1.0  0.50000  0.50000  0.00000  1.0000
