data_image0
_chemical_formula_structural       Ba2Cu2Gd2Se6
_chemical_formula_sum              "Ba2 Cu2 Gd2 Se6"
_cell_length_a       4.1982
_cell_length_b       7.34906
_cell_length_c       10.7526
_cell_angle_alpha    90
_cell_angle_beta     90
_cell_angle_gamma    73.4036

_space_group_name_H-M_alt    "P 1"
_space_group_IT_number       1

loop_
  _space_group_symop_operation_xyz
  'x, y, z'

loop_
  _atom_site_type_symbol
  _atom_site_label
  _atom_site_symmetry_multiplicity
  _atom_site_fract_x
  _atom_site_fract_y
  _atom_site_fract_z
  _atom_site_occupancy
  Ba  Ba1       1.0  0.74700  0.50600  0.25000  1.0000
  Ba  Ba2       1.0  0.25300  0.49400  0.75000  1.0000
  Cu  Cu1       1.0  0.46700  0.06510  0.25000  1.0000
  Cu  Cu2       1.0  0.53300  0.93500  0.75000  1.0000
  Gd  Gd1       1.0  0.00000  0.00000  0.00000  1.0000
  Gd  Gd2       1.0  0.00000  0.00000  0.50000  1.0000
  Se  Se1       1.0  0.36500  0.27000  0.06310  1.0000
  Se  Se2       1.0  0.06880  0.86200  0.25000  1.0000
  Se  Se3       1.0  0.36500  0.27000  0.43700  1.0000
  Se  Se4       1.0  0.63500  0.73000  0.56300  1.0000
  Se  Se5       1.0  0.93100  0.13800  0.75000  1.0000
  Se  Se6       1.0  0.63500  0.73000  0.93700  1.0000
