data_image0
_chemical_formula_structural       Al2B2BaO7
_chemical_formula_sum              "Al2 B2 Ba1 O7"
_cell_length_a       5.01927
_cell_length_b       5.01926
_cell_length_c       8.5959
_cell_angle_alpha    73.0248
_cell_angle_beta     106.975
_cell_angle_gamma    120

_space_group_name_H-M_alt    "P 1"
_space_group_IT_number       1

loop_
  _space_group_symop_operation_xyz
  'x, y, z'

loop_
  _atom_site_type_symbol
  _atom_site_label
  _atom_site_symmetry_multiplicity
  _atom_site_fract_x
  _atom_site_fract_y
  _atom_site_fract_z
  _atom_site_occupancy
  Al  Al1       1.0  0.43100  0.56900  0.29300  1.0000
  Al  Al2       1.0  0.56900  0.43100  0.70700  1.0000
  B   B1        1.0  0.73700  0.26300  0.21000  1.0000
  B   B2        1.0  0.26300  0.73700  0.79000  1.0000
  Ba  Ba1       1.0  0.00000  0.00000  0.00000  1.0000
  O   O1        1.0  0.03970  0.35400  0.20100  1.0000
  O   O2        1.0  0.51500  0.96000  0.20100  1.0000
  O   O3        1.0  0.64600  0.48500  0.20100  1.0000
  O   O4        1.0  0.50000  0.50000  0.50000  1.0000
  O   O5        1.0  0.35400  0.03970  0.79900  1.0000
  O   O6        1.0  0.48500  0.64600  0.79900  1.0000
  O   O7        1.0  0.96000  0.51500  0.79900  1.0000
