data_image0
_chemical_formula_structural       As4Ga2K4Na2
_chemical_formula_sum              "As4 Ga2 K4 Na2"
_cell_length_a       6.63751
_cell_length_b       6.75426
_cell_length_c       8.85709
_cell_angle_alpha    112.414
_cell_angle_beta     112.006
_cell_angle_gamma    90

_space_group_name_H-M_alt    "P 1"
_space_group_IT_number       1

loop_
  _space_group_symop_operation_xyz
  'x, y, z'

loop_
  _atom_site_type_symbol
  _atom_site_label
  _atom_site_symmetry_multiplicity
  _atom_site_fract_x
  _atom_site_fract_y
  _atom_site_fract_z
  _atom_site_occupancy
  As  As1       1.0  0.09560  0.39300  0.19100  1.0000
  As  As2       1.0  0.59600  0.79800  0.19100  1.0000
  As  As3       1.0  0.40400  0.20200  0.80900  1.0000
  As  As4       1.0  0.90400  0.60700  0.80900  1.0000
  Ga  Ga1       1.0  0.25000  0.50000  0.00000  1.0000
  Ga  Ga2       1.0  0.75000  0.50000  0.00000  1.0000
  K   K1        1.0  0.67400  0.41600  0.34700  1.0000
  K   K2        1.0  0.17400  0.93100  0.34700  1.0000
  K   K3        1.0  0.82600  0.06870  0.65300  1.0000
  K   K4        1.0  0.32600  0.58400  0.65300  1.0000
  Na  Na1       1.0  0.25000  0.00000  0.00000  1.0000
  Na  Na2       1.0  0.75000  0.00000  0.00000  1.0000
