data_image0
_chemical_formula_structural       Eu4Ge6Zn2
_chemical_formula_sum              "Eu4 Ge6 Zn2"
_cell_length_a       6.10787
_cell_length_b       6.10787
_cell_length_c       8.48741
_cell_angle_alpha    110.375
_cell_angle_beta     110.375
_cell_angle_gamma    91.8574

_space_group_name_H-M_alt    "P 1"
_space_group_IT_number       1

loop_
  _space_group_symop_operation_xyz
  'x, y, z'

loop_
  _atom_site_type_symbol
  _atom_site_label
  _atom_site_symmetry_multiplicity
  _atom_site_fract_x
  _atom_site_fract_y
  _atom_site_fract_z
  _atom_site_occupancy
  Eu  Eu1       1.0  0.75900  0.24100  0.00000  1.0000
  Eu  Eu2       1.0  0.24100  0.75900  0.00000  1.0000
  Eu  Eu3       1.0  0.75000  0.25000  0.50000  1.0000
  Eu  Eu4       1.0  0.25000  0.75000  0.50000  1.0000
  Ge  Ge1       1.0  0.33900  0.33900  0.16800  1.0000
  Ge  Ge2       1.0  0.82900  0.82900  0.16800  1.0000
  Ge  Ge3       1.0  0.16900  0.16900  0.33700  1.0000
  Ge  Ge4       1.0  0.83100  0.83100  0.66300  1.0000
  Ge  Ge5       1.0  0.17100  0.17100  0.83200  1.0000
  Ge  Ge6       1.0  0.66100  0.66100  0.83200  1.0000
  Zn  Zn1       1.0  0.66600  0.66600  0.33200  1.0000
  Zn  Zn2       1.0  0.33400  0.33400  0.66800  1.0000
