data_image0
_chemical_formula_structural       Ge4Ni4U4
_chemical_formula_sum              "Ge4 Ni4 U4"
_cell_length_a       6.946
_cell_length_b       4.26685
_cell_length_c       7.05235
_cell_angle_alpha    90
_cell_angle_beta     90
_cell_angle_gamma    90

_space_group_name_H-M_alt    "P 1"
_space_group_IT_number       1

loop_
  _space_group_symop_operation_xyz
  'x, y, z'

loop_
  _atom_site_type_symbol
  _atom_site_label
  _atom_site_symmetry_multiplicity
  _atom_site_fract_x
  _atom_site_fract_y
  _atom_site_fract_z
  _atom_site_occupancy
  Ge  Ge1       1.0  0.30900  0.75000  0.09290  1.0000
  Ge  Ge2       1.0  0.80900  0.75000  0.40700  1.0000
  Ge  Ge3       1.0  0.19100  0.25000  0.59300  1.0000
  Ge  Ge4       1.0  0.69100  0.25000  0.90700  1.0000
  Ni  Ni1       1.0  0.68700  0.75000  0.08010  1.0000
  Ni  Ni2       1.0  0.18700  0.75000  0.42000  1.0000
  Ni  Ni3       1.0  0.81300  0.25000  0.58000  1.0000
  Ni  Ni4       1.0  0.31300  0.25000  0.92000  1.0000
  U   U1        1.0  0.01810  0.25000  0.19300  1.0000
  U   U2        1.0  0.51800  0.25000  0.30700  1.0000
  U   U3        1.0  0.48200  0.75000  0.69300  1.0000
  U   U4        1.0  0.98200  0.75000  0.80700  1.0000
