data_image0
_chemical_formula_structural       La2Si10
_chemical_formula_sum              "La2 Si10"
_cell_length_a       4.04593
_cell_length_b       7.81925
_cell_length_c       8.24126
_cell_angle_alpha    108.103
_cell_angle_beta     90
_cell_angle_gamma    104.994

_space_group_name_H-M_alt    "P 1"
_space_group_IT_number       1

loop_
  _space_group_symop_operation_xyz
  'x, y, z'

loop_
  _atom_site_type_symbol
  _atom_site_label
  _atom_site_symmetry_multiplicity
  _atom_site_fract_x
  _atom_site_fract_y
  _atom_site_fract_z
  _atom_site_occupancy
  La  La1       1.0  0.56800  0.13500  0.27800  1.0000
  La  La2       1.0  0.43200  0.86500  0.72200  1.0000
  Si  Si1       1.0  0.67400  0.34800  0.00630  1.0000
  Si  Si2       1.0  0.92700  0.85300  0.02530  1.0000
  Si  Si3       1.0  0.35000  0.70000  0.29300  1.0000
  Si  Si4       1.0  0.93600  0.87200  0.37400  1.0000
  Si  Si5       1.0  0.23000  0.46000  0.41600  1.0000
  Si  Si6       1.0  0.77000  0.54000  0.58400  1.0000
  Si  Si7       1.0  0.06410  0.12800  0.62600  1.0000
  Si  Si8       1.0  0.65000  0.30000  0.70700  1.0000
  Si  Si9       1.0  0.07340  0.14700  0.97500  1.0000
  Si  Si10      1.0  0.32600  0.65200  0.99400  1.0000
