data_image0
_chemical_formula_structural       F2Hg2
_chemical_formula_sum              "F2 Hg2"
_cell_length_a       3.61485
_cell_length_b       3.61485
_cell_length_c       6.07841
_cell_angle_alpha    107.299
_cell_angle_beta     107.299
_cell_angle_gamma    90

_space_group_name_H-M_alt    "P 1"
_space_group_IT_number       1

loop_
  _space_group_symop_operation_xyz
  'x, y, z'

loop_
  _atom_site_type_symbol
  _atom_site_label
  _atom_site_symmetry_multiplicity
  _atom_site_fract_x
  _atom_site_fract_y
  _atom_site_fract_z
  _atom_site_occupancy
  F   F1        1.0  0.68600  0.68600  0.37100  1.0000
  F   F2        1.0  0.31400  0.31400  0.62900  1.0000
  Hg  Hg1       1.0  0.11600  0.11600  0.23100  1.0000
  Hg  Hg2       1.0  0.88400  0.88400  0.76900  1.0000
