data_image0
_chemical_formula_structural       Ge2Rb4S6
_chemical_formula_sum              "Ge2 Rb4 S6"
_cell_length_a       6.98535
_cell_length_b       7.68207
_cell_length_c       8.77853
_cell_angle_alpha    93.7313
_cell_angle_beta     113.445
_cell_angle_gamma    62.9574

_space_group_name_H-M_alt    "P 1"
_space_group_IT_number       1

loop_
  _space_group_symop_operation_xyz
  'x, y, z'

loop_
  _atom_site_type_symbol
  _atom_site_label
  _atom_site_symmetry_multiplicity
  _atom_site_fract_x
  _atom_site_fract_y
  _atom_site_fract_z
  _atom_site_occupancy
  Ge  Ge1       1.0  0.56500  0.05440  0.18400  1.0000
  Ge  Ge2       1.0  0.43500  0.94600  0.81600  1.0000
  Rb  Rb1       1.0  0.87700  0.43200  0.18600  1.0000
  Rb  Rb2       1.0  0.28300  0.79900  0.36500  1.0000
  Rb  Rb3       1.0  0.71700  0.20100  0.63500  1.0000
  Rb  Rb4       1.0  0.12300  0.56800  0.81400  1.0000
  S   S1        1.0  0.25700  0.00000  0.00000  1.0000
  S   S2        1.0  0.74300  0.00000  0.00000  1.0000
  S   S3        1.0  0.43000  0.36400  0.22400  1.0000
  S   S4        1.0  0.78800  0.82500  0.40200  1.0000
  S   S5        1.0  0.21200  0.17500  0.59800  1.0000
  S   S6        1.0  0.57000  0.63600  0.77600  1.0000
