data_image0
_chemical_formula_structural       Cs2Mn2Se6Sm2
_chemical_formula_sum              "Cs2 Mn2 Se6 Sm2"
_cell_length_a       4.27468
_cell_length_b       8.29515
_cell_length_c       11.2772
_cell_angle_alpha    90
_cell_angle_beta     90
_cell_angle_gamma    75.0687

_space_group_name_H-M_alt    "P 1"
_space_group_IT_number       1

loop_
  _space_group_symop_operation_xyz
  'x, y, z'

loop_
  _atom_site_type_symbol
  _atom_site_label
  _atom_site_symmetry_multiplicity
  _atom_site_fract_x
  _atom_site_fract_y
  _atom_site_fract_z
  _atom_site_occupancy
  Cs  Cs1       1.0  0.74000  0.51900  0.25000  1.0000
  Cs  Cs2       1.0  0.26000  0.48100  0.75000  1.0000
  Mn  Mn1       1.0  0.46000  0.07950  0.25000  1.0000
  Mn  Mn2       1.0  0.54000  0.92000  0.75000  1.0000
  Se  Se1       1.0  0.38100  0.23900  0.06140  1.0000
  Se  Se2       1.0  0.05280  0.89400  0.25000  1.0000
  Se  Se3       1.0  0.38100  0.23900  0.43900  1.0000
  Se  Se4       1.0  0.61900  0.76100  0.56100  1.0000
  Se  Se5       1.0  0.94700  0.10600  0.75000  1.0000
  Se  Se6       1.0  0.61900  0.76100  0.93900  1.0000
  Sm  Sm1       1.0  0.00000  0.00000  0.00000  1.0000
  Sm  Sm2       1.0  0.00000  0.00000  0.50000  1.0000
