data_image0
_chemical_formula_structural       Ho2P10
_chemical_formula_sum              "Ho2 P10"
_cell_length_a       4.9179
_cell_length_b       9.40028
_cell_length_c       5.33562
_cell_angle_alpha    90
_cell_angle_beta     102.565
_cell_angle_gamma    90

_space_group_name_H-M_alt    "P 1"
_space_group_IT_number       1

loop_
  _space_group_symop_operation_xyz
  'x, y, z'

loop_
  _atom_site_type_symbol
  _atom_site_label
  _atom_site_symmetry_multiplicity
  _atom_site_fract_x
  _atom_site_fract_y
  _atom_site_fract_z
  _atom_site_occupancy
  Ho  Ho1       1.0  0.00636  0.25000  0.35000  1.0000
  Ho  Ho2       1.0  0.99400  0.75000  0.65000  1.0000
  P   P1        1.0  0.38200  0.59300  0.04210  1.0000
  P   P2        1.0  0.38200  0.90700  0.04210  1.0000
  P   P3        1.0  0.72600  0.75000  0.10500  1.0000
  P   P4        1.0  0.28400  0.52900  0.40400  1.0000
  P   P5        1.0  0.28400  0.97100  0.40400  1.0000
  P   P6        1.0  0.71600  0.02940  0.59600  1.0000
  P   P7        1.0  0.71600  0.47100  0.59600  1.0000
  P   P8        1.0  0.27400  0.25000  0.89500  1.0000
  P   P9        1.0  0.61800  0.09260  0.95800  1.0000
  P   P10       1.0  0.61800  0.40700  0.95800  1.0000
