data_image0
_chemical_formula_structural       Ni2Sm2
_chemical_formula_sum              "Ni2 Sm2"
_cell_length_a       3.75509
_cell_length_b       4.30051
_cell_length_c       5.52275
_cell_angle_alpha    90
_cell_angle_beta     70.1252
_cell_angle_gamma    90

_space_group_name_H-M_alt    "P 1"
_space_group_IT_number       1

loop_
  _space_group_symop_operation_xyz
  'x, y, z'

loop_
  _atom_site_type_symbol
  _atom_site_label
  _atom_site_symmetry_multiplicity
  _atom_site_fract_x
  _atom_site_fract_y
  _atom_site_fract_z
  _atom_site_occupancy
  Ni  Ni1       1.0  0.42500  0.75000  0.14900  1.0000
  Ni  Ni2       1.0  0.57500  0.25000  0.85100  1.0000
  Sm  Sm1       1.0  0.86100  0.25000  0.27700  1.0000
  Sm  Sm2       1.0  0.13900  0.75000  0.72300  1.0000
