data_image0
_chemical_formula_structural       Ni4Sb4Zr4
_chemical_formula_sum              "Ni4 Sb4 Zr4"
_cell_length_a       6.76186
_cell_length_b       4.20033
_cell_length_c       7.60586
_cell_angle_alpha    90
_cell_angle_beta     90
_cell_angle_gamma    90

_space_group_name_H-M_alt    "P 1"
_space_group_IT_number       1

loop_
  _space_group_symop_operation_xyz
  'x, y, z'

loop_
  _atom_site_type_symbol
  _atom_site_label
  _atom_site_symmetry_multiplicity
  _atom_site_fract_x
  _atom_site_fract_y
  _atom_site_fract_z
  _atom_site_occupancy
  Ni  Ni1       1.0  0.67700  0.25000  0.08400  1.0000
  Ni  Ni2       1.0  0.17700  0.25000  0.41600  1.0000
  Ni  Ni3       1.0  0.82300  0.75000  0.58400  1.0000
  Ni  Ni4       1.0  0.32300  0.75000  0.91600  1.0000
  Sb  Sb1       1.0  0.28800  0.25000  0.09430  1.0000
  Sb  Sb2       1.0  0.78800  0.25000  0.40600  1.0000
  Sb  Sb3       1.0  0.21200  0.75000  0.59400  1.0000
  Sb  Sb4       1.0  0.71200  0.75000  0.90600  1.0000
  Zr  Zr1       1.0  0.99800  0.75000  0.19700  1.0000
  Zr  Zr2       1.0  0.49800  0.75000  0.30300  1.0000
  Zr  Zr3       1.0  0.50200  0.25000  0.69700  1.0000
  Zr  Zr4       1.0  0.00207  0.25000  0.80300  1.0000
