data_image0
_chemical_formula_structural       P10Sm2
_chemical_formula_sum              "P10 Sm2"
_cell_length_a       4.99269
_cell_length_b       9.5258
_cell_length_c       5.41915
_cell_angle_alpha    90
_cell_angle_beta     102.323
_cell_angle_gamma    90

_space_group_name_H-M_alt    "P 1"
_space_group_IT_number       1

loop_
  _space_group_symop_operation_xyz
  'x, y, z'

loop_
  _atom_site_type_symbol
  _atom_site_label
  _atom_site_symmetry_multiplicity
  _atom_site_fract_x
  _atom_site_fract_y
  _atom_site_fract_z
  _atom_site_occupancy
  P   P1        1.0  0.38300  0.59100  0.04520  1.0000
  P   P2        1.0  0.38300  0.90900  0.04520  1.0000
  P   P3        1.0  0.71700  0.75000  0.10100  1.0000
  P   P4        1.0  0.28900  0.53000  0.40300  1.0000
  P   P5        1.0  0.28900  0.97000  0.40300  1.0000
  P   P6        1.0  0.71100  0.03020  0.59700  1.0000
  P   P7        1.0  0.71100  0.47000  0.59700  1.0000
  P   P8        1.0  0.28300  0.25000  0.89900  1.0000
  P   P9        1.0  0.61700  0.09140  0.95500  1.0000
  P   P10       1.0  0.61700  0.40900  0.95500  1.0000
  Sm  Sm1       1.0  0.00886  0.25000  0.34900  1.0000
  Sm  Sm2       1.0  0.99100  0.75000  0.65100  1.0000
