data_image0
_chemical_formula_structural       B12O2
_chemical_formula_sum              "B12 O2"
_cell_length_a       5.13807
_cell_length_b       5.13807
_cell_length_c       5.13807
_cell_angle_alpha    63.1931
_cell_angle_beta     116.807
_cell_angle_gamma    116.807

_space_group_name_H-M_alt    "P 1"
_space_group_IT_number       1

loop_
  _space_group_symop_operation_xyz
  'x, y, z'

loop_
  _atom_site_type_symbol
  _atom_site_label
  _atom_site_symmetry_multiplicity
  _atom_site_fract_x
  _atom_site_fract_y
  _atom_site_fract_z
  _atom_site_occupancy
  B   B1        1.0  0.99800  0.33300  0.00244  1.0000
  B   B2        1.0  0.66700  0.00244  0.00244  1.0000
  B   B3        1.0  0.79900  0.67600  0.20100  1.0000
  B   B4        1.0  0.32400  0.20100  0.20100  1.0000
  B   B5        1.0  0.20100  0.79900  0.32400  1.0000
  B   B6        1.0  0.99800  0.00244  0.33300  1.0000
  B   B7        1.0  0.00244  0.99800  0.66700  1.0000
  B   B8        1.0  0.79900  0.20100  0.67600  1.0000
  B   B9        1.0  0.67600  0.79900  0.79900  1.0000
  B   B10       1.0  0.20100  0.32400  0.79900  1.0000
  B   B11       1.0  0.00244  0.66700  0.99800  1.0000
  B   B12       1.0  0.33300  0.99800  0.99800  1.0000
  O   O1        1.0  0.62200  0.37800  0.37800  1.0000
  O   O2        1.0  0.37800  0.62200  0.62200  1.0000
