data_image0
_chemical_formula_structural       Ag2Rb2S6U2
_chemical_formula_sum              "Ag2 Rb2 S6 U2"
_cell_length_a       4.1064
_cell_length_b       7.64452
_cell_length_c       10.4938
_cell_angle_alpha    90
_cell_angle_beta     90
_cell_angle_gamma    74.4199

_space_group_name_H-M_alt    "P 1"
_space_group_IT_number       1

loop_
  _space_group_symop_operation_xyz
  'x, y, z'

loop_
  _atom_site_type_symbol
  _atom_site_label
  _atom_site_symmetry_multiplicity
  _atom_site_fract_x
  _atom_site_fract_y
  _atom_site_fract_z
  _atom_site_occupancy
  Ag  Ag1       1.0  0.45400  0.09190  0.25000  1.0000
  Ag  Ag2       1.0  0.54600  0.90800  0.75000  1.0000
  Rb  Rb1       1.0  0.74000  0.52000  0.25000  1.0000
  Rb  Rb2       1.0  0.26000  0.48000  0.75000  1.0000
  S   S1        1.0  0.38000  0.24000  0.03750  1.0000
  S   S2        1.0  0.05840  0.88300  0.25000  1.0000
  S   S3        1.0  0.38000  0.24000  0.46300  1.0000
  S   S4        1.0  0.62000  0.76000  0.53700  1.0000
  S   S5        1.0  0.94200  0.11700  0.75000  1.0000
  S   S6        1.0  0.62000  0.76000  0.96300  1.0000
  U   U1        1.0  0.00000  0.00000  0.00000  1.0000
  U   U2        1.0  0.00000  0.00000  0.50000  1.0000
