data_image0
_chemical_formula_structural       C8Er4Fe2
_chemical_formula_sum              "C8 Er4 Fe2"
_cell_length_a       4.98714
_cell_length_b       6.51453
_cell_length_c       6.51453
_cell_angle_alpha    69.7527
_cell_angle_beta     112.505
_cell_angle_gamma    112.505

_space_group_name_H-M_alt    "P 1"
_space_group_IT_number       1

loop_
  _space_group_symop_operation_xyz
  'x, y, z'

loop_
  _atom_site_type_symbol
  _atom_site_label
  _atom_site_symmetry_multiplicity
  _atom_site_fract_x
  _atom_site_fract_y
  _atom_site_fract_z
  _atom_site_occupancy
  C   C1        1.0  0.42200  0.75600  0.08850  1.0000
  C   C2        1.0  0.37100  0.53200  0.21000  1.0000
  C   C3        1.0  0.07800  0.91100  0.24400  1.0000
  C   C4        1.0  0.12900  0.79000  0.46800  1.0000
  C   C5        1.0  0.87100  0.21000  0.53200  1.0000
  C   C6        1.0  0.92200  0.08850  0.75600  1.0000
  C   C7        1.0  0.62900  0.46800  0.79000  1.0000
  C   C8        1.0  0.57800  0.24400  0.91100  1.0000
  Er  Er1       1.0  0.85500  0.51000  0.19900  1.0000
  Er  Er2       1.0  0.64500  0.80100  0.49000  1.0000
  Er  Er3       1.0  0.35500  0.19900  0.51000  1.0000
  Er  Er4       1.0  0.14500  0.49000  0.80100  1.0000
  Fe  Fe1       1.0  0.25000  0.00000  0.00000  1.0000
  Fe  Fe2       1.0  0.75000  0.00000  0.00000  1.0000
