data_image0
_chemical_formula_structural       Ca8In4N2
_chemical_formula_sum              "Ca8 In4 N2"
_cell_length_a       4.94768
_cell_length_b       4.94768
_cell_length_c       15.0491
_cell_angle_alpha    99.4615
_cell_angle_beta     99.4615
_cell_angle_gamma    90

_space_group_name_H-M_alt    "P 1"
_space_group_IT_number       1

loop_
  _space_group_symop_operation_xyz
  'x, y, z'

loop_
  _atom_site_type_symbol
  _atom_site_label
  _atom_site_symmetry_multiplicity
  _atom_site_fract_x
  _atom_site_fract_y
  _atom_site_fract_z
  _atom_site_occupancy
  Ca  Ca1       1.0  0.04390  0.79400  0.08770  1.0000
  Ca  Ca2       1.0  0.12400  0.37400  0.24900  1.0000
  Ca  Ca3       1.0  0.62600  0.87600  0.25100  1.0000
  Ca  Ca4       1.0  0.20600  0.95600  0.41200  1.0000
  Ca  Ca5       1.0  0.79400  0.04390  0.58800  1.0000
  Ca  Ca6       1.0  0.37400  0.12400  0.74900  1.0000
  Ca  Ca7       1.0  0.87600  0.62600  0.75100  1.0000
  Ca  Ca8       1.0  0.95600  0.20600  0.91200  1.0000
  In  In1       1.0  0.53500  0.28500  0.06910  1.0000
  In  In2       1.0  0.71500  0.46500  0.43100  1.0000
  In  In3       1.0  0.28500  0.53500  0.56900  1.0000
  In  In4       1.0  0.46500  0.71500  0.93100  1.0000
  N   N1        1.0  0.12500  0.87500  0.25000  1.0000
  N   N2        1.0  0.87500  0.12500  0.75000  1.0000
