data_image0
_chemical_formula_structural       Ca2Cu8P4
_chemical_formula_sum              "Ca2 Cu8 P4"
_cell_length_a       7.2651
_cell_length_b       7.2651
_cell_length_c       3.80425
_cell_angle_alpha    90
_cell_angle_beta     90
_cell_angle_gamma    90

_space_group_name_H-M_alt    "P 1"
_space_group_IT_number       1

loop_
  _space_group_symop_operation_xyz
  'x, y, z'

loop_
  _atom_site_type_symbol
  _atom_site_label
  _atom_site_symmetry_multiplicity
  _atom_site_fract_x
  _atom_site_fract_y
  _atom_site_fract_z
  _atom_site_occupancy
  Ca  Ca1       1.0  0.00000  0.00000  0.00000  1.0000
  Ca  Ca2       1.0  0.50000  0.50000  0.50000  1.0000
  Cu  Cu1       1.0  0.58500  0.16400  0.00000  1.0000
  Cu  Cu2       1.0  0.83600  0.41500  0.00000  1.0000
  Cu  Cu3       1.0  0.16400  0.58500  0.00000  1.0000
  Cu  Cu4       1.0  0.41500  0.83600  0.00000  1.0000
  Cu  Cu5       1.0  0.33600  0.08510  0.50000  1.0000
  Cu  Cu6       1.0  0.08510  0.33600  0.50000  1.0000
  Cu  Cu7       1.0  0.91500  0.66400  0.50000  1.0000
  Cu  Cu8       1.0  0.66400  0.91500  0.50000  1.0000
  P   P1        1.0  0.28100  0.28100  0.00000  1.0000
  P   P2        1.0  0.71900  0.71900  0.00000  1.0000
  P   P3        1.0  0.78100  0.21900  0.50000  1.0000
  P   P4        1.0  0.21900  0.78100  0.50000  1.0000
