data_image0
_chemical_formula_structural       Ag4Cl8Pd2
_chemical_formula_sum              "Ag4 Cl8 Pd2"
_cell_length_a       6.51409
_cell_length_b       6.51409
_cell_length_c       8.15874
_cell_angle_alpha    90
_cell_angle_beta     90
_cell_angle_gamma    77.6897

_space_group_name_H-M_alt    "P 1"
_space_group_IT_number       1

loop_
  _space_group_symop_operation_xyz
  'x, y, z'

loop_
  _atom_site_type_symbol
  _atom_site_label
  _atom_site_symmetry_multiplicity
  _atom_site_fract_x
  _atom_site_fract_y
  _atom_site_fract_z
  _atom_site_occupancy
  Ag  Ag1       1.0  0.02470  0.47500  0.25000  1.0000
  Ag  Ag2       1.0  0.52500  0.97500  0.25000  1.0000
  Ag  Ag3       1.0  0.47500  0.02470  0.75000  1.0000
  Ag  Ag4       1.0  0.97500  0.52500  0.75000  1.0000
  Cl  Cl1       1.0  0.22900  0.22900  0.00000  1.0000
  Cl  Cl2       1.0  0.77100  0.77100  0.00000  1.0000
  Cl  Cl3       1.0  0.19200  0.80800  0.21100  1.0000
  Cl  Cl4       1.0  0.69200  0.30800  0.28900  1.0000
  Cl  Cl5       1.0  0.27100  0.27100  0.50000  1.0000
  Cl  Cl6       1.0  0.72900  0.72900  0.50000  1.0000
  Cl  Cl7       1.0  0.30800  0.69200  0.71100  1.0000
  Cl  Cl8       1.0  0.80800  0.19200  0.78900  1.0000
  Pd  Pd1       1.0  0.00000  0.00000  0.00000  1.0000
  Pd  Pd2       1.0  0.50000  0.50000  0.50000  1.0000
