data_image0
_chemical_formula_structural       Lu2Si2
_chemical_formula_sum              "Lu2 Si2"
_cell_length_a       3.75977
_cell_length_b       4.17044
_cell_length_c       5.5509
_cell_angle_alpha    67.9352
_cell_angle_beta     90
_cell_angle_gamma    90

_space_group_name_H-M_alt    "P 1"
_space_group_IT_number       1

loop_
  _space_group_symop_operation_xyz
  'x, y, z'

loop_
  _atom_site_type_symbol
  _atom_site_label
  _atom_site_symmetry_multiplicity
  _atom_site_fract_x
  _atom_site_fract_y
  _atom_site_fract_z
  _atom_site_occupancy
  Lu  Lu1       1.0  0.25000  0.85900  0.28200  1.0000
  Lu  Lu2       1.0  0.75000  0.14100  0.71800  1.0000
  Si  Si1       1.0  0.75000  0.42100  0.15700  1.0000
  Si  Si2       1.0  0.25000  0.57900  0.84300  1.0000
