data_image0
_chemical_formula_structural       Cu2F2Nb2O6
_chemical_formula_sum              "Cu2 F2 Nb2 O6"
_cell_length_a       7.25519
_cell_length_b       6.59916
_cell_length_c       3.7596
_cell_angle_alpha    87.359
_cell_angle_beta     85.6396
_cell_angle_gamma    124.065

_space_group_name_H-M_alt    "P 1"
_space_group_IT_number       1

loop_
  _space_group_symop_operation_xyz
  'x, y, z'

loop_
  _atom_site_type_symbol
  _atom_site_label
  _atom_site_symmetry_multiplicity
  _atom_site_fract_x
  _atom_site_fract_y
  _atom_site_fract_z
  _atom_site_occupancy
  Cu  Cu1       1.0  0.64400  0.45500  0.28400  1.0000
  Cu  Cu2       1.0  0.35600  0.54500  0.71600  1.0000
  F   F1        1.0  0.15400  0.39900  0.17900  1.0000
  F   F2        1.0  0.84600  0.60100  0.82100  1.0000
  Nb  Nb1       1.0  0.83300  0.05780  0.26300  1.0000
  Nb  Nb2       1.0  0.16700  0.94200  0.73700  1.0000
  O   O1        1.0  0.07850  0.93100  0.25000  1.0000
  O   O2        1.0  0.68400  0.20100  0.27700  1.0000
  O   O3        1.0  0.59700  0.71200  0.31000  1.0000
  O   O4        1.0  0.40300  0.28800  0.69000  1.0000
  O   O5        1.0  0.31600  0.79900  0.72300  1.0000
  O   O6        1.0  0.92200  0.06890  0.75000  1.0000
