data_image0
_chemical_formula_structural       Cr4Cu2O8
_chemical_formula_sum              "Cr4 Cu2 O8"
_cell_length_a       5.79627
_cell_length_b       5.79627
_cell_length_c       5.79627
_cell_angle_alpha    116.857
_cell_angle_beta     95.5363
_cell_angle_gamma    116.857

_space_group_name_H-M_alt    "P 1"
_space_group_IT_number       1

loop_
  _space_group_symop_operation_xyz
  'x, y, z'

loop_
  _atom_site_type_symbol
  _atom_site_label
  _atom_site_symmetry_multiplicity
  _atom_site_fract_x
  _atom_site_fract_y
  _atom_site_fract_z
  _atom_site_occupancy
  Cr  Cr1       1.0  0.12500  0.74900  0.37400  1.0000
  Cr  Cr2       1.0  0.62600  0.75100  0.37500  1.0000
  Cr  Cr3       1.0  0.62500  0.25100  0.37600  1.0000
  Cr  Cr4       1.0  0.62400  0.24900  0.87500  1.0000
  Cu  Cu1       1.0  0.00000  0.00000  0.00000  1.0000
  Cu  Cu2       1.0  0.25000  0.50000  0.75000  1.0000
  O   O1        1.0  0.83500  0.71500  0.11900  1.0000
  O   O2        1.0  0.40500  0.28500  0.12100  1.0000
  O   O3        1.0  0.37100  0.78500  0.15500  1.0000
  O   O4        1.0  0.87900  0.28400  0.16500  1.0000
  O   O5        1.0  0.36900  0.21500  0.58500  1.0000
  O   O6        1.0  0.88100  0.71600  0.59500  1.0000
  O   O7        1.0  0.41500  0.78400  0.62900  1.0000
  O   O8        1.0  0.84500  0.21600  0.63100  1.0000
