data_image0
_chemical_formula_structural       Ba2Cu4P8
_chemical_formula_sum              "Ba2 Cu4 P8"
_cell_length_a       5.45609
_cell_length_b       5.80373
_cell_length_c       9.88698
_cell_angle_alpha    97.4521
_cell_angle_beta     73.983
_cell_angle_gamma    118.038

_space_group_name_H-M_alt    "P 1"
_space_group_IT_number       1

loop_
  _space_group_symop_operation_xyz
  'x, y, z'

loop_
  _atom_site_type_symbol
  _atom_site_label
  _atom_site_symmetry_multiplicity
  _atom_site_fract_x
  _atom_site_fract_y
  _atom_site_fract_z
  _atom_site_occupancy
  Ba  Ba1       1.0  0.87500  0.25000  0.25000  1.0000
  Ba  Ba2       1.0  0.12500  0.75000  0.75000  1.0000
  Cu  Cu1       1.0  0.49600  0.25000  0.00783  1.0000
  Cu  Cu2       1.0  0.25400  0.25000  0.49200  1.0000
  Cu  Cu3       1.0  0.74600  0.75000  0.50800  1.0000
  Cu  Cu4       1.0  0.50400  0.75000  0.99200  1.0000
  P   P1        1.0  0.68800  0.63200  0.14100  1.0000
  P   P2        1.0  0.17000  0.86800  0.14100  1.0000
  P   P3        1.0  0.44400  0.63200  0.35900  1.0000
  P   P4        1.0  0.19800  0.86800  0.35900  1.0000
  P   P5        1.0  0.80200  0.13200  0.64100  1.0000
  P   P6        1.0  0.55600  0.36800  0.64100  1.0000
  P   P7        1.0  0.83000  0.13200  0.85900  1.0000
  P   P8        1.0  0.31200  0.36800  0.85900  1.0000
