data_image0
_chemical_formula_structural       Al4O8Pb2
_chemical_formula_sum              "Al4 O8 Pb2"
_cell_length_a       5.2451
_cell_length_b       8.4361
_cell_length_c       5.0782
_cell_angle_alpha    89.9989
_cell_angle_beta     118.978
_cell_angle_gamma    90.0068

_space_group_name_H-M_alt    "P 1"
_space_group_IT_number       1

loop_
  _space_group_symop_operation_xyz
  'x, y, z'

loop_
  _atom_site_type_symbol
  _atom_site_label
  _atom_site_symmetry_multiplicity
  _atom_site_fract_x
  _atom_site_fract_y
  _atom_site_fract_z
  _atom_site_occupancy
  Al  Al1       1.0  0.65400  0.94600  0.29500  1.0000
  Al  Al2       1.0  0.65600  0.55400  0.29600  1.0000
  Al  Al3       1.0  0.34500  0.05390  0.64000  1.0000
  Al  Al4       1.0  0.34600  0.44500  0.64100  1.0000
  O   O1        1.0  0.37400  0.05500  0.00072  1.0000
  O   O2        1.0  0.37600  0.44400  0.00187  1.0000
  O   O3        1.0  0.62000  0.75000  0.15700  1.0000
  O   O4        1.0  0.99900  0.00009  0.35100  1.0000
  O   O5        1.0  0.00137  0.50000  0.35200  1.0000
  O   O6        1.0  0.38100  0.25000  0.53700  1.0000
  O   O7        1.0  0.62400  0.94400  0.62600  1.0000
  O   O8        1.0  0.62600  0.55500  0.62700  1.0000
  Pb  Pb1       1.0  0.04570  0.25000  0.02390  1.0000
  Pb  Pb2       1.0  0.95500  0.75000  0.97800  1.0000
