data_image0
_chemical_formula_structural       Br10Pr4
_chemical_formula_sum              "Br10 Pr4"
_cell_length_a       7.85425
_cell_length_b       4.18553
_cell_length_c       13.4012
_cell_angle_alpha    90
_cell_angle_beta     90.9538
_cell_angle_gamma    90

_space_group_name_H-M_alt    "P 1"
_space_group_IT_number       1

loop_
  _space_group_symop_operation_xyz
  'x, y, z'

loop_
  _atom_site_type_symbol
  _atom_site_label
  _atom_site_symmetry_multiplicity
  _atom_site_fract_x
  _atom_site_fract_y
  _atom_site_fract_z
  _atom_site_occupancy
  Br  Br1       1.0  0.15200  0.75000  0.06920  1.0000
  Br  Br2       1.0  0.65200  0.75000  0.12100  1.0000
  Br  Br3       1.0  0.33200  0.25000  0.27200  1.0000
  Br  Br4       1.0  0.95600  0.75000  0.32300  1.0000
  Br  Br5       1.0  0.69300  0.25000  0.48900  1.0000
  Br  Br6       1.0  0.30700  0.75000  0.51100  1.0000
  Br  Br7       1.0  0.04350  0.25000  0.67700  1.0000
  Br  Br8       1.0  0.66800  0.75000  0.72800  1.0000
  Br  Br9       1.0  0.34800  0.25000  0.87900  1.0000
  Br  Br10      1.0  0.84800  0.25000  0.93100  1.0000
  Pr  Pr1       1.0  0.92500  0.25000  0.16100  1.0000
  Pr  Pr2       1.0  0.57600  0.75000  0.34100  1.0000
  Pr  Pr3       1.0  0.42400  0.25000  0.65900  1.0000
  Pr  Pr4       1.0  0.07470  0.75000  0.83900  1.0000
