data_image0
_chemical_formula_structural       B2Na4O6Rb2
_chemical_formula_sum              "B2 Na4 O6 Rb2"
_cell_length_a       6.07816
_cell_length_b       5.65767
_cell_length_c       5.52785
_cell_angle_alpha    90
_cell_angle_beta     90
_cell_angle_gamma    90

_space_group_name_H-M_alt    "P 1"
_space_group_IT_number       1

loop_
  _space_group_symop_operation_xyz
  'x, y, z'

loop_
  _atom_site_type_symbol
  _atom_site_label
  _atom_site_symmetry_multiplicity
  _atom_site_fract_x
  _atom_site_fract_y
  _atom_site_fract_z
  _atom_site_occupancy
  B   B1        1.0  0.75000  0.25000  0.21400  1.0000
  B   B2        1.0  0.25000  0.75000  0.78600  1.0000
  Na  Na1       1.0  0.01830  0.75000  0.36400  1.0000
  Na  Na2       1.0  0.48200  0.75000  0.36400  1.0000
  Na  Na3       1.0  0.51800  0.25000  0.63600  1.0000
  Na  Na4       1.0  0.98200  0.25000  0.63600  1.0000
  O   O1        1.0  0.25000  0.75000  0.03670  1.0000
  O   O2        1.0  0.75000  0.03850  0.34600  1.0000
  O   O3        1.0  0.75000  0.46200  0.34600  1.0000
  O   O4        1.0  0.25000  0.53800  0.65400  1.0000
  O   O5        1.0  0.25000  0.96200  0.65400  1.0000
  O   O6        1.0  0.75000  0.25000  0.96300  1.0000
  Rb  Rb1       1.0  0.25000  0.25000  0.11300  1.0000
  Rb  Rb2       1.0  0.75000  0.75000  0.88700  1.0000
