data_image0
_chemical_formula_structural       Ag2K2Np2S6
_chemical_formula_sum              "Ag2 K2 Np2 S6"
_cell_length_a       4.09059
_cell_length_b       7.34549
_cell_length_c       10.4036
_cell_angle_alpha    90
_cell_angle_beta     90
_cell_angle_gamma    73.8327

_space_group_name_H-M_alt    "P 1"
_space_group_IT_number       1

loop_
  _space_group_symop_operation_xyz
  'x, y, z'

loop_
  _atom_site_type_symbol
  _atom_site_label
  _atom_site_symmetry_multiplicity
  _atom_site_fract_x
  _atom_site_fract_y
  _atom_site_fract_z
  _atom_site_occupancy
  Ag  Ag1       1.0  0.45300  0.09380  0.25000  1.0000
  Ag  Ag2       1.0  0.54700  0.90600  0.75000  1.0000
  K   K1        1.0  0.73900  0.52100  0.25000  1.0000
  K   K2        1.0  0.26100  0.47900  0.75000  1.0000
  Np  Np1       1.0  0.00000  0.00000  0.00000  1.0000
  Np  Np2       1.0  0.00000  0.00000  0.50000  1.0000
  S   S1        1.0  0.37500  0.24900  0.03730  1.0000
  S   S2        1.0  0.06200  0.87600  0.25000  1.0000
  S   S3        1.0  0.37500  0.24900  0.46300  1.0000
  S   S4        1.0  0.62500  0.75100  0.53700  1.0000
  S   S5        1.0  0.93800  0.12400  0.75000  1.0000
  S   S6        1.0  0.62500  0.75100  0.96300  1.0000
