data_image0
_chemical_formula_structural       B2Cs2Na4O6
_chemical_formula_sum              "B2 Cs2 Na4 O6"
_cell_length_a       6.20797
_cell_length_b       5.7745
_cell_length_c       5.58201
_cell_angle_alpha    90
_cell_angle_beta     90
_cell_angle_gamma    90

_space_group_name_H-M_alt    "P 1"
_space_group_IT_number       1

loop_
  _space_group_symop_operation_xyz
  'x, y, z'

loop_
  _atom_site_type_symbol
  _atom_site_label
  _atom_site_symmetry_multiplicity
  _atom_site_fract_x
  _atom_site_fract_y
  _atom_site_fract_z
  _atom_site_occupancy
  B   B1        1.0  0.75000  0.25000  0.21900  1.0000
  B   B2        1.0  0.25000  0.75000  0.78100  1.0000
  Cs  Cs1       1.0  0.25000  0.25000  0.13100  1.0000
  Cs  Cs2       1.0  0.75000  0.75000  0.86900  1.0000
  Na  Na1       1.0  0.01800  0.75000  0.35900  1.0000
  Na  Na2       1.0  0.48200  0.75000  0.35900  1.0000
  Na  Na3       1.0  0.51800  0.25000  0.64100  1.0000
  Na  Na4       1.0  0.98200  0.25000  0.64100  1.0000
  O   O1        1.0  0.25000  0.75000  0.02990  1.0000
  O   O2        1.0  0.75000  0.04230  0.35000  1.0000
  O   O3        1.0  0.75000  0.45800  0.35000  1.0000
  O   O4        1.0  0.25000  0.54200  0.65000  1.0000
  O   O5        1.0  0.25000  0.95800  0.65000  1.0000
  O   O6        1.0  0.75000  0.25000  0.97000  1.0000
