data_image0
_chemical_formula_structural       Al12Tc2
_chemical_formula_sum              "Al12 Tc2"
_cell_length_a       5.04503
_cell_length_b       5.04503
_cell_length_c       9.03007
_cell_angle_alpha    90
_cell_angle_beta     90
_cell_angle_gamma    81.7561

_space_group_name_H-M_alt    "P 1"
_space_group_IT_number       1

loop_
  _space_group_symop_operation_xyz
  'x, y, z'

loop_
  _atom_site_type_symbol
  _atom_site_label
  _atom_site_symmetry_multiplicity
  _atom_site_fract_x
  _atom_site_fract_y
  _atom_site_fract_z
  _atom_site_occupancy
  Al  Al1       1.0  0.32400  0.32400  0.00000  1.0000
  Al  Al2       1.0  0.67600  0.67600  0.00000  1.0000
  Al  Al3       1.0  0.13400  0.86600  0.10000  1.0000
  Al  Al4       1.0  0.61000  0.02830  0.25000  1.0000
  Al  Al5       1.0  0.97200  0.39000  0.25000  1.0000
  Al  Al6       1.0  0.13400  0.86600  0.40000  1.0000
  Al  Al7       1.0  0.32400  0.32400  0.50000  1.0000
  Al  Al8       1.0  0.67600  0.67600  0.50000  1.0000
  Al  Al9       1.0  0.86600  0.13400  0.60000  1.0000
  Al  Al10      1.0  0.39000  0.97200  0.75000  1.0000
  Al  Al11      1.0  0.02830  0.61000  0.75000  1.0000
  Al  Al12      1.0  0.86600  0.13400  0.90000  1.0000
  Tc  Tc1       1.0  0.45600  0.54400  0.25000  1.0000
  Tc  Tc2       1.0  0.54400  0.45600  0.75000  1.0000
