data_image0
_chemical_formula_structural       Cl8Cr2Na4
_chemical_formula_sum              "Cl8 Cr2 Na4"
_cell_length_a       3.9686
_cell_length_b       11.5346
_cell_length_c       6.93789
_cell_angle_alpha    90
_cell_angle_beta     92.6552
_cell_angle_gamma    90

_space_group_name_H-M_alt    "P 1"
_space_group_IT_number       1

loop_
  _space_group_symop_operation_xyz
  'x, y, z'

loop_
  _atom_site_type_symbol
  _atom_site_label
  _atom_site_symmetry_multiplicity
  _atom_site_fract_x
  _atom_site_fract_y
  _atom_site_fract_z
  _atom_site_occupancy
  Cl  Cl1       1.0  0.00801  0.19500  0.11500  1.0000
  Cl  Cl2       1.0  0.43400  0.95200  0.24100  1.0000
  Cl  Cl3       1.0  0.56600  0.45200  0.25900  1.0000
  Cl  Cl4       1.0  0.99200  0.69500  0.38500  1.0000
  Cl  Cl5       1.0  0.00801  0.30500  0.61500  1.0000
  Cl  Cl6       1.0  0.43400  0.54800  0.74100  1.0000
  Cl  Cl7       1.0  0.56600  0.04780  0.75900  1.0000
  Cl  Cl8       1.0  0.99200  0.80500  0.88500  1.0000
  Cr  Cr1       1.0  0.00000  0.00000  0.00000  1.0000
  Cr  Cr2       1.0  0.00000  0.50000  0.50000  1.0000
  Na  Na1       1.0  0.48400  0.68000  0.09430  1.0000
  Na  Na2       1.0  0.51600  0.18000  0.40600  1.0000
  Na  Na3       1.0  0.48400  0.82000  0.59400  1.0000
  Na  Na4       1.0  0.51600  0.32000  0.90600  1.0000
