data_image0
_chemical_formula_structural       Ag2Rb2Se6U2
_chemical_formula_sum              "Ag2 Rb2 Se6 U2"
_cell_length_a       4.25432
_cell_length_b       7.84486
_cell_length_c       10.8844
_cell_angle_alpha    90
_cell_angle_beta     90
_cell_angle_gamma    74.2671

_space_group_name_H-M_alt    "P 1"
_space_group_IT_number       1

loop_
  _space_group_symop_operation_xyz
  'x, y, z'

loop_
  _atom_site_type_symbol
  _atom_site_label
  _atom_site_symmetry_multiplicity
  _atom_site_fract_x
  _atom_site_fract_y
  _atom_site_fract_z
  _atom_site_occupancy
  Ag  Ag1       1.0  0.45800  0.08400  0.25000  1.0000
  Ag  Ag2       1.0  0.54200  0.91600  0.75000  1.0000
  Rb  Rb1       1.0  0.74600  0.50800  0.25000  1.0000
  Rb  Rb2       1.0  0.25400  0.49200  0.75000  1.0000
  Se  Se1       1.0  0.37500  0.24900  0.03990  1.0000
  Se  Se2       1.0  0.06470  0.87100  0.25000  1.0000
  Se  Se3       1.0  0.37500  0.24900  0.46000  1.0000
  Se  Se4       1.0  0.62500  0.75100  0.54000  1.0000
  Se  Se5       1.0  0.93500  0.12900  0.75000  1.0000
  Se  Se6       1.0  0.62500  0.75100  0.96000  1.0000
  U   U1        1.0  0.00000  0.00000  0.00000  1.0000
  U   U2        1.0  0.00000  0.00000  0.50000  1.0000
