data_image0
_chemical_formula_structural       C4Hg2O8
_chemical_formula_sum              "C4 Hg2 O8"
_cell_length_a       5.05809
_cell_length_b       5.23672
_cell_length_c       6.28507
_cell_angle_alpha    90
_cell_angle_beta     108.1
_cell_angle_gamma    90

_space_group_name_H-M_alt    "P 1"
_space_group_IT_number       1

loop_
  _space_group_symop_operation_xyz
  'x, y, z'

loop_
  _atom_site_type_symbol
  _atom_site_label
  _atom_site_symmetry_multiplicity
  _atom_site_fract_x
  _atom_site_fract_y
  _atom_site_fract_z
  _atom_site_occupancy
  C   C1        1.0  0.05140  0.85900  0.22000  1.0000
  C   C2        1.0  0.94700  0.60200  0.28100  1.0000
  C   C3        1.0  0.05290  0.10200  0.71900  1.0000
  C   C4        1.0  0.94900  0.35900  0.78000  1.0000
  Hg  Hg1       1.0  0.49900  0.23000  0.24900  1.0000
  Hg  Hg2       1.0  0.50100  0.73000  0.75100  1.0000
  O   O1        1.0  0.10800  0.50500  0.91600  1.0000
  O   O2        1.0  0.89200  0.00542  0.08360  1.0000
  O   O3        1.0  0.68600  0.56600  0.17800  1.0000
  O   O4        1.0  0.31200  0.89600  0.32400  1.0000
  O   O5        1.0  0.10700  0.45400  0.41500  1.0000
  O   O6        1.0  0.89300  0.95400  0.58500  1.0000
  O   O7        1.0  0.68800  0.39600  0.67600  1.0000
  O   O8        1.0  0.31400  0.06620  0.82200  1.0000
