data_image0
_chemical_formula_structural       Cs2Cu2Np2S6
_chemical_formula_sum              "Cs2 Cu2 Np2 S6"
_cell_length_a       3.99139
_cell_length_b       7.91963
_cell_length_c       10.2432
_cell_angle_alpha    90
_cell_angle_beta     90
_cell_angle_gamma    75.4045

_space_group_name_H-M_alt    "P 1"
_space_group_IT_number       1

loop_
  _space_group_symop_operation_xyz
  'x, y, z'

loop_
  _atom_site_type_symbol
  _atom_site_label
  _atom_site_symmetry_multiplicity
  _atom_site_fract_x
  _atom_site_fract_y
  _atom_site_fract_z
  _atom_site_occupancy
  Cs  Cs1       1.0  0.74100  0.51900  0.25000  1.0000
  Cs  Cs2       1.0  0.25900  0.48100  0.75000  1.0000
  Cu  Cu1       1.0  0.46600  0.06890  0.25000  1.0000
  Cu  Cu2       1.0  0.53400  0.93100  0.75000  1.0000
  Np  Np1       1.0  0.00000  0.00000  0.00000  1.0000
  Np  Np2       1.0  0.00000  0.00000  0.50000  1.0000
  S   S1        1.0  0.38800  0.22500  0.05730  1.0000
  S   S2        1.0  0.05130  0.89700  0.25000  1.0000
  S   S3        1.0  0.38800  0.22500  0.44300  1.0000
  S   S4        1.0  0.61200  0.77500  0.55700  1.0000
  S   S5        1.0  0.94900  0.10300  0.75000  1.0000
  S   S6        1.0  0.61200  0.77500  0.94300  1.0000
