data_image0
_chemical_formula_structural       C8Fe2Tm4
_chemical_formula_sum              "C8 Fe2 Tm4"
_cell_length_a       4.96391
_cell_length_b       6.48351
_cell_length_c       6.48351
_cell_angle_alpha    92.7508
_cell_angle_beta     112.508
_cell_angle_gamma    112.508

_space_group_name_H-M_alt    "P 1"
_space_group_IT_number       1

loop_
  _space_group_symop_operation_xyz
  'x, y, z'

loop_
  _atom_site_type_symbol
  _atom_site_label
  _atom_site_symmetry_multiplicity
  _atom_site_fract_x
  _atom_site_fract_y
  _atom_site_fract_z
  _atom_site_occupancy
  C   C1        1.0  0.16700  0.24500  0.08840  1.0000
  C   C2        1.0  0.34000  0.47000  0.21000  1.0000
  C   C3        1.0  0.66700  0.08840  0.24500  1.0000
  C   C4        1.0  0.84000  0.21000  0.47000  1.0000
  C   C5        1.0  0.16000  0.79000  0.53000  1.0000
  C   C6        1.0  0.33300  0.91200  0.75500  1.0000
  C   C7        1.0  0.66000  0.53000  0.79000  1.0000
  C   C8        1.0  0.83300  0.75500  0.91200  1.0000
  Fe  Fe1       1.0  0.25000  0.00000  0.00000  1.0000
  Fe  Fe2       1.0  0.75000  0.00000  0.00000  1.0000
  Tm  Tm1       1.0  0.84500  0.49000  0.20000  1.0000
  Tm  Tm2       1.0  0.34500  0.20000  0.49000  1.0000
  Tm  Tm3       1.0  0.65500  0.80000  0.51000  1.0000
  Tm  Tm4       1.0  0.15500  0.51000  0.80000  1.0000
