data_image0
_chemical_formula_structural       Cu2F4O6W2
_chemical_formula_sum              "Cu2 F4 O6 W2"
_cell_length_a       5.19582
_cell_length_b       9.48866
_cell_length_c       3.67266
_cell_angle_alpha    90
_cell_angle_beta     106.691
_cell_angle_gamma    90

_space_group_name_H-M_alt    "P 1"
_space_group_IT_number       1

loop_
  _space_group_symop_operation_xyz
  'x, y, z'

loop_
  _atom_site_type_symbol
  _atom_site_label
  _atom_site_symmetry_multiplicity
  _atom_site_fract_x
  _atom_site_fract_y
  _atom_site_fract_z
  _atom_site_occupancy
  Cu  Cu1       1.0  0.50000  0.00000  0.00000  1.0000
  Cu  Cu2       1.0  0.50000  0.50000  0.00000  1.0000
  F   F1        1.0  0.36800  0.11000  0.36200  1.0000
  F   F2        1.0  0.36800  0.39000  0.36200  1.0000
  F   F3        1.0  0.63200  0.61000  0.63800  1.0000
  F   F4        1.0  0.63200  0.89000  0.63800  1.0000
  O   O1        1.0  0.81400  0.10600  0.13000  1.0000
  O   O2        1.0  0.81400  0.39400  0.13000  1.0000
  O   O3        1.0  0.87200  0.75000  0.24200  1.0000
  O   O4        1.0  0.12800  0.25000  0.75800  1.0000
  O   O5        1.0  0.18600  0.60600  0.87000  1.0000
  O   O6        1.0  0.18600  0.89400  0.87000  1.0000
  W   W1        1.0  0.03820  0.25000  0.22300  1.0000
  W   W2        1.0  0.96200  0.75000  0.77700  1.0000
