data_image0
_chemical_formula_structural       Cu2Np2Rb2S6
_chemical_formula_sum              "Cu2 Np2 Rb2 S6"
_cell_length_a       3.97686
_cell_length_b       7.54108
_cell_length_c       10.2374
_cell_angle_alpha    90
_cell_angle_beta     90
_cell_angle_gamma    74.7115

_space_group_name_H-M_alt    "P 1"
_space_group_IT_number       1

loop_
  _space_group_symop_operation_xyz
  'x, y, z'

loop_
  _atom_site_type_symbol
  _atom_site_label
  _atom_site_symmetry_multiplicity
  _atom_site_fract_x
  _atom_site_fract_y
  _atom_site_fract_z
  _atom_site_occupancy
  Cu  Cu1       1.0  0.46500  0.06970  0.25000  1.0000
  Cu  Cu2       1.0  0.53500  0.93000  0.75000  1.0000
  Np  Np1       1.0  0.00000  0.00000  0.00000  1.0000
  Np  Np2       1.0  0.00000  0.00000  0.50000  1.0000
  Rb  Rb1       1.0  0.74200  0.51700  0.25000  1.0000
  Rb  Rb2       1.0  0.25800  0.48300  0.75000  1.0000
  S   S1        1.0  0.38200  0.23600  0.05880  1.0000
  S   S2        1.0  0.05560  0.88900  0.25000  1.0000
  S   S3        1.0  0.38200  0.23600  0.44100  1.0000
  S   S4        1.0  0.61800  0.76400  0.55900  1.0000
  S   S5        1.0  0.94400  0.11100  0.75000  1.0000
  S   S6        1.0  0.61800  0.76400  0.94100  1.0000
