data_image0
_chemical_formula_structural       Mo2O8Rb4
_chemical_formula_sum              "Mo2 O8 Rb4"
_cell_length_a       6.18103
_cell_length_b       7.07468
_cell_length_c       7.79067
_cell_angle_alpha    112.989
_cell_angle_beta     90
_cell_angle_gamma    115.903

_space_group_name_H-M_alt    "P 1"
_space_group_IT_number       1

loop_
  _space_group_symop_operation_xyz
  'x, y, z'

loop_
  _atom_site_type_symbol
  _atom_site_label
  _atom_site_symmetry_multiplicity
  _atom_site_fract_x
  _atom_site_fract_y
  _atom_site_fract_z
  _atom_site_occupancy
  Mo  Mo1       1.0  0.17500  0.35000  0.22100  1.0000
  Mo  Mo2       1.0  0.82500  0.65000  0.77900  1.0000
  O   O1        1.0  0.37900  0.28500  0.07480  1.0000
  O   O2        1.0  0.90600  0.28500  0.07480  1.0000
  O   O3        1.0  0.08960  0.17900  0.35300  1.0000
  O   O4        1.0  0.32900  0.65800  0.37500  1.0000
  O   O5        1.0  0.67100  0.34200  0.62500  1.0000
  O   O6        1.0  0.91000  0.82100  0.64700  1.0000
  O   O7        1.0  0.09420  0.71500  0.92500  1.0000
  O   O8        1.0  0.62100  0.71500  0.92500  1.0000
  Rb  Rb1       1.0  0.51300  0.02550  0.23900  1.0000
  Rb  Rb2       1.0  0.84500  0.69000  0.25900  1.0000
  Rb  Rb3       1.0  0.15500  0.31000  0.74100  1.0000
  Rb  Rb4       1.0  0.48700  0.97500  0.76100  1.0000
