data_image0
_chemical_formula_structural       Cr5S8Tl
_chemical_formula_sum              "Cr5 S8 Tl1"
_cell_length_a       3.4799
_cell_length_b       8.6843
_cell_length_c       9.1708
_cell_angle_alpha    105.295
_cell_angle_beta     100.937
_cell_angle_gamma    90

_space_group_name_H-M_alt    "P 1"
_space_group_IT_number       1

loop_
  _space_group_symop_operation_xyz
  'x, y, z'

loop_
  _atom_site_type_symbol
  _atom_site_label
  _atom_site_symmetry_multiplicity
  _atom_site_fract_x
  _atom_site_fract_y
  _atom_site_fract_z
  _atom_site_occupancy
  Cr  Cr1       1.0  0.50000  0.50000  0.00000  1.0000
  Cr  Cr2       1.0  0.15800  0.47000  0.31600  1.0000
  Cr  Cr3       1.0  0.20400  0.83400  0.40800  1.0000
  Cr  Cr4       1.0  0.79600  0.16600  0.59200  1.0000
  Cr  Cr5       1.0  0.84200  0.53000  0.68400  1.0000
  S   S1        1.0  0.07730  0.64700  0.15500  1.0000
  S   S2        1.0  0.58400  0.32500  0.16700  1.0000
  S   S3        1.0  0.67200  0.98600  0.34300  1.0000
  S   S4        1.0  0.73800  0.65500  0.47500  1.0000
  S   S5        1.0  0.26200  0.34500  0.52500  1.0000
  S   S6        1.0  0.32800  0.01370  0.65700  1.0000
  S   S7        1.0  0.41600  0.67500  0.83300  1.0000
  S   S8        1.0  0.92300  0.35300  0.84500  1.0000
  Tl  Tl1       1.0  0.00000  0.00000  0.00000  1.0000
