data_image0
_chemical_formula_structural       Cu2Ir4S8
_chemical_formula_sum              "Cu2 Ir4 S8"
_cell_length_a       6.99056
_cell_length_b       6.99056
_cell_length_c       7.00527
_cell_angle_alpha    119.931
_cell_angle_beta     119.931
_cell_angle_gamma    90

_space_group_name_H-M_alt    "P 1"
_space_group_IT_number       1

loop_
  _space_group_symop_operation_xyz
  'x, y, z'

loop_
  _atom_site_type_symbol
  _atom_site_label
  _atom_site_symmetry_multiplicity
  _atom_site_fract_x
  _atom_site_fract_y
  _atom_site_fract_z
  _atom_site_occupancy
  Cu  Cu1       1.0  0.00000  0.00000  0.00000  1.0000
  Cu  Cu2       1.0  0.25000  0.75000  0.50000  1.0000
  Ir  Ir1       1.0  0.62500  0.37500  0.25000  1.0000
  Ir  Ir2       1.0  0.62500  0.87500  0.25000  1.0000
  Ir  Ir3       1.0  0.12500  0.37500  0.75000  1.0000
  Ir  Ir4       1.0  0.62500  0.37500  0.75000  1.0000
  S   S1        1.0  0.38400  0.61400  0.22800  1.0000
  S   S2        1.0  0.84400  0.61400  0.22800  1.0000
  S   S3        1.0  0.40600  0.13600  0.27200  1.0000
  S   S4        1.0  0.86600  0.13600  0.27200  1.0000
  S   S5        1.0  0.86400  0.13400  0.72800  1.0000
  S   S6        1.0  0.86400  0.59400  0.72800  1.0000
  S   S7        1.0  0.38600  0.15600  0.77200  1.0000
  S   S8        1.0  0.38600  0.61600  0.77200  1.0000
