data_image0
_chemical_formula_structural       C8Er4Mn2
_chemical_formula_sum              "C8 Er4 Mn2"
_cell_length_a       4.99709
_cell_length_b       6.52899
_cell_length_c       6.52899
_cell_angle_alpha    70.6667
_cell_angle_beta     112.5
_cell_angle_gamma    112.5

_space_group_name_H-M_alt    "P 1"
_space_group_IT_number       1

loop_
  _space_group_symop_operation_xyz
  'x, y, z'

loop_
  _atom_site_type_symbol
  _atom_site_label
  _atom_site_symmetry_multiplicity
  _atom_site_fract_x
  _atom_site_fract_y
  _atom_site_fract_z
  _atom_site_occupancy
  C   C1        1.0  0.42100  0.74900  0.09340  1.0000
  C   C2        1.0  0.37100  0.52800  0.21500  1.0000
  C   C3        1.0  0.07890  0.90700  0.25100  1.0000
  C   C4        1.0  0.12900  0.78500  0.47200  1.0000
  C   C5        1.0  0.87100  0.21500  0.52800  1.0000
  C   C6        1.0  0.92100  0.09340  0.74900  1.0000
  C   C7        1.0  0.62900  0.47200  0.78500  1.0000
  C   C8        1.0  0.57900  0.25100  0.90700  1.0000
  Er  Er1       1.0  0.85400  0.50800  0.20000  1.0000
  Er  Er2       1.0  0.64600  0.80000  0.49200  1.0000
  Er  Er3       1.0  0.35400  0.20000  0.50800  1.0000
  Er  Er4       1.0  0.14600  0.49200  0.80000  1.0000
  Mn  Mn1       1.0  0.25000  0.00000  0.00000  1.0000
  Mn  Mn2       1.0  0.75000  0.00000  0.00000  1.0000
