data_image0
_chemical_formula_structural       C2Cu2F2K2O6
_chemical_formula_sum              "C2 Cu2 F2 K2 O6"
_cell_length_a       3.93559
_cell_length_b       4.99749
_cell_length_c       8.92499
_cell_angle_alpha    90
_cell_angle_beta     90
_cell_angle_gamma    90

_space_group_name_H-M_alt    "P 1"
_space_group_IT_number       1

loop_
  _space_group_symop_operation_xyz
  'x, y, z'

loop_
  _atom_site_type_symbol
  _atom_site_label
  _atom_site_symmetry_multiplicity
  _atom_site_fract_x
  _atom_site_fract_y
  _atom_site_fract_z
  _atom_site_occupancy
  C   C1        1.0  0.00000  0.78300  0.41300  1.0000
  C   C2        1.0  0.00000  0.21700  0.91300  1.0000
  Cu  Cu1       1.0  0.00000  0.21200  0.23300  1.0000
  Cu  Cu2       1.0  0.00000  0.78800  0.73300  1.0000
  F   F1        1.0  0.50000  0.19500  0.22900  1.0000
  F   F2        1.0  0.50000  0.80500  0.72900  1.0000
  K   K1        1.0  0.50000  0.71200  0.07730  1.0000
  K   K2        1.0  0.50000  0.28800  0.57700  1.0000
  O   O1        1.0  0.00000  0.35900  0.03500  1.0000
  O   O2        1.0  0.00000  0.67000  0.28600  1.0000
  O   O3        1.0  0.00000  0.04370  0.42600  1.0000
  O   O4        1.0  0.00000  0.64100  0.53500  1.0000
  O   O5        1.0  0.00000  0.33000  0.78600  1.0000
  O   O6        1.0  0.00000  0.95600  0.92600  1.0000
