data_image0
_chemical_formula_structural       Cr4O8Si2
_chemical_formula_sum              "Cr4 O8 Si2"
_cell_length_a       5.60475
_cell_length_b       5.60475
_cell_length_c       6.32868
_cell_angle_alpha    103.319
_cell_angle_beta     103.319
_cell_angle_gamma    118.668

_space_group_name_H-M_alt    "P 1"
_space_group_IT_number       1

loop_
  _space_group_symop_operation_xyz
  'x, y, z'

loop_
  _atom_site_type_symbol
  _atom_site_label
  _atom_site_symmetry_multiplicity
  _atom_site_fract_x
  _atom_site_fract_y
  _atom_site_fract_z
  _atom_site_occupancy
  Cr  Cr1       1.0  0.03500  0.46500  0.25000  1.0000
  Cr  Cr2       1.0  0.71500  0.78500  0.25000  1.0000
  Cr  Cr3       1.0  0.28500  0.21500  0.75000  1.0000
  Cr  Cr4       1.0  0.96500  0.53500  0.75000  1.0000
  O   O1        1.0  0.35800  0.32000  0.09730  1.0000
  O   O2        1.0  0.24000  0.77700  0.09730  1.0000
  O   O3        1.0  0.18000  0.14200  0.40300  1.0000
  O   O4        1.0  0.72300  0.26000  0.40300  1.0000
  O   O5        1.0  0.27700  0.74000  0.59700  1.0000
  O   O6        1.0  0.82000  0.85800  0.59700  1.0000
  O   O7        1.0  0.76000  0.22300  0.90300  1.0000
  O   O8        1.0  0.64200  0.68000  0.90300  1.0000
  Si  Si1       1.0  0.37500  0.12500  0.25000  1.0000
  Si  Si2       1.0  0.62500  0.87500  0.75000  1.0000
