data_image0
_chemical_formula_structural       P4Pt10
_chemical_formula_sum              "P4 Pt10"
_cell_length_a       5.45241
_cell_length_b       6.11107
_cell_length_c       7.52693
_cell_angle_alpha    98.4376
_cell_angle_beta     90
_cell_angle_gamma    116.494

_space_group_name_H-M_alt    "P 1"
_space_group_IT_number       1

loop_
  _space_group_symop_operation_xyz
  'x, y, z'

loop_
  _atom_site_type_symbol
  _atom_site_label
  _atom_site_symmetry_multiplicity
  _atom_site_fract_x
  _atom_site_fract_y
  _atom_site_fract_z
  _atom_site_occupancy
  P   P1        1.0  0.24800  0.68200  0.22600  1.0000
  P   P2        1.0  0.56500  0.31800  0.27400  1.0000
  P   P3        1.0  0.43500  0.68200  0.72600  1.0000
  P   P4        1.0  0.75200  0.31800  0.77400  1.0000
  Pt  Pt1       1.0  0.60700  0.76300  0.03310  1.0000
  Pt  Pt2       1.0  0.92000  0.28900  0.09460  1.0000
  Pt  Pt3       1.0  0.11200  0.00000  0.25000  1.0000
  Pt  Pt4       1.0  0.63100  0.71100  0.40500  1.0000
  Pt  Pt5       1.0  0.84400  0.23700  0.46700  1.0000
  Pt  Pt6       1.0  0.15600  0.76300  0.53300  1.0000
  Pt  Pt7       1.0  0.36900  0.28900  0.59500  1.0000
  Pt  Pt8       1.0  0.88800  0.00000  0.75000  1.0000
  Pt  Pt9       1.0  0.07990  0.71100  0.90500  1.0000
  Pt  Pt10      1.0  0.39300  0.23700  0.96700  1.0000
