data_image0
_chemical_formula_structural       K8P6
_chemical_formula_sum              "K8 P6"
_cell_length_a       5.0104
_cell_length_b       6.21441
_cell_length_c       14.9498
_cell_angle_alpha    90
_cell_angle_beta     90
_cell_angle_gamma    66.2262

_space_group_name_H-M_alt    "P 1"
_space_group_IT_number       1

loop_
  _space_group_symop_operation_xyz
  'x, y, z'

loop_
  _atom_site_type_symbol
  _atom_site_label
  _atom_site_symmetry_multiplicity
  _atom_site_fract_x
  _atom_site_fract_y
  _atom_site_fract_z
  _atom_site_occupancy
  K   K1        1.0  0.50000  0.00000  0.00000  1.0000
  K   K2        1.0  0.19300  0.61400  0.11100  1.0000
  K   K3        1.0  0.48000  0.03900  0.25000  1.0000
  K   K4        1.0  0.19300  0.61400  0.38900  1.0000
  K   K5        1.0  0.50000  0.00000  0.50000  1.0000
  K   K6        1.0  0.80700  0.38600  0.61100  1.0000
  K   K7        1.0  0.52000  0.96100  0.75000  1.0000
  K   K8        1.0  0.80700  0.38600  0.88900  1.0000
  P   P1        1.0  0.88500  0.23000  0.12400  1.0000
  P   P2        1.0  0.78500  0.42900  0.25000  1.0000
  P   P3        1.0  0.88500  0.23000  0.37600  1.0000
  P   P4        1.0  0.11500  0.77000  0.62400  1.0000
  P   P5        1.0  0.21500  0.57100  0.75000  1.0000
  P   P6        1.0  0.11500  0.77000  0.87600  1.0000
