data_image0
_chemical_formula_structural       In2Rb6S6
_chemical_formula_sum              "In2 Rb6 S6"
_cell_length_a       7.99206
_cell_length_b       8.22007
_cell_length_c       8.22007
_cell_angle_alpha    113.309
_cell_angle_beta     96.2405
_cell_angle_gamma    96.2405

_space_group_name_H-M_alt    "P 1"
_space_group_IT_number       1

loop_
  _space_group_symop_operation_xyz
  'x, y, z'

loop_
  _atom_site_type_symbol
  _atom_site_label
  _atom_site_symmetry_multiplicity
  _atom_site_fract_x
  _atom_site_fract_y
  _atom_site_fract_z
  _atom_site_occupancy
  In  In1       1.0  0.85300  0.32500  0.32500  1.0000
  In  In2       1.0  0.14700  0.67500  0.67500  1.0000
  Rb  Rb1       1.0  0.35400  0.11200  0.11200  1.0000
  Rb  Rb2       1.0  0.00000  0.74800  0.25200  1.0000
  Rb  Rb3       1.0  0.50000  0.67900  0.32100  1.0000
  Rb  Rb4       1.0  0.50000  0.32100  0.67900  1.0000
  Rb  Rb5       1.0  0.00000  0.25200  0.74800  1.0000
  Rb  Rb6       1.0  0.64600  0.88800  0.88800  1.0000
  S   S1        1.0  0.72600  0.34600  0.05080  1.0000
  S   S2        1.0  0.72600  0.05080  0.34600  1.0000
  S   S3        1.0  0.17800  0.39900  0.39900  1.0000
  S   S4        1.0  0.82200  0.60100  0.60100  1.0000
  S   S5        1.0  0.27400  0.94900  0.65400  1.0000
  S   S6        1.0  0.27400  0.65400  0.94900  1.0000
