data_image0
_chemical_formula_structural       Cl8NSc5
_chemical_formula_sum              "Cl8 N1 Sc5"
_cell_length_a       3.5096
_cell_length_b       9.23035
_cell_length_c       9.58571
_cell_angle_alpha    95.863
_cell_angle_beta     100.548
_cell_angle_gamma    100.959

_space_group_name_H-M_alt    "P 1"
_space_group_IT_number       1

loop_
  _space_group_symop_operation_xyz
  'x, y, z'

loop_
  _atom_site_type_symbol
  _atom_site_label
  _atom_site_symmetry_multiplicity
  _atom_site_fract_x
  _atom_site_fract_y
  _atom_site_fract_z
  _atom_site_occupancy
  Cl  Cl1       1.0  0.47300  0.84200  0.10300  1.0000
  Cl  Cl2       1.0  0.83600  0.50500  0.16800  1.0000
  Cl  Cl3       1.0  0.20900  0.18100  0.23800  1.0000
  Cl  Cl4       1.0  0.13400  0.83100  0.43800  1.0000
  Cl  Cl5       1.0  0.86600  0.16900  0.56200  1.0000
  Cl  Cl6       1.0  0.79100  0.81900  0.76200  1.0000
  Cl  Cl7       1.0  0.16400  0.49500  0.83200  1.0000
  Cl  Cl8       1.0  0.52700  0.15800  0.89700  1.0000
  N   N1        1.0  0.50000  0.50000  0.50000  1.0000
  Sc  Sc1       1.0  0.00000  0.00000  0.00000  1.0000
  Sc  Sc2       1.0  0.48800  0.64300  0.33300  1.0000
  Sc  Sc3       1.0  0.87800  0.36600  0.38900  1.0000
  Sc  Sc4       1.0  0.12200  0.63400  0.61100  1.0000
  Sc  Sc5       1.0  0.51200  0.35700  0.66700  1.0000
