data_image0
_chemical_formula_structural       Cd2Cs2Se6Sm2
_chemical_formula_sum              "Cd2 Cs2 Se6 Sm2"
_cell_length_a       4.34445
_cell_length_b       8.34366
_cell_length_c       11.329
_cell_angle_alpha    90
_cell_angle_beta     90
_cell_angle_gamma    74.9095

_space_group_name_H-M_alt    "P 1"
_space_group_IT_number       1

loop_
  _space_group_symop_operation_xyz
  'x, y, z'

loop_
  _atom_site_type_symbol
  _atom_site_label
  _atom_site_symmetry_multiplicity
  _atom_site_fract_x
  _atom_site_fract_y
  _atom_site_fract_z
  _atom_site_occupancy
  Cd  Cd1       1.0  0.54100  0.91900  0.25000  1.0000
  Cd  Cd2       1.0  0.45900  0.08120  0.75000  1.0000
  Cs  Cs1       1.0  0.25700  0.48700  0.25000  1.0000
  Cs  Cs2       1.0  0.74300  0.51300  0.75000  1.0000
  Se  Se1       1.0  0.62100  0.75800  0.04830  1.0000
  Se  Se2       1.0  0.93900  0.12200  0.25000  1.0000
  Se  Se3       1.0  0.62100  0.75800  0.45200  1.0000
  Se  Se4       1.0  0.37900  0.24200  0.54800  1.0000
  Se  Se5       1.0  0.06090  0.87800  0.75000  1.0000
  Se  Se6       1.0  0.37900  0.24200  0.95200  1.0000
  Sm  Sm1       1.0  0.00000  0.00000  0.00000  1.0000
  Sm  Sm2       1.0  0.00000  0.00000  0.50000  1.0000
