data_image0
_chemical_formula_structural       Ca6Cr2N6
_chemical_formula_sum              "Ca6 Cr2 N6"
_cell_length_a       5.03098
_cell_length_b       6.59415
_cell_length_c       6.59415
_cell_angle_alpha    79.3314
_cell_angle_beta     90
_cell_angle_gamma    90

_space_group_name_H-M_alt    "P 1"
_space_group_IT_number       1

loop_
  _space_group_symop_operation_xyz
  'x, y, z'

loop_
  _atom_site_type_symbol
  _atom_site_label
  _atom_site_symmetry_multiplicity
  _atom_site_fract_x
  _atom_site_fract_y
  _atom_site_fract_z
  _atom_site_occupancy
  Ca  Ca1       1.0  0.25000  0.11000  0.11000  1.0000
  Ca  Ca2       1.0  0.25000  0.59600  0.17000  1.0000
  Ca  Ca3       1.0  0.75000  0.83000  0.40400  1.0000
  Ca  Ca4       1.0  0.25000  0.17000  0.59600  1.0000
  Ca  Ca5       1.0  0.75000  0.40400  0.83000  1.0000
  Ca  Ca6       1.0  0.75000  0.89000  0.89000  1.0000
  Cr  Cr1       1.0  0.75000  0.30300  0.30300  1.0000
  Cr  Cr2       1.0  0.25000  0.69700  0.69700  1.0000
  N   N1        1.0  0.75000  0.12600  0.12600  1.0000
  N   N2        1.0  0.75000  0.56600  0.18000  1.0000
  N   N3        1.0  0.25000  0.82000  0.43400  1.0000
  N   N4        1.0  0.75000  0.18000  0.56600  1.0000
  N   N5        1.0  0.25000  0.43400  0.82000  1.0000
  N   N6        1.0  0.25000  0.87400  0.87400  1.0000
