data_image0
_chemical_formula_structural       Ag2O8Re2
_chemical_formula_sum              "Ag2 O8 Re2"
_cell_length_a       6.92521
_cell_length_b       5.32364
_cell_length_c       5.32364
_cell_angle_alpha    90
_cell_angle_beta     112.604
_cell_angle_gamma    112.604

_space_group_name_H-M_alt    "P 1"
_space_group_IT_number       1

loop_
  _space_group_symop_operation_xyz
  'x, y, z'

loop_
  _atom_site_type_symbol
  _atom_site_label
  _atom_site_symmetry_multiplicity
  _atom_site_fract_x
  _atom_site_fract_y
  _atom_site_fract_z
  _atom_site_occupancy
  Ag  Ag1       1.0  0.25000  0.62500  0.37500  1.0000
  Ag  Ag2       1.0  0.75000  0.37500  0.62500  1.0000
  O   O1        1.0  0.92100  0.72400  0.07380  1.0000
  O   O2        1.0  0.42100  0.07380  0.19700  1.0000
  O   O3        1.0  0.57900  0.65300  0.27600  1.0000
  O   O4        1.0  0.92100  0.19700  0.34700  1.0000
  O   O5        1.0  0.07910  0.80300  0.65300  1.0000
  O   O6        1.0  0.42100  0.34700  0.72400  1.0000
  O   O7        1.0  0.57900  0.92600  0.80300  1.0000
  O   O8        1.0  0.07910  0.27600  0.92600  1.0000
  Re  Re1       1.0  0.75000  0.87500  0.12500  1.0000
  Re  Re2       1.0  0.25000  0.12500  0.87500  1.0000
