data_image0
_chemical_formula_structural       Cd2Cl8Na4
_chemical_formula_sum              "Cd2 Cl8 Na4"
_cell_length_a       7.03005
_cell_length_b       11.9494
_cell_length_c       3.94918
_cell_angle_alpha    90
_cell_angle_beta     90
_cell_angle_gamma    90

_space_group_name_H-M_alt    "P 1"
_space_group_IT_number       1

loop_
  _space_group_symop_operation_xyz
  'x, y, z'

loop_
  _atom_site_type_symbol
  _atom_site_label
  _atom_site_symmetry_multiplicity
  _atom_site_fract_x
  _atom_site_fract_y
  _atom_site_fract_z
  _atom_site_occupancy
  Cd  Cd1       1.0  0.00000  0.00000  0.00000  1.0000
  Cd  Cd2       1.0  0.50000  0.50000  0.00000  1.0000
  Cl  Cl1       1.0  0.12800  0.20500  0.00000  1.0000
  Cl  Cl2       1.0  0.62800  0.29500  0.00000  1.0000
  Cl  Cl3       1.0  0.37200  0.70500  0.00000  1.0000
  Cl  Cl4       1.0  0.87200  0.79500  0.00000  1.0000
  Cl  Cl5       1.0  0.75100  0.04410  0.50000  1.0000
  Cl  Cl6       1.0  0.25100  0.45600  0.50000  1.0000
  Cl  Cl7       1.0  0.74900  0.54400  0.50000  1.0000
  Cl  Cl8       1.0  0.24900  0.95600  0.50000  1.0000
  Na  Na1       1.0  0.41100  0.18400  0.50000  1.0000
  Na  Na2       1.0  0.91100  0.31600  0.50000  1.0000
  Na  Na3       1.0  0.08880  0.68400  0.50000  1.0000
  Na  Na4       1.0  0.58900  0.81600  0.50000  1.0000
