data_image0
_chemical_formula_structural       CsK2O8P2Sc
_chemical_formula_sum              "Cs1 K2 O8 P2 Sc1"
_cell_length_a       5.49393
_cell_length_b       5.49487
_cell_length_c       7.78122
_cell_angle_alpha    89.9999
_cell_angle_beta     90.0135
_cell_angle_gamma    120.006

_space_group_name_H-M_alt    "P 1"
_space_group_IT_number       1

loop_
  _space_group_symop_operation_xyz
  'x, y, z'

loop_
  _atom_site_type_symbol
  _atom_site_label
  _atom_site_symmetry_multiplicity
  _atom_site_fract_x
  _atom_site_fract_y
  _atom_site_fract_z
  _atom_site_occupancy
  Cs  Cs1       1.0  0.00000  1.00000  0.50000  1.0000
  K   K1        1.0  0.33300  0.66700  0.24000  1.0000
  K   K2        1.0  0.66700  0.33300  0.76000  1.0000
  O   O1        1.0  0.82000  0.64000  0.15400  1.0000
  O   O2        1.0  0.82000  0.18000  0.15400  1.0000
  O   O3        1.0  0.36000  0.18000  0.15400  1.0000
  O   O4        1.0  0.66700  0.33300  0.42100  1.0000
  O   O5        1.0  0.33300  0.66700  0.57900  1.0000
  O   O6        1.0  0.64000  0.82000  0.84600  1.0000
  O   O7        1.0  0.18000  0.82000  0.84600  1.0000
  O   O8        1.0  0.18000  0.36000  0.84600  1.0000
  P   P1        1.0  0.66600  0.33300  0.22500  1.0000
  P   P2        1.0  0.33400  0.66700  0.77500  1.0000
  Sc  Sc1       1.0  0.00000  0.00000  0.00000  1.0000
