data_image0
_chemical_formula_structural       Ca4Cl2Fe2O6
_chemical_formula_sum              "Ca4 Cl2 Fe2 O6"
_cell_length_a       3.84975
_cell_length_b       3.84975
_cell_length_c       13.4764
_cell_angle_alpha    90
_cell_angle_beta     90
_cell_angle_gamma    90

_space_group_name_H-M_alt    "P 1"
_space_group_IT_number       1

loop_
  _space_group_symop_operation_xyz
  'x, y, z'

loop_
  _atom_site_type_symbol
  _atom_site_label
  _atom_site_symmetry_multiplicity
  _atom_site_fract_x
  _atom_site_fract_y
  _atom_site_fract_z
  _atom_site_occupancy
  Ca  Ca1       1.0  0.25000  0.25000  0.09580  1.0000
  Ca  Ca2       1.0  0.25000  0.25000  0.34400  1.0000
  Ca  Ca3       1.0  0.75000  0.75000  0.65600  1.0000
  Ca  Ca4       1.0  0.75000  0.75000  0.90400  1.0000
  Cl  Cl1       1.0  0.75000  0.75000  0.42600  1.0000
  Cl  Cl2       1.0  0.25000  0.25000  0.57400  1.0000
  Fe  Fe1       1.0  0.75000  0.75000  0.20900  1.0000
  Fe  Fe2       1.0  0.25000  0.25000  0.79100  1.0000
  O   O1        1.0  0.75000  0.75000  0.06900  1.0000
  O   O2        1.0  0.75000  0.25000  0.23400  1.0000
  O   O3        1.0  0.25000  0.75000  0.23400  1.0000
  O   O4        1.0  0.75000  0.25000  0.76600  1.0000
  O   O5        1.0  0.25000  0.75000  0.76600  1.0000
  O   O6        1.0  0.25000  0.25000  0.93100  1.0000
