data_image0
_chemical_formula_structural       Rb2Te12
_chemical_formula_sum              "Rb2 Te12"
_cell_length_a       7.11752
_cell_length_b       7.11752
_cell_length_c       12.3411
_cell_angle_alpha    93.7582
_cell_angle_beta     104.18
_cell_angle_gamma    117.491

_space_group_name_H-M_alt    "P 1"
_space_group_IT_number       1

loop_
  _space_group_symop_operation_xyz
  'x, y, z'

loop_
  _atom_site_type_symbol
  _atom_site_label
  _atom_site_symmetry_multiplicity
  _atom_site_fract_x
  _atom_site_fract_y
  _atom_site_fract_z
  _atom_site_occupancy
  Rb  Rb1       1.0  0.62800  0.37800  0.25000  1.0000
  Rb  Rb2       1.0  0.37200  0.62200  0.75000  1.0000
  Te  Te1       1.0  0.68400  0.77900  0.05630  1.0000
  Te  Te2       1.0  0.96200  0.23900  0.08980  1.0000
  Te  Te3       1.0  0.35100  0.76700  0.14800  1.0000
  Te  Te4       1.0  0.11900  0.20200  0.35200  1.0000
  Te  Te5       1.0  0.64900  0.87200  0.41000  1.0000
  Te  Te6       1.0  0.22300  0.62800  0.44400  1.0000
  Te  Te7       1.0  0.77700  0.37200  0.55600  1.0000
  Te  Te8       1.0  0.35100  0.12800  0.59000  1.0000
  Te  Te9       1.0  0.88100  0.79800  0.64800  1.0000
  Te  Te10      1.0  0.64900  0.23300  0.85200  1.0000
  Te  Te11      1.0  0.03830  0.76100  0.91000  1.0000
  Te  Te12      1.0  0.31600  0.22100  0.94400  1.0000
