data_image0
_chemical_formula_structural       Ce4Cl6N2
_chemical_formula_sum              "Ce4 Cl6 N2"
_cell_length_a       6.22244
_cell_length_b       6.93851
_cell_length_c       8.32647
_cell_angle_alpha    114.624
_cell_angle_beta     111.941
_cell_angle_gamma    90

_space_group_name_H-M_alt    "P 1"
_space_group_IT_number       1

loop_
  _space_group_symop_operation_xyz
  'x, y, z'

loop_
  _atom_site_type_symbol
  _atom_site_label
  _atom_site_symmetry_multiplicity
  _atom_site_fract_x
  _atom_site_fract_y
  _atom_site_fract_z
  _atom_site_occupancy
  Ce  Ce1       1.0  0.59400  0.27100  0.18800  1.0000
  Ce  Ce2       1.0  0.09390  0.91600  0.18800  1.0000
  Ce  Ce3       1.0  0.90600  0.08360  0.81200  1.0000
  Ce  Ce4       1.0  0.40600  0.72900  0.81200  1.0000
  Cl  Cl1       1.0  0.25000  0.50000  0.00000  1.0000
  Cl  Cl2       1.0  0.75000  0.50000  0.00000  1.0000
  Cl  Cl3       1.0  0.70000  0.01590  0.39900  1.0000
  Cl  Cl4       1.0  0.20000  0.38300  0.39900  1.0000
  Cl  Cl5       1.0  0.80000  0.61700  0.60100  1.0000
  Cl  Cl6       1.0  0.30000  0.98400  0.60100  1.0000
  N   N1        1.0  0.25000  0.00000  0.00000  1.0000
  N   N2        1.0  0.75000  0.00000  0.00000  1.0000
