data_image0
_chemical_formula_structural       Ag5Ba2LaS6
_chemical_formula_sum              "Ag5 Ba2 La1 S6"
_cell_length_a       4.27702
_cell_length_b       7.37641
_cell_length_c       11.3113
_cell_angle_alpha    94.6929
_cell_angle_beta     90
_cell_angle_gamma    106.853

_space_group_name_H-M_alt    "P 1"
_space_group_IT_number       1

loop_
  _space_group_symop_operation_xyz
  'x, y, z'

loop_
  _atom_site_type_symbol
  _atom_site_label
  _atom_site_symmetry_multiplicity
  _atom_site_fract_x
  _atom_site_fract_y
  _atom_site_fract_z
  _atom_site_occupancy
  Ag  Ag1       1.0  0.00000  0.00000  0.00000  1.0000
  Ag  Ag2       1.0  0.35200  0.70400  0.03560  1.0000
  Ag  Ag3       1.0  0.01890  0.03770  0.25600  1.0000
  Ag  Ag4       1.0  0.98100  0.96200  0.74400  1.0000
  Ag  Ag5       1.0  0.64800  0.29600  0.96400  1.0000
  Ba  Ba1       1.0  0.74900  0.49800  0.29300  1.0000
  Ba  Ba2       1.0  0.25100  0.50200  0.70700  1.0000
  La  La1       1.0  0.50000  0.00000  0.50000  1.0000
  S   S1        1.0  0.15800  0.31500  0.10100  1.0000
  S   S2        1.0  0.41300  0.82600  0.25800  1.0000
  S   S3        1.0  0.13100  0.26300  0.44900  1.0000
  S   S4        1.0  0.86900  0.73700  0.55100  1.0000
  S   S5        1.0  0.58700  0.17400  0.74200  1.0000
  S   S6        1.0  0.84200  0.68500  0.89900  1.0000
