data_image0
_chemical_formula_structural       Al2O6Rb6
_chemical_formula_sum              "Al2 O6 Rb6"
_cell_length_a       6.75392
_cell_length_b       6.75392
_cell_length_c       6.76795
_cell_angle_alpha    97.4908
_cell_angle_beta     97.4908
_cell_angle_gamma    115.153

_space_group_name_H-M_alt    "P 1"
_space_group_IT_number       1

loop_
  _space_group_symop_operation_xyz
  'x, y, z'

loop_
  _atom_site_type_symbol
  _atom_site_label
  _atom_site_symmetry_multiplicity
  _atom_site_fract_x
  _atom_site_fract_y
  _atom_site_fract_z
  _atom_site_occupancy
  Al  Al1       1.0  0.15600  0.15600  0.14600  1.0000
  Al  Al2       1.0  0.84400  0.84400  0.85400  1.0000
  O   O1        1.0  0.89900  0.89900  0.13500  1.0000
  O   O2        1.0  0.40200  0.14600  0.26300  1.0000
  O   O3        1.0  0.14600  0.40200  0.26300  1.0000
  O   O4        1.0  0.85400  0.59800  0.73700  1.0000
  O   O5        1.0  0.59800  0.85400  0.73700  1.0000
  O   O6        1.0  0.10100  0.10100  0.86500  1.0000
  Rb  Rb1       1.0  0.73200  0.26800  0.00000  1.0000
  Rb  Rb2       1.0  0.26800  0.73200  0.00000  1.0000
  Rb  Rb3       1.0  0.63000  0.63000  0.34700  1.0000
  Rb  Rb4       1.0  0.80200  0.19800  0.50000  1.0000
  Rb  Rb5       1.0  0.19800  0.80200  0.50000  1.0000
  Rb  Rb6       1.0  0.37000  0.37000  0.65300  1.0000
