data_image0
_chemical_formula_structural       Cs2Gd2Mn2Se6
_chemical_formula_sum              "Cs2 Gd2 Mn2 Se6"
_cell_length_a       4.23933
_cell_length_b       8.30095
_cell_length_c       11.1655
_cell_angle_alpha    90
_cell_angle_beta     90
_cell_angle_gamma    75.2056

_space_group_name_H-M_alt    "P 1"
_space_group_IT_number       1

loop_
  _space_group_symop_operation_xyz
  'x, y, z'

loop_
  _atom_site_type_symbol
  _atom_site_label
  _atom_site_symmetry_multiplicity
  _atom_site_fract_x
  _atom_site_fract_y
  _atom_site_fract_z
  _atom_site_occupancy
  Cs  Cs1       1.0  0.74000  0.51900  0.25000  1.0000
  Cs  Cs2       1.0  0.26000  0.48100  0.75000  1.0000
  Gd  Gd1       1.0  0.00000  0.00000  0.00000  1.0000
  Gd  Gd2       1.0  0.00000  0.00000  0.50000  1.0000
  Mn  Mn1       1.0  0.46000  0.08000  0.25000  1.0000
  Mn  Mn2       1.0  0.54000  0.92000  0.75000  1.0000
  Se  Se1       1.0  0.38200  0.23700  0.05850  1.0000
  Se  Se2       1.0  0.05280  0.89400  0.25000  1.0000
  Se  Se3       1.0  0.38200  0.23700  0.44100  1.0000
  Se  Se4       1.0  0.61800  0.76300  0.55900  1.0000
  Se  Se5       1.0  0.94700  0.10600  0.75000  1.0000
  Se  Se6       1.0  0.61800  0.76300  0.94100  1.0000
