data_image0
_chemical_formula_structural       O10Sb2U2
_chemical_formula_sum              "O10 Sb2 U2"
_cell_length_a       6.52295
_cell_length_b       7.57919
_cell_length_c       5.48871
_cell_angle_alpha    110.093
_cell_angle_beta     126.487
_cell_angle_gamma    90.0413

_space_group_name_H-M_alt    "P 1"
_space_group_IT_number       1

loop_
  _space_group_symop_operation_xyz
  'x, y, z'

loop_
  _atom_site_type_symbol
  _atom_site_label
  _atom_site_symmetry_multiplicity
  _atom_site_fract_x
  _atom_site_fract_y
  _atom_site_fract_z
  _atom_site_occupancy
  O   O1        1.0  0.09100  0.25100  0.00480  1.0000
  O   O2        1.0  0.70700  0.46800  0.01510  1.0000
  O   O3        1.0  0.31300  0.97100  0.02540  1.0000
  O   O4        1.0  0.22200  0.12600  0.49400  1.0000
  O   O5        1.0  0.26600  0.62900  0.49400  1.0000
  O   O6        1.0  0.73400  0.37100  0.50600  1.0000
  O   O7        1.0  0.77800  0.87400  0.50600  1.0000
  O   O8        1.0  0.68700  0.02900  0.97500  1.0000
  O   O9        1.0  0.29300  0.53200  0.98500  1.0000
  O   O10       1.0  0.90900  0.74900  0.99500  1.0000
  Sb  Sb1       1.0  0.00000  0.00000  0.00000  1.0000
  Sb  Sb2       1.0  0.00000  0.50000  0.00000  1.0000
  U   U1        1.0  0.46500  0.24900  0.00000  1.0000
  U   U2        1.0  0.53500  0.75100  0.00020  1.0000
