data_image0
_chemical_formula_structural       Bi4Pd10
_chemical_formula_sum              "Bi4 Pd10"
_cell_length_a       5.85268
_cell_length_b       6.83027
_cell_length_c       7.73099
_cell_angle_alpha    114.991
_cell_angle_beta     112.242
_cell_angle_gamma    90

_space_group_name_H-M_alt    "P 1"
_space_group_IT_number       1

loop_
  _space_group_symop_operation_xyz
  'x, y, z'

loop_
  _atom_site_type_symbol
  _atom_site_label
  _atom_site_symmetry_multiplicity
  _atom_site_fract_x
  _atom_site_fract_y
  _atom_site_fract_z
  _atom_site_occupancy
  Bi  Bi1       1.0  0.59800  0.90700  0.19600  1.0000
  Bi  Bi2       1.0  0.13100  0.35600  0.26200  1.0000
  Bi  Bi3       1.0  0.86900  0.64400  0.73800  1.0000
  Bi  Bi4       1.0  0.40200  0.09320  0.80400  1.0000
  Pd  Pd1       1.0  0.25100  0.50000  0.00000  1.0000
  Pd  Pd2       1.0  0.74900  0.50000  0.00000  1.0000
  Pd  Pd3       1.0  0.09420  0.91300  0.18800  1.0000
  Pd  Pd4       1.0  0.63300  0.36000  0.26700  1.0000
  Pd  Pd5       1.0  0.47400  0.76700  0.45200  1.0000
  Pd  Pd6       1.0  0.97800  0.76700  0.45200  1.0000
  Pd  Pd7       1.0  0.02240  0.23300  0.54800  1.0000
  Pd  Pd8       1.0  0.52600  0.23300  0.54800  1.0000
  Pd  Pd9       1.0  0.36700  0.64000  0.73300  1.0000
  Pd  Pd10      1.0  0.90600  0.08730  0.81200  1.0000
