data_image0
_chemical_formula_structural       Al2F10Mn2
_chemical_formula_sum              "Al2 F10 Mn2"
_cell_length_a       3.55315
_cell_length_b       5.16828
_cell_length_c       9.37043
_cell_angle_alpha    90
_cell_angle_beta     90
_cell_angle_gamma    69.8947

_space_group_name_H-M_alt    "P 1"
_space_group_IT_number       1

loop_
  _space_group_symop_operation_xyz
  'x, y, z'

loop_
  _atom_site_type_symbol
  _atom_site_label
  _atom_site_symmetry_multiplicity
  _atom_site_fract_x
  _atom_site_fract_y
  _atom_site_fract_z
  _atom_site_occupancy
  Al  Al1       1.0  0.21700  0.59500  0.25000  1.0000
  Al  Al2       1.0  0.81200  0.40500  0.75000  1.0000
  F   F1        1.0  0.34000  0.34800  0.11200  1.0000
  F   F2        1.0  0.08070  0.86900  0.11600  1.0000
  F   F3        1.0  0.70500  0.61800  0.25000  1.0000
  F   F4        1.0  0.08070  0.86900  0.38400  1.0000
  F   F5        1.0  0.34000  0.34800  0.38800  1.0000
  F   F6        1.0  0.68800  0.65200  0.61200  1.0000
  F   F7        1.0  0.94900  0.13100  0.61600  1.0000
  F   F8        1.0  0.32300  0.38200  0.75000  1.0000
  F   F9        1.0  0.94900  0.13100  0.88400  1.0000
  F   F10       1.0  0.68800  0.65200  0.88800  1.0000
  Mn  Mn1       1.0  0.51600  0.00000  0.00000  1.0000
  Mn  Mn2       1.0  0.51600  0.00000  0.50000  1.0000
