data_image0
_chemical_formula_structural       Er3P4Pd7
_chemical_formula_sum              "Er3 P4 Pd7"
_cell_length_a       3.98678
_cell_length_b       7.90531
_cell_length_c       8.19867
_cell_angle_alpha    101.524
_cell_angle_beta     104.072
_cell_angle_gamma    104.605

_space_group_name_H-M_alt    "P 1"
_space_group_IT_number       1

loop_
  _space_group_symop_operation_xyz
  'x, y, z'

loop_
  _atom_site_type_symbol
  _atom_site_label
  _atom_site_symmetry_multiplicity
  _atom_site_fract_x
  _atom_site_fract_y
  _atom_site_fract_z
  _atom_site_occupancy
  Er  Er1       1.0  0.99700  0.81600  0.17700  1.0000
  Er  Er2       1.0  0.00000  0.50000  0.50000  1.0000
  Er  Er3       1.0  0.00324  0.18400  0.82300  1.0000
  P   P1        1.0  0.40700  0.56600  0.24800  1.0000
  P   P2        1.0  0.71400  0.10700  0.32000  1.0000
  P   P3        1.0  0.28600  0.89300  0.68000  1.0000
  P   P4        1.0  0.59300  0.43400  0.75200  1.0000
  Pd  Pd1       1.0  0.50000  0.00000  0.00000  1.0000
  Pd  Pd2       1.0  0.74500  0.41400  0.07720  1.0000
  Pd  Pd3       1.0  0.22600  0.23600  0.21500  1.0000
  Pd  Pd4       1.0  0.66500  0.85900  0.47000  1.0000
  Pd  Pd5       1.0  0.33500  0.14100  0.53000  1.0000
  Pd  Pd6       1.0  0.77400  0.76400  0.78500  1.0000
  Pd  Pd7       1.0  0.25500  0.58600  0.92300  1.0000
