data_image0
_chemical_formula_structural       Ni8P4Tb2
_chemical_formula_sum              "Ni8 P4 Tb2"
_cell_length_a       7.09873
_cell_length_b       7.09873
_cell_length_c       3.60396
_cell_angle_alpha    90
_cell_angle_beta     90
_cell_angle_gamma    90

_space_group_name_H-M_alt    "P 1"
_space_group_IT_number       1

loop_
  _space_group_symop_operation_xyz
  'x, y, z'

loop_
  _atom_site_type_symbol
  _atom_site_label
  _atom_site_symmetry_multiplicity
  _atom_site_fract_x
  _atom_site_fract_y
  _atom_site_fract_z
  _atom_site_occupancy
  Ni  Ni1       1.0  0.33700  0.08440  0.00000  1.0000
  Ni  Ni2       1.0  0.08440  0.33700  0.00000  1.0000
  Ni  Ni3       1.0  0.91600  0.66300  0.00000  1.0000
  Ni  Ni4       1.0  0.66300  0.91600  0.00000  1.0000
  Ni  Ni5       1.0  0.58400  0.16300  0.50000  1.0000
  Ni  Ni6       1.0  0.83700  0.41600  0.50000  1.0000
  Ni  Ni7       1.0  0.16300  0.58400  0.50000  1.0000
  Ni  Ni8       1.0  0.41600  0.83700  0.50000  1.0000
  P   P1        1.0  0.77900  0.22100  0.00000  1.0000
  P   P2        1.0  0.22100  0.77900  0.00000  1.0000
  P   P3        1.0  0.27900  0.27900  0.50000  1.0000
  P   P4        1.0  0.72100  0.72100  0.50000  1.0000
  Tb  Tb1       1.0  0.50000  0.50000  0.00000  1.0000
  Tb  Tb2       1.0  0.00000  0.00000  0.50000  1.0000
