data_image0
_chemical_formula_structural       C4K3N4O2Re
_chemical_formula_sum              "C4 K3 N4 O2 Re1"
_cell_length_a       7.57951
_cell_length_b       7.41744
_cell_length_c       6.26064
_cell_angle_alpha    109.752
_cell_angle_beta     105.833
_cell_angle_gamma    114.974

_space_group_name_H-M_alt    "P 1"
_space_group_IT_number       1

loop_
  _space_group_symop_operation_xyz
  'x, y, z'

loop_
  _atom_site_type_symbol
  _atom_site_label
  _atom_site_symmetry_multiplicity
  _atom_site_fract_x
  _atom_site_fract_y
  _atom_site_fract_z
  _atom_site_occupancy
  C   C1        1.0  0.70600  0.87900  0.03170  1.0000
  C   C2        1.0  0.10100  0.34800  0.20000  1.0000
  C   C3        1.0  0.89900  0.65200  0.80000  1.0000
  C   C4        1.0  0.29400  0.12100  0.96800  1.0000
  K   K1        1.0  0.83500  0.63500  0.29200  1.0000
  K   K2        1.0  0.50000  0.00000  0.50000  1.0000
  K   K3        1.0  0.16500  0.36500  0.70800  1.0000
  N   N1        1.0  0.54900  0.80200  0.05990  1.0000
  N   N2        1.0  0.15900  0.54300  0.31300  1.0000
  N   N3        1.0  0.84100  0.45700  0.68700  1.0000
  N   N4        1.0  0.45100  0.19800  0.94000  1.0000
  O   O1        1.0  0.14100  0.02720  0.30500  1.0000
  O   O2        1.0  0.85900  0.97300  0.69500  1.0000
  Re  Re1       1.0  0.00000  0.00000  0.00000  1.0000
