data_image0
_chemical_formula_structural       Rb2S2
_chemical_formula_sum              "Rb2 S2"
_cell_length_a       5.03435
_cell_length_b       6.10252
_cell_length_c       6.10252
_cell_angle_alpha    68.3803
_cell_angle_beta     114.361
_cell_angle_gamma    114.361

_space_group_name_H-M_alt    "P 1"
_space_group_IT_number       1

loop_
  _space_group_symop_operation_xyz
  'x, y, z'

loop_
  _atom_site_type_symbol
  _atom_site_label
  _atom_site_symmetry_multiplicity
  _atom_site_fract_x
  _atom_site_fract_y
  _atom_site_fract_z
  _atom_site_occupancy
  Rb  Rb1       1.0  0.72300  0.22300  0.22300  1.0000
  Rb  Rb2       1.0  0.27700  0.77700  0.77700  1.0000
  S   S1        1.0  0.00000  0.84500  0.15500  1.0000
  S   S2        1.0  0.00000  0.15500  0.84500  1.0000
