data_image0
_chemical_formula_structural       Br10La4
_chemical_formula_sum              "Br10 La4"
_cell_length_a       7.93558
_cell_length_b       4.26503
_cell_length_c       13.5199
_cell_angle_alpha    90
_cell_angle_beta     91.1401
_cell_angle_gamma    90

_space_group_name_H-M_alt    "P 1"
_space_group_IT_number       1

loop_
  _space_group_symop_operation_xyz
  'x, y, z'

loop_
  _atom_site_type_symbol
  _atom_site_label
  _atom_site_symmetry_multiplicity
  _atom_site_fract_x
  _atom_site_fract_y
  _atom_site_fract_z
  _atom_site_occupancy
  Br  Br1       1.0  0.15100  0.75000  0.06940  1.0000
  Br  Br2       1.0  0.65600  0.75000  0.12100  1.0000
  Br  Br3       1.0  0.33000  0.25000  0.27000  1.0000
  Br  Br4       1.0  0.95200  0.75000  0.32500  1.0000
  Br  Br5       1.0  0.69100  0.25000  0.48800  1.0000
  Br  Br6       1.0  0.30900  0.75000  0.51200  1.0000
  Br  Br7       1.0  0.04790  0.25000  0.67500  1.0000
  Br  Br8       1.0  0.67000  0.75000  0.73000  1.0000
  Br  Br9       1.0  0.34400  0.25000  0.87900  1.0000
  Br  Br10      1.0  0.84900  0.25000  0.93100  1.0000
  La  La1       1.0  0.92900  0.25000  0.16200  1.0000
  La  La2       1.0  0.57200  0.75000  0.34100  1.0000
  La  La3       1.0  0.42800  0.25000  0.65900  1.0000
  La  La4       1.0  0.07130  0.75000  0.83800  1.0000
