data_image0
_chemical_formula_structural       As2K2Ni2O8
_chemical_formula_sum              "As2 K2 Ni2 O8"
_cell_length_a       4.96733
_cell_length_b       4.96733
_cell_length_c       9.89712
_cell_angle_alpha    104.534
_cell_angle_beta     75.4664
_cell_angle_gamma    120

_space_group_name_H-M_alt    "P 1"
_space_group_IT_number       1

loop_
  _space_group_symop_operation_xyz
  'x, y, z'

loop_
  _atom_site_type_symbol
  _atom_site_label
  _atom_site_symmetry_multiplicity
  _atom_site_fract_x
  _atom_site_fract_y
  _atom_site_fract_z
  _atom_site_occupancy
  As  As1       1.0  0.56100  0.43900  0.31600  1.0000
  As  As2       1.0  0.43900  0.56100  0.68400  1.0000
  K   K1        1.0  0.28900  0.71100  0.13200  1.0000
  K   K2        1.0  0.71100  0.28900  0.86800  1.0000
  Ni  Ni1       1.0  0.83500  0.16500  0.49600  1.0000
  Ni  Ni2       1.0  0.16500  0.83500  0.50400  1.0000
  O   O1        1.0  0.62100  0.37900  0.13800  1.0000
  O   O2        1.0  0.21300  0.12300  0.37300  1.0000
  O   O3        1.0  0.87700  0.46300  0.37300  1.0000
  O   O4        1.0  0.53700  0.78700  0.37300  1.0000
  O   O5        1.0  0.46300  0.21300  0.62700  1.0000
  O   O6        1.0  0.12300  0.53700  0.62700  1.0000
  O   O7        1.0  0.78700  0.87700  0.62700  1.0000
  O   O8        1.0  0.37900  0.62100  0.86200  1.0000
