data_image0
_chemical_formula_structural       Nb6S8
_chemical_formula_sum              "Nb6 S8"
_cell_length_a       9.62901
_cell_length_b       9.62917
_cell_length_c       3.39099
_cell_angle_alpha    90
_cell_angle_beta     90
_cell_angle_gamma    120

_space_group_name_H-M_alt    "P 1"
_space_group_IT_number       1

loop_
  _space_group_symop_operation_xyz
  'x, y, z'

loop_
  _atom_site_type_symbol
  _atom_site_label
  _atom_site_symmetry_multiplicity
  _atom_site_fract_x
  _atom_site_fract_y
  _atom_site_fract_z
  _atom_site_occupancy
  Nb  Nb1       1.0  0.48600  0.11400  0.25000  1.0000
  Nb  Nb2       1.0  0.88600  0.37100  0.25000  1.0000
  Nb  Nb3       1.0  0.62900  0.51400  0.25000  1.0000
  Nb  Nb4       1.0  0.37100  0.48600  0.75000  1.0000
  Nb  Nb5       1.0  0.11400  0.62900  0.75000  1.0000
  Nb  Nb6       1.0  0.51400  0.88600  0.75000  1.0000
  S   S1        1.0  0.71300  0.05780  0.25000  1.0000
  S   S2        1.0  0.34500  0.28700  0.25000  1.0000
  S   S3        1.0  0.94200  0.65500  0.25000  1.0000
  S   S4        1.0  0.33300  0.66700  0.25000  1.0000
  S   S5        1.0  0.66700  0.33300  0.75000  1.0000
  S   S6        1.0  0.05780  0.34500  0.75000  1.0000
  S   S7        1.0  0.65500  0.71300  0.75000  1.0000
  S   S8        1.0  0.28700  0.94200  0.75000  1.0000
