data_image0
_chemical_formula_structural       K4Mn4O6
_chemical_formula_sum              "K4 Mn4 O6"
_cell_length_a       6.04653
_cell_length_b       6.49025
_cell_length_c       6.37743
_cell_angle_alpha    90
_cell_angle_beta     114.587
_cell_angle_gamma    90

_space_group_name_H-M_alt    "P 1"
_space_group_IT_number       1

loop_
  _space_group_symop_operation_xyz
  'x, y, z'

loop_
  _atom_site_type_symbol
  _atom_site_label
  _atom_site_symmetry_multiplicity
  _atom_site_fract_x
  _atom_site_fract_y
  _atom_site_fract_z
  _atom_site_occupancy
  K   K1        1.0  0.81500  0.35800  0.07220  1.0000
  K   K2        1.0  0.18500  0.85800  0.42800  1.0000
  K   K3        1.0  0.81500  0.14200  0.57200  1.0000
  K   K4        1.0  0.18500  0.64200  0.92800  1.0000
  Mn  Mn1       1.0  0.33100  0.11800  0.07000  1.0000
  Mn  Mn2       1.0  0.66900  0.61800  0.43000  1.0000
  Mn  Mn3       1.0  0.33100  0.38200  0.57000  1.0000
  Mn  Mn4       1.0  0.66900  0.88200  0.93000  1.0000
  O   O1        1.0  0.00000  0.00000  0.00000  1.0000
  O   O2        1.0  0.58900  0.87600  0.22300  1.0000
  O   O3        1.0  0.41100  0.37600  0.27700  1.0000
  O   O4        1.0  0.00000  0.50000  0.50000  1.0000
  O   O5        1.0  0.58900  0.62400  0.72300  1.0000
  O   O6        1.0  0.41100  0.12400  0.77700  1.0000
