data_image0
_chemical_formula_structural       As6Cr8
_chemical_formula_sum              "As6 Cr8"
_cell_length_a       3.54323
_cell_length_b       6.73855
_cell_length_c       9.27911
_cell_angle_alpha    102.955
_cell_angle_beta     90
_cell_angle_gamma    105.243

_space_group_name_H-M_alt    "P 1"
_space_group_IT_number       1

loop_
  _space_group_symop_operation_xyz
  'x, y, z'

loop_
  _atom_site_type_symbol
  _atom_site_label
  _atom_site_symmetry_multiplicity
  _atom_site_fract_x
  _atom_site_fract_y
  _atom_site_fract_z
  _atom_site_occupancy
  As  As1       1.0  0.36500  0.73000  0.01950  1.0000
  As  As2       1.0  0.06700  0.13400  0.27100  1.0000
  As  As3       1.0  0.81600  0.63200  0.35000  1.0000
  As  As4       1.0  0.19400  0.38800  0.64800  1.0000
  As  As5       1.0  0.94300  0.88600  0.72900  1.0000
  As  As6       1.0  0.64400  0.28800  0.97900  1.0000
  Cr  Cr1       1.0  0.00464  0.00929  1.00000  1.0000
  Cr  Cr2       1.0  0.22300  0.44500  0.16700  1.0000
  Cr  Cr3       1.0  0.43800  0.87600  0.29600  1.0000
  Cr  Cr4       1.0  0.65300  0.30600  0.44600  1.0000
  Cr  Cr5       1.0  0.00505  0.01010  0.50000  1.0000
  Cr  Cr6       1.0  0.35700  0.71400  0.55300  1.0000
  Cr  Cr7       1.0  0.57200  0.14400  0.70200  1.0000
  Cr  Cr8       1.0  0.78700  0.57400  0.83200  1.0000
