data_image0
_chemical_formula_structural       Pd2S8U4
_chemical_formula_sum              "Pd2 S8 U4"
_cell_length_a       6.70328
_cell_length_b       6.70328
_cell_length_c       7.77121
_cell_angle_alpha    108.935
_cell_angle_beta     108.935
_cell_angle_gamma    104.336

_space_group_name_H-M_alt    "P 1"
_space_group_IT_number       1

loop_
  _space_group_symop_operation_xyz
  'x, y, z'

loop_
  _atom_site_type_symbol
  _atom_site_label
  _atom_site_symmetry_multiplicity
  _atom_site_fract_x
  _atom_site_fract_y
  _atom_site_fract_z
  _atom_site_occupancy
  Pd  Pd1       1.0  0.99900  0.99900  0.00000  1.0000
  Pd  Pd2       1.0  0.24900  0.74900  0.50000  1.0000
  S   S1        1.0  0.99600  0.33900  0.22400  1.0000
  S   S2        1.0  0.55100  0.99200  0.24700  1.0000
  S   S3        1.0  0.55400  0.49500  0.25300  1.0000
  S   S4        1.0  0.02220  0.86500  0.27600  1.0000
  S   S5        1.0  0.58900  0.74600  0.72400  1.0000
  S   S6        1.0  0.24200  0.30100  0.74700  1.0000
  S   S7        1.0  0.74500  0.30400  0.75300  1.0000
  S   S8        1.0  0.11500  0.77200  0.77600  1.0000
  U   U1        1.0  0.18200  0.58100  0.05230  1.0000
  U   U2        1.0  0.38000  0.27800  0.44800  1.0000
  U   U3        1.0  0.83100  0.93200  0.55200  1.0000
  U   U4        1.0  0.52800  0.13000  0.94800  1.0000
