data_image0
_chemical_formula_structural       CsHoK2O8P2
_chemical_formula_sum              "Cs1 Ho1 K2 O8 P2"
_cell_length_a       5.63322
_cell_length_b       5.63322
_cell_length_c       7.96217
_cell_angle_alpha    90.0207
_cell_angle_beta     90.0207
_cell_angle_gamma    59.983

_space_group_name_H-M_alt    "P 1"
_space_group_IT_number       1

loop_
  _space_group_symop_operation_xyz
  'x, y, z'

loop_
  _atom_site_type_symbol
  _atom_site_label
  _atom_site_symmetry_multiplicity
  _atom_site_fract_x
  _atom_site_fract_y
  _atom_site_fract_z
  _atom_site_occupancy
  Cs  Cs1       1.0  0.00000  0.00000  0.50000  1.0000
  Ho  Ho1       1.0  0.00000  0.00000  0.00000  1.0000
  K   K1        1.0  0.33400  0.33400  0.24900  1.0000
  K   K2        1.0  0.66600  0.66600  0.75100  1.0000
  O   O1        1.0  0.81700  0.36800  0.16500  1.0000
  O   O2        1.0  0.36800  0.81700  0.16500  1.0000
  O   O3        1.0  0.81700  0.81700  0.16600  1.0000
  O   O4        1.0  0.66600  0.66600  0.42500  1.0000
  O   O5        1.0  0.33400  0.33400  0.57500  1.0000
  O   O6        1.0  0.18300  0.18300  0.83400  1.0000
  O   O7        1.0  0.63200  0.18300  0.83500  1.0000
  O   O8        1.0  0.18300  0.63200  0.83500  1.0000
  P   P1        1.0  0.66700  0.66700  0.23400  1.0000
  P   P2        1.0  0.33300  0.33300  0.76600  1.0000
