data_image0
_chemical_formula_structural       Bi4Ca2O18Ta4
_chemical_formula_sum              "Bi4 Ca2 O18 Ta4"
_cell_length_a       5.43951
_cell_length_b       12.5945
_cell_length_c       12.5945
_cell_angle_alpha    24.8372
_cell_angle_beta     90
_cell_angle_gamma    90

_space_group_name_H-M_alt    "P 1"
_space_group_IT_number       1

loop_
  _space_group_symop_operation_xyz
  'x, y, z'

loop_
  _atom_site_type_symbol
  _atom_site_label
  _atom_site_symmetry_multiplicity
  _atom_site_fract_x
  _atom_site_fract_y
  _atom_site_fract_z
  _atom_site_occupancy
  Bi  Bi1       1.0  0.50000  0.96800  0.42800  1.0000
  Bi  Bi2       1.0  0.00000  0.03170  0.57200  1.0000
  Bi  Bi3       1.0  0.00000  0.42800  0.96800  1.0000
  Bi  Bi4       1.0  0.50000  0.57200  0.03170  1.0000
  Ca  Ca1       1.0  0.98700  0.24300  0.75700  1.0000
  Ca  Ca2       1.0  0.48700  0.75700  0.24300  1.0000
  O   O1        1.0  0.85000  0.52300  0.65300  1.0000
  O   O2        1.0  0.35000  0.47700  0.34700  1.0000
  O   O3        1.0  0.35000  0.65300  0.52300  1.0000
  O   O4        1.0  0.85000  0.34700  0.47700  1.0000
  O   O5        1.0  0.74700  0.02030  0.10600  1.0000
  O   O6        1.0  0.24700  0.98000  0.89400  1.0000
  O   O7        1.0  0.24700  0.10600  0.02030  1.0000
  O   O8        1.0  0.74700  0.89400  0.98000  1.0000
  O   O9        1.0  0.75600  0.25000  0.25300  1.0000
  O   O10       1.0  0.25600  0.75000  0.74700  1.0000
  O   O11       1.0  0.25600  0.25300  0.25000  1.0000
  O   O12       1.0  0.75600  0.74700  0.75000  1.0000
  O   O13       1.0  0.52300  0.02460  0.65900  1.0000
  O   O14       1.0  0.02340  0.97500  0.34100  1.0000
  O   O15       1.0  0.02340  0.65900  0.02460  1.0000
  O   O16       1.0  0.52300  0.34100  0.97500  1.0000
  O   O17       1.0  0.55800  0.33100  0.66900  1.0000
  O   O18       1.0  0.05760  0.66900  0.33100  1.0000
  Ta  Ta1       1.0  0.52600  0.17000  0.66200  1.0000
  Ta  Ta2       1.0  0.02580  0.83000  0.33800  1.0000
  Ta  Ta3       1.0  0.02580  0.66200  0.17000  1.0000
  Ta  Ta4       1.0  0.52600  0.33800  0.83000  1.0000
