data_image0
_chemical_formula_structural       Pd4S8U2
_chemical_formula_sum              "Pd4 S8 U2"
_cell_length_a       7.62382
_cell_length_b       6.7603
_cell_length_c       6.7603
_cell_angle_alpha    90
_cell_angle_beta     116.319
_cell_angle_gamma    116.319

_space_group_name_H-M_alt    "P 1"
_space_group_IT_number       1

loop_
  _space_group_symop_operation_xyz
  'x, y, z'

loop_
  _atom_site_type_symbol
  _atom_site_label
  _atom_site_symmetry_multiplicity
  _atom_site_fract_x
  _atom_site_fract_y
  _atom_site_fract_z
  _atom_site_occupancy
  Pd  Pd1       1.0  0.00000  0.00000  0.00000  1.0000
  Pd  Pd2       1.0  0.00000  0.00000  0.50000  1.0000
  Pd  Pd3       1.0  0.50000  0.50000  0.50000  1.0000
  Pd  Pd4       1.0  0.50000  0.00000  0.50000  1.0000
  S   S1        1.0  0.35600  0.02820  0.12100  1.0000
  S   S2        1.0  0.14400  0.37900  0.17300  1.0000
  S   S3        1.0  0.64400  0.67300  0.26500  1.0000
  S   S4        1.0  0.14400  0.76500  0.47200  1.0000
  S   S5        1.0  0.85600  0.23500  0.52800  1.0000
  S   S6        1.0  0.35600  0.32700  0.73500  1.0000
  S   S7        1.0  0.85600  0.62100  0.82700  1.0000
  S   S8        1.0  0.64400  0.97200  0.87900  1.0000
  U   U1        1.0  0.75000  0.37500  0.12500  1.0000
  U   U2        1.0  0.25000  0.62500  0.87500  1.0000
