data_image0
_chemical_formula_structural       I6Ru2Y6
_chemical_formula_sum              "I6 Ru2 Y6"
_cell_length_a       8.79419
_cell_length_b       4.23493
_cell_length_c       12.2061
_cell_angle_alpha    90
_cell_angle_beta     94.62
_cell_angle_gamma    90

_space_group_name_H-M_alt    "P 1"
_space_group_IT_number       1

loop_
  _space_group_symop_operation_xyz
  'x, y, z'

loop_
  _atom_site_type_symbol
  _atom_site_label
  _atom_site_symmetry_multiplicity
  _atom_site_fract_x
  _atom_site_fract_y
  _atom_site_fract_z
  _atom_site_occupancy
  I   I1        1.0  0.57200  0.25000  0.13500  1.0000
  I   I2        1.0  0.35900  0.75000  0.36900  1.0000
  I   I3        1.0  0.85600  0.75000  0.39400  1.0000
  I   I4        1.0  0.14400  0.25000  0.60600  1.0000
  I   I5        1.0  0.64100  0.25000  0.63100  1.0000
  I   I6        1.0  0.42800  0.75000  0.86500  1.0000
  Ru  Ru1       1.0  0.05240  0.25000  0.09330  1.0000
  Ru  Ru2       1.0  0.94800  0.75000  0.90700  1.0000
  Y   Y1        1.0  0.26000  0.75000  0.10600  1.0000
  Y   Y2        1.0  0.86500  0.75000  0.12700  1.0000
  Y   Y3        1.0  0.10200  0.25000  0.32000  1.0000
  Y   Y4        1.0  0.89800  0.75000  0.68000  1.0000
  Y   Y5        1.0  0.13500  0.25000  0.87300  1.0000
  Y   Y6        1.0  0.74000  0.25000  0.89400  1.0000
