data_image0
_chemical_formula_structural       Fe2Ni4S8
_chemical_formula_sum              "Fe2 Ni4 S8"
_cell_length_a       6.62731
_cell_length_b       6.62731
_cell_length_c       6.62731
_cell_angle_alpha    120
_cell_angle_beta     90
_cell_angle_gamma    120

_space_group_name_H-M_alt    "P 1"
_space_group_IT_number       1

loop_
  _space_group_symop_operation_xyz
  'x, y, z'

loop_
  _atom_site_type_symbol
  _atom_site_label
  _atom_site_symmetry_multiplicity
  _atom_site_fract_x
  _atom_site_fract_y
  _atom_site_fract_z
  _atom_site_occupancy
  Fe  Fe1       1.0  0.87500  0.75000  0.12500  1.0000
  Fe  Fe2       1.0  0.12500  0.25000  0.87500  1.0000
  Ni  Ni1       1.0  0.50000  0.00000  0.00000  1.0000
  Ni  Ni2       1.0  0.50000  0.00000  0.50000  1.0000
  Ni  Ni3       1.0  0.00000  0.50000  0.50000  1.0000
  Ni  Ni4       1.0  0.50000  0.50000  0.50000  1.0000
  S   S1        1.0  0.26400  0.00953  0.25500  1.0000
  S   S2        1.0  0.74500  0.49000  0.25500  1.0000
  S   S3        1.0  0.74500  0.00953  0.25500  1.0000
  S   S4        1.0  0.25500  0.51000  0.26400  1.0000
  S   S5        1.0  0.74500  0.49000  0.73600  1.0000
  S   S6        1.0  0.25500  0.51000  0.74500  1.0000
  S   S7        1.0  0.25500  0.99000  0.74500  1.0000
  S   S8        1.0  0.73600  0.99000  0.74500  1.0000
