data_image0
_chemical_formula_structural       C7Re2Sc5
_chemical_formula_sum              "C7 Re2 Sc5"
_cell_length_a       3.21552
_cell_length_b       7.8159
_cell_length_c       7.8748
_cell_angle_alpha    60.2471
_cell_angle_beta     90
_cell_angle_gamma    90

_space_group_name_H-M_alt    "P 1"
_space_group_IT_number       1

loop_
  _space_group_symop_operation_xyz
  'x, y, z'

loop_
  _atom_site_type_symbol
  _atom_site_label
  _atom_site_symmetry_multiplicity
  _atom_site_fract_x
  _atom_site_fract_y
  _atom_site_fract_z
  _atom_site_occupancy
  C   C1        1.0  0.00000  0.00000  0.00000  1.0000
  C   C2        1.0  0.00000  0.17300  0.00000  1.0000
  C   C3        1.0  0.00000  0.82700  0.00000  1.0000
  C   C4        1.0  0.50000  0.38100  0.23800  1.0000
  C   C5        1.0  0.00000  0.00000  0.50000  1.0000
  C   C6        1.0  0.00000  0.50000  0.50000  1.0000
  C   C7        1.0  0.50000  0.61900  0.76200  1.0000
  Re  Re1       1.0  0.00000  0.28500  0.43100  1.0000
  Re  Re2       1.0  0.00000  0.71500  0.56900  1.0000
  Sc  Sc1       1.0  0.00000  0.50000  0.00000  1.0000
  Sc  Sc2       1.0  0.50000  0.08280  0.25600  1.0000
  Sc  Sc3       1.0  0.50000  0.66100  0.25600  1.0000
  Sc  Sc4       1.0  0.50000  0.33900  0.74400  1.0000
  Sc  Sc5       1.0  0.50000  0.91700  0.74400  1.0000
