data_image0
_chemical_formula_structural       In5RbS8
_chemical_formula_sum              "In5 Rb1 S8"
_cell_length_a       3.91997
_cell_length_b       9.35802
_cell_length_c       9.82076
_cell_angle_alpha    102.114
_cell_angle_beta     101.512
_cell_angle_gamma    90

_space_group_name_H-M_alt    "P 1"
_space_group_IT_number       1

loop_
  _space_group_symop_operation_xyz
  'x, y, z'

loop_
  _atom_site_type_symbol
  _atom_site_label
  _atom_site_symmetry_multiplicity
  _atom_site_fract_x
  _atom_site_fract_y
  _atom_site_fract_z
  _atom_site_occupancy
  In  In1       1.0  0.00000  0.00000  0.00000  1.0000
  In  In2       1.0  0.64800  0.92000  0.29600  1.0000
  In  In3       1.0  0.71100  0.34000  0.42200  1.0000
  In  In4       1.0  0.28900  0.66000  0.57800  1.0000
  In  In5       1.0  0.35200  0.07950  0.70400  1.0000
  Rb  Rb1       1.0  0.50000  0.50000  0.00000  1.0000
  S   S1        1.0  0.07370  0.79300  0.14700  1.0000
  S   S2        1.0  0.58400  0.13100  0.16700  1.0000
  S   S3        1.0  0.16500  0.48100  0.33100  1.0000
  S   S4        1.0  0.23600  0.15200  0.47200  1.0000
  S   S5        1.0  0.76400  0.84800  0.52800  1.0000
  S   S6        1.0  0.83500  0.51900  0.66900  1.0000
  S   S7        1.0  0.41600  0.86900  0.83300  1.0000
  S   S8        1.0  0.92600  0.20700  0.85300  1.0000
