data_image0
_chemical_formula_structural       Al6C6U2
_chemical_formula_sum              "Al6 C6 U2"
_cell_length_a       3.38427
_cell_length_b       3.38414
_cell_length_c       17.4123
_cell_angle_alpha    90
_cell_angle_beta     90
_cell_angle_gamma    120.001

_space_group_name_H-M_alt    "P 1"
_space_group_IT_number       1

loop_
  _space_group_symop_operation_xyz
  'x, y, z'

loop_
  _atom_site_type_symbol
  _atom_site_label
  _atom_site_symmetry_multiplicity
  _atom_site_fract_x
  _atom_site_fract_y
  _atom_site_fract_z
  _atom_site_occupancy
  Al  Al1       1.0  0.33300  0.66700  0.13700  1.0000
  Al  Al2       1.0  0.66700  0.33300  0.25700  1.0000
  Al  Al3       1.0  0.33300  0.66700  0.37000  1.0000
  Al  Al4       1.0  0.66700  0.33300  0.63700  1.0000
  Al  Al5       1.0  0.33300  0.66700  0.75700  1.0000
  Al  Al6       1.0  0.66700  0.33300  0.87000  1.0000
  C   C1        1.0  0.66700  0.33300  0.09580  1.0000
  C   C2        1.0  0.33300  0.66700  0.25300  1.0000
  C   C3        1.0  0.66700  0.33300  0.40700  1.0000
  C   C4        1.0  0.33300  0.66700  0.59600  1.0000
  C   C5        1.0  0.66700  0.33300  0.75300  1.0000
  C   C6        1.0  0.33300  0.66700  0.90700  1.0000
  U   U1        1.0  0.00000  0.00000  0.00283  1.0000
  U   U2        1.0  0.00000  0.00000  0.50300  1.0000
