data_image0
_chemical_formula_structural       Cd4O8Sn2
_chemical_formula_sum              "Cd4 O8 Sn2"
_cell_length_a       5.61374
_cell_length_b       9.94924
_cell_length_c       3.2122
_cell_angle_alpha    90
_cell_angle_beta     90
_cell_angle_gamma    90

_space_group_name_H-M_alt    "P 1"
_space_group_IT_number       1

loop_
  _space_group_symop_operation_xyz
  'x, y, z'

loop_
  _atom_site_type_symbol
  _atom_site_label
  _atom_site_symmetry_multiplicity
  _atom_site_fract_x
  _atom_site_fract_y
  _atom_site_fract_z
  _atom_site_occupancy
  Cd  Cd1       1.0  0.56000  0.17600  0.50000  1.0000
  Cd  Cd2       1.0  0.05970  0.32400  0.50000  1.0000
  Cd  Cd3       1.0  0.94000  0.67600  0.50000  1.0000
  Cd  Cd4       1.0  0.44000  0.82400  0.50000  1.0000
  O   O1        1.0  0.86300  0.19300  0.00000  1.0000
  O   O2        1.0  0.36300  0.30700  0.00000  1.0000
  O   O3        1.0  0.63700  0.69300  0.00000  1.0000
  O   O4        1.0  0.13700  0.80700  0.00000  1.0000
  O   O5        1.0  0.23500  0.04070  0.50000  1.0000
  O   O6        1.0  0.73500  0.45900  0.50000  1.0000
  O   O7        1.0  0.26500  0.54100  0.50000  1.0000
  O   O8        1.0  0.76500  0.95900  0.50000  1.0000
  Sn  Sn1       1.0  0.00000  0.00000  0.00000  1.0000
  Sn  Sn2       1.0  0.50000  0.50000  0.00000  1.0000
