data_image0
_chemical_formula_structural       Ag2O8Tc2
_chemical_formula_sum              "Ag2 O8 Tc2"
_cell_length_a       6.89527
_cell_length_b       5.2473
_cell_length_c       5.2473
_cell_angle_alpha    90
_cell_angle_beta     112.365
_cell_angle_gamma    112.365

_space_group_name_H-M_alt    "P 1"
_space_group_IT_number       1

loop_
  _space_group_symop_operation_xyz
  'x, y, z'

loop_
  _atom_site_type_symbol
  _atom_site_label
  _atom_site_symmetry_multiplicity
  _atom_site_fract_x
  _atom_site_fract_y
  _atom_site_fract_z
  _atom_site_occupancy
  Ag  Ag1       1.0  0.75000  0.87500  0.12500  1.0000
  Ag  Ag2       1.0  0.25000  0.12500  0.87500  1.0000
  O   O1        1.0  0.08100  0.30000  0.15400  1.0000
  O   O2        1.0  0.41900  0.84600  0.21900  1.0000
  O   O3        1.0  0.58100  0.42700  0.30000  1.0000
  O   O4        1.0  0.08100  0.78100  0.42700  1.0000
  O   O5        1.0  0.91900  0.21900  0.57300  1.0000
  O   O6        1.0  0.41900  0.57300  0.70000  1.0000
  O   O7        1.0  0.58100  0.15400  0.78100  1.0000
  O   O8        1.0  0.91900  0.70000  0.84600  1.0000
  Tc  Tc1       1.0  0.25000  0.62500  0.37500  1.0000
  Tc  Tc2       1.0  0.75000  0.37500  0.62500  1.0000
