data_image0
_chemical_formula_structural       Ge2K2La2S8
_chemical_formula_sum              "Ge2 K2 La2 S8"
_cell_length_a       6.71425
_cell_length_b       6.75231
_cell_length_c       8.75595
_cell_angle_alpha    90
_cell_angle_beta     107.325
_cell_angle_gamma    90

_space_group_name_H-M_alt    "P 1"
_space_group_IT_number       1

loop_
  _space_group_symop_operation_xyz
  'x, y, z'

loop_
  _atom_site_type_symbol
  _atom_site_label
  _atom_site_symmetry_multiplicity
  _atom_site_fract_x
  _atom_site_fract_y
  _atom_site_fract_z
  _atom_site_occupancy
  Ge  Ge1       1.0  0.21800  0.52600  0.31400  1.0000
  Ge  Ge2       1.0  0.78200  0.02560  0.68600  1.0000
  K   K1        1.0  0.27100  0.01460  0.06580  1.0000
  K   K2        1.0  0.72900  0.51500  0.93400  1.0000
  La  La1       1.0  0.76700  0.49800  0.44600  1.0000
  La  La2       1.0  0.23300  0.99800  0.55400  1.0000
  S   S1        1.0  0.41800  0.52800  0.15600  1.0000
  S   S2        1.0  0.98100  0.76800  0.27100  1.0000
  S   S3        1.0  0.01500  0.25700  0.28300  1.0000
  S   S4        1.0  0.58800  0.06870  0.43100  1.0000
  S   S5        1.0  0.41200  0.56900  0.56900  1.0000
  S   S6        1.0  0.98500  0.75700  0.71700  1.0000
  S   S7        1.0  0.01890  0.26800  0.72900  1.0000
  S   S8        1.0  0.58200  0.02830  0.84400  1.0000
