data_image0
_chemical_formula_structural       B4Pd10
_chemical_formula_sum              "B4 Pd10"
_cell_length_a       4.99592
_cell_length_b       5.52748
_cell_length_c       6.94524
_cell_angle_alpha    96.7275
_cell_angle_beta     111.08
_cell_angle_gamma    90

_space_group_name_H-M_alt    "P 1"
_space_group_IT_number       1

loop_
  _space_group_symop_operation_xyz
  'x, y, z'

loop_
  _atom_site_type_symbol
  _atom_site_label
  _atom_site_symmetry_multiplicity
  _atom_site_fract_x
  _atom_site_fract_y
  _atom_site_fract_z
  _atom_site_occupancy
  B   B1        1.0  0.41400  0.07880  0.22900  1.0000
  B   B2        1.0  0.81500  0.57900  0.22900  1.0000
  B   B3        1.0  0.18500  0.42100  0.77100  1.0000
  B   B4        1.0  0.58600  0.92100  0.77100  1.0000
  Pd  Pd1       1.0  0.56900  0.25000  0.00000  1.0000
  Pd  Pd2       1.0  0.43100  0.75000  0.00000  1.0000
  Pd  Pd3       1.0  0.18700  0.41900  0.19200  1.0000
  Pd  Pd4       1.0  0.00565  0.91900  0.19200  1.0000
  Pd  Pd5       1.0  0.78400  0.31400  0.42400  1.0000
  Pd  Pd6       1.0  0.64000  0.81400  0.42400  1.0000
  Pd  Pd7       1.0  0.36000  0.18600  0.57600  1.0000
  Pd  Pd8       1.0  0.21600  0.68600  0.57600  1.0000
  Pd  Pd9       1.0  0.99400  0.08080  0.80800  1.0000
  Pd  Pd10      1.0  0.81300  0.58100  0.80800  1.0000
