data_image0
_chemical_formula_structural       Gd6I6Mn2
_chemical_formula_sum              "Gd6 I6 Mn2"
_cell_length_a       9.04262
_cell_length_b       4.09511
_cell_length_c       12.4343
_cell_angle_alpha    90
_cell_angle_beta     95.1002
_cell_angle_gamma    90

_space_group_name_H-M_alt    "P 1"
_space_group_IT_number       1

loop_
  _space_group_symop_operation_xyz
  'x, y, z'

loop_
  _atom_site_type_symbol
  _atom_site_label
  _atom_site_symmetry_multiplicity
  _atom_site_fract_x
  _atom_site_fract_y
  _atom_site_fract_z
  _atom_site_occupancy
  Gd  Gd1       1.0  0.25600  0.75000  0.10300  1.0000
  Gd  Gd2       1.0  0.83900  0.75000  0.13800  1.0000
  Gd  Gd3       1.0  0.09020  0.25000  0.31400  1.0000
  Gd  Gd4       1.0  0.91000  0.75000  0.68600  1.0000
  Gd  Gd5       1.0  0.16100  0.25000  0.86200  1.0000
  Gd  Gd6       1.0  0.74400  0.25000  0.89700  1.0000
  I   I1        1.0  0.55900  0.25000  0.13600  1.0000
  I   I2        1.0  0.34800  0.75000  0.36300  1.0000
  I   I3        1.0  0.85400  0.75000  0.39700  1.0000
  I   I4        1.0  0.14600  0.25000  0.60300  1.0000
  I   I5        1.0  0.65200  0.25000  0.63700  1.0000
  I   I6        1.0  0.44100  0.75000  0.86400  1.0000
  Mn  Mn1       1.0  0.03000  0.25000  0.06720  1.0000
  Mn  Mn2       1.0  0.97000  0.75000  0.93300  1.0000
