data_image0
_chemical_formula_structural       I6Ir2Y6
_chemical_formula_sum              "I6 Ir2 Y6"
_cell_length_a       8.78266
_cell_length_b       4.2601
_cell_length_c       12.2087
_cell_angle_alpha    90
_cell_angle_beta     94.4749
_cell_angle_gamma    90

_space_group_name_H-M_alt    "P 1"
_space_group_IT_number       1

loop_
  _space_group_symop_operation_xyz
  'x, y, z'

loop_
  _atom_site_type_symbol
  _atom_site_label
  _atom_site_symmetry_multiplicity
  _atom_site_fract_x
  _atom_site_fract_y
  _atom_site_fract_z
  _atom_site_occupancy
  I   I1        1.0  0.56900  0.25000  0.13500  1.0000
  I   I2        1.0  0.35700  0.75000  0.36700  1.0000
  I   I3        1.0  0.85500  0.75000  0.39500  1.0000
  I   I4        1.0  0.14500  0.25000  0.60500  1.0000
  I   I5        1.0  0.64300  0.25000  0.63300  1.0000
  I   I6        1.0  0.43100  0.75000  0.86500  1.0000
  Ir  Ir1       1.0  0.04830  0.25000  0.09320  1.0000
  Ir  Ir2       1.0  0.95200  0.75000  0.90700  1.0000
  Y   Y1        1.0  0.25300  0.75000  0.10200  1.0000
  Y   Y2        1.0  0.85600  0.75000  0.13100  1.0000
  Y   Y3        1.0  0.09950  0.25000  0.32000  1.0000
  Y   Y4        1.0  0.90000  0.75000  0.68000  1.0000
  Y   Y5        1.0  0.14400  0.25000  0.86900  1.0000
  Y   Y6        1.0  0.74700  0.25000  0.89800  1.0000
