data_image0
_chemical_formula_structural       C2Gd6I6
_chemical_formula_sum              "C2 Gd6 I6"
_cell_length_a       11.9817
_cell_length_b       3.93862
_cell_length_c       8.77615
_cell_angle_alpha    90
_cell_angle_beta     92.2563
_cell_angle_gamma    90

_space_group_name_H-M_alt    "P 1"
_space_group_IT_number       1

loop_
  _space_group_symop_operation_xyz
  'x, y, z'

loop_
  _atom_site_type_symbol
  _atom_site_label
  _atom_site_symmetry_multiplicity
  _atom_site_fract_x
  _atom_site_fract_y
  _atom_site_fract_z
  _atom_site_occupancy
  C   C1        1.0  0.61400  0.75000  0.11700  1.0000
  C   C2        1.0  0.38600  0.25000  0.88300  1.0000
  Gd  Gd1       1.0  0.40000  0.75000  0.08260  1.0000
  Gd  Gd2       1.0  0.81400  0.75000  0.11200  1.0000
  Gd  Gd3       1.0  0.61500  0.25000  0.29500  1.0000
  Gd  Gd4       1.0  0.38500  0.75000  0.70500  1.0000
  Gd  Gd5       1.0  0.18600  0.25000  0.88800  1.0000
  Gd  Gd6       1.0  0.60000  0.25000  0.91700  1.0000
  I   I1        1.0  0.12700  0.75000  0.14300  1.0000
  I   I2        1.0  0.87100  0.25000  0.37600  1.0000
  I   I3        1.0  0.36700  0.25000  0.38300  1.0000
  I   I4        1.0  0.63300  0.75000  0.61700  1.0000
  I   I5        1.0  0.12900  0.75000  0.62400  1.0000
  I   I6        1.0  0.87300  0.25000  0.85700  1.0000
