data_image0
_chemical_formula_structural       Sb4Si2V8
_chemical_formula_sum              "Sb4 Si2 V8"
_cell_length_a       4.6862
_cell_length_b       7.3407
_cell_length_c       7.3407
_cell_angle_alpha    95.8477
_cell_angle_beta     71.3859
_cell_angle_gamma    108.614

_space_group_name_H-M_alt    "P 1"
_space_group_IT_number       1

loop_
  _space_group_symop_operation_xyz
  'x, y, z'

loop_
  _atom_site_type_symbol
  _atom_site_label
  _atom_site_symmetry_multiplicity
  _atom_site_fract_x
  _atom_site_fract_y
  _atom_site_fract_z
  _atom_site_occupancy
  Sb  Sb1       1.0  0.14100  0.50000  0.21800  1.0000
  Sb  Sb2       1.0  0.35900  0.21800  0.50000  1.0000
  Sb  Sb3       1.0  0.64100  0.78200  0.50000  1.0000
  Sb  Sb4       1.0  0.85900  0.50000  0.78200  1.0000
  Si  Si1       1.0  0.25000  0.00000  0.00000  1.0000
  Si  Si2       1.0  0.75000  0.00000  0.00000  1.0000
  V   V1        1.0  0.79500  0.71000  0.12000  1.0000
  V   V2        1.0  0.58500  0.29000  0.12000  1.0000
  V   V3        1.0  0.91500  0.12000  0.29000  1.0000
  V   V4        1.0  0.29500  0.88000  0.29000  1.0000
  V   V5        1.0  0.70500  0.12000  0.71000  1.0000
  V   V6        1.0  0.08500  0.88000  0.71000  1.0000
  V   V7        1.0  0.41500  0.71000  0.88000  1.0000
  V   V8        1.0  0.20500  0.29000  0.88000  1.0000
