data_image0
_chemical_formula_structural       Cu2Fe2O5S2Sr3
_chemical_formula_sum              "Cu2 Fe2 O5 S2 Sr3"
_cell_length_a       3.93434
_cell_length_b       3.93434
_cell_length_c       13.3882
_cell_angle_alpha    98.4492
_cell_angle_beta     98.4492
_cell_angle_gamma    90

_space_group_name_H-M_alt    "P 1"
_space_group_IT_number       1

loop_
  _space_group_symop_operation_xyz
  'x, y, z'

loop_
  _atom_site_type_symbol
  _atom_site_label
  _atom_site_symmetry_multiplicity
  _atom_site_fract_x
  _atom_site_fract_y
  _atom_site_fract_z
  _atom_site_occupancy
  Cu  Cu1       1.0  0.75000  0.25000  0.50000  1.0000
  Cu  Cu2       1.0  0.25000  0.75000  0.50000  1.0000
  Fe  Fe1       1.0  0.07290  0.07290  0.14600  1.0000
  Fe  Fe2       1.0  0.92700  0.92700  0.85400  1.0000
  O   O1        1.0  0.00000  0.00000  0.00000  1.0000
  O   O2        1.0  0.58300  0.08300  0.16600  1.0000
  O   O3        1.0  0.08300  0.58300  0.16600  1.0000
  O   O4        1.0  0.91700  0.41700  0.83400  1.0000
  O   O5        1.0  0.41700  0.91700  0.83400  1.0000
  S   S1        1.0  0.19700  0.19700  0.39500  1.0000
  S   S2        1.0  0.80300  0.80300  0.60500  1.0000
  Sr  Sr1       1.0  0.50000  0.50000  0.00000  1.0000
  Sr  Sr2       1.0  0.64300  0.64300  0.28600  1.0000
  Sr  Sr3       1.0  0.35700  0.35700  0.71400  1.0000
