data_image0
_chemical_formula_structural       Cu8O6
_chemical_formula_sum              "Cu8 O6"
_cell_length_a       6.40658
_cell_length_b       5.78339
_cell_length_c       5.78339
_cell_angle_alpha    90
_cell_angle_beta     116.831
_cell_angle_gamma    116.831

_space_group_name_H-M_alt    "P 1"
_space_group_IT_number       1

loop_
  _space_group_symop_operation_xyz
  'x, y, z'

loop_
  _atom_site_type_symbol
  _atom_site_label
  _atom_site_symmetry_multiplicity
  _atom_site_fract_x
  _atom_site_fract_y
  _atom_site_fract_z
  _atom_site_occupancy
  Cu  Cu1       1.0  0.50000  0.00000  0.00000  1.0000
  Cu  Cu2       1.0  0.50000  0.50000  0.00000  1.0000
  Cu  Cu3       1.0  0.00000  0.00000  0.00000  1.0000
  Cu  Cu4       1.0  0.00000  0.50000  0.00000  1.0000
  Cu  Cu5       1.0  0.50000  0.00000  0.50000  1.0000
  Cu  Cu6       1.0  0.50000  0.50000  0.50000  1.0000
  Cu  Cu7       1.0  0.00000  0.00000  0.50000  1.0000
  Cu  Cu8       1.0  0.00000  0.50000  0.50000  1.0000
  O   O1        1.0  0.72900  0.36400  0.11400  1.0000
  O   O2        1.0  0.22900  0.11400  0.36400  1.0000
  O   O3        1.0  0.25000  0.62500  0.37500  1.0000
  O   O4        1.0  0.75000  0.37500  0.62500  1.0000
  O   O5        1.0  0.77100  0.88600  0.63600  1.0000
  O   O6        1.0  0.27100  0.63600  0.88600  1.0000
