data_image0
_chemical_formula_structural       Ge8Ho6
_chemical_formula_sum              "Ge8 Ho6"
_cell_length_a       4.05136
_cell_length_b       5.69874
_cell_length_c       14.2495
_cell_angle_alpha    90
_cell_angle_beta     90
_cell_angle_gamma    69.1783

_space_group_name_H-M_alt    "P 1"
_space_group_IT_number       1

loop_
  _space_group_symop_operation_xyz
  'x, y, z'

loop_
  _atom_site_type_symbol
  _atom_site_label
  _atom_site_symmetry_multiplicity
  _atom_site_fract_x
  _atom_site_fract_y
  _atom_site_fract_z
  _atom_site_occupancy
  Ge  Ge1       1.0  0.00000  0.00000  0.00000  1.0000
  Ge  Ge2       1.0  0.37900  0.24200  0.10800  1.0000
  Ge  Ge3       1.0  0.22400  0.55300  0.25000  1.0000
  Ge  Ge4       1.0  0.37900  0.24200  0.39200  1.0000
  Ge  Ge5       1.0  0.00000  0.00000  0.50000  1.0000
  Ge  Ge6       1.0  0.62100  0.75800  0.60800  1.0000
  Ge  Ge7       1.0  0.77600  0.44700  0.75000  1.0000
  Ge  Ge8       1.0  0.62100  0.75800  0.89200  1.0000
  Ho  Ho1       1.0  0.66900  0.66300  0.09710  1.0000
  Ho  Ho2       1.0  0.95200  0.09540  0.25000  1.0000
  Ho  Ho3       1.0  0.66900  0.66300  0.40300  1.0000
  Ho  Ho4       1.0  0.33100  0.33700  0.59700  1.0000
  Ho  Ho5       1.0  0.04770  0.90500  0.75000  1.0000
  Ho  Ho6       1.0  0.33100  0.33700  0.90300  1.0000
