data_image0
_chemical_formula_structural       B4C3Ni4Y3
_chemical_formula_sum              "B4 C3 Ni4 Y3"
_cell_length_a       3.57575
_cell_length_b       3.57575
_cell_length_c       12.9795
_cell_angle_alpha    97.9175
_cell_angle_beta     97.9175
_cell_angle_gamma    90

_space_group_name_H-M_alt    "P 1"
_space_group_IT_number       1

loop_
  _space_group_symop_operation_xyz
  'x, y, z'

loop_
  _atom_site_type_symbol
  _atom_site_label
  _atom_site_symmetry_multiplicity
  _atom_site_fract_x
  _atom_site_fract_y
  _atom_site_fract_z
  _atom_site_occupancy
  B   B1        1.0  0.54600  0.54600  0.09140  1.0000
  B   B2        1.0  0.66300  0.66300  0.32700  1.0000
  B   B3        1.0  0.24900  0.24900  0.49800  1.0000
  B   B4        1.0  0.96000  0.96000  0.91900  1.0000
  C   C1        1.0  0.60500  0.60500  0.20900  1.0000
  C   C2        1.0  0.30800  0.30800  0.61600  1.0000
  C   C3        1.0  0.90100  0.90100  0.80200  1.0000
  Ni  Ni1       1.0  0.50400  0.00378  0.00756  1.0000
  Ni  Ni2       1.0  0.00378  0.50400  0.00756  1.0000
  Ni  Ni3       1.0  0.70500  0.20500  0.41000  1.0000
  Ni  Ni4       1.0  0.20500  0.70500  0.41000  1.0000
  Y   Y1        1.0  0.10400  0.10400  0.20900  1.0000
  Y   Y2        1.0  0.80500  0.80500  0.61000  1.0000
  Y   Y3        1.0  0.40400  0.40400  0.80800  1.0000
