data_image0
_chemical_formula_structural       K4O8W2
_chemical_formula_sum              "K4 O8 W2"
_cell_length_a       6.03439
_cell_length_b       6.83814
_cell_length_c       7.50586
_cell_angle_alpha    112.917
_cell_angle_beta     90
_cell_angle_gamma    116.182

_space_group_name_H-M_alt    "P 1"
_space_group_IT_number       1

loop_
  _space_group_symop_operation_xyz
  'x, y, z'

loop_
  _atom_site_type_symbol
  _atom_site_label
  _atom_site_symmetry_multiplicity
  _atom_site_fract_x
  _atom_site_fract_y
  _atom_site_fract_z
  _atom_site_occupancy
  K   K1        1.0  0.51000  0.01960  0.23600  1.0000
  K   K2        1.0  0.84500  0.69100  0.25600  1.0000
  K   K3        1.0  0.15500  0.30900  0.74400  1.0000
  K   K4        1.0  0.49000  0.98000  0.76400  1.0000
  O   O1        1.0  0.38400  0.28300  0.07010  1.0000
  O   O2        1.0  0.89900  0.28300  0.07010  1.0000
  O   O3        1.0  0.08670  0.17300  0.36100  1.0000
  O   O4        1.0  0.33600  0.67200  0.38400  1.0000
  O   O5        1.0  0.66400  0.32800  0.61600  1.0000
  O   O6        1.0  0.91300  0.82700  0.63900  1.0000
  O   O7        1.0  0.10100  0.71700  0.93000  1.0000
  O   O8        1.0  0.61600  0.71700  0.93000  1.0000
  W   W1        1.0  0.17600  0.35200  0.22400  1.0000
  W   W2        1.0  0.82400  0.64800  0.77600  1.0000
