data_image0
_chemical_formula_structural       Na2Nd2O8Ti2
_chemical_formula_sum              "Na2 Nd2 O8 Ti2"
_cell_length_a       3.73553
_cell_length_b       3.73553
_cell_length_c       12.8902
_cell_angle_alpha    90
_cell_angle_beta     90
_cell_angle_gamma    90

_space_group_name_H-M_alt    "P 1"
_space_group_IT_number       1

loop_
  _space_group_symop_operation_xyz
  'x, y, z'

loop_
  _atom_site_type_symbol
  _atom_site_label
  _atom_site_symmetry_multiplicity
  _atom_site_fract_x
  _atom_site_fract_y
  _atom_site_fract_z
  _atom_site_occupancy
  Na  Na1       1.0  0.75000  0.75000  0.41400  1.0000
  Na  Na2       1.0  0.25000  0.25000  0.58600  1.0000
  Nd  Nd1       1.0  0.75000  0.75000  0.10900  1.0000
  Nd  Nd2       1.0  0.25000  0.25000  0.89100  1.0000
  O   O1        1.0  0.25000  0.25000  0.07060  1.0000
  O   O2        1.0  0.75000  0.25000  0.23500  1.0000
  O   O3        1.0  0.25000  0.75000  0.23500  1.0000
  O   O4        1.0  0.25000  0.25000  0.41000  1.0000
  O   O5        1.0  0.75000  0.75000  0.59000  1.0000
  O   O6        1.0  0.75000  0.25000  0.76500  1.0000
  O   O7        1.0  0.25000  0.75000  0.76500  1.0000
  O   O8        1.0  0.75000  0.75000  0.92900  1.0000
  Ti  Ti1       1.0  0.25000  0.25000  0.27300  1.0000
  Ti  Ti2       1.0  0.75000  0.75000  0.72700  1.0000
