data_image0
_chemical_formula_structural       Ba2Pd4S8
_chemical_formula_sum              "Ba2 Pd4 S8"
_cell_length_a       7.3063
_cell_length_b       6.87747
_cell_length_c       6.7713
_cell_angle_alpha    90
_cell_angle_beta     110.365
_cell_angle_gamma    90

_space_group_name_H-M_alt    "P 1"
_space_group_IT_number       1

loop_
  _space_group_symop_operation_xyz
  'x, y, z'

loop_
  _atom_site_type_symbol
  _atom_site_label
  _atom_site_symmetry_multiplicity
  _atom_site_fract_x
  _atom_site_fract_y
  _atom_site_fract_z
  _atom_site_occupancy
  Ba  Ba1       1.0  0.49300  0.25000  0.28200  1.0000
  Ba  Ba2       1.0  0.50700  0.75000  0.71800  1.0000
  Pd  Pd1       1.0  0.00000  0.00000  0.00000  1.0000
  Pd  Pd2       1.0  0.00000  0.50000  0.00000  1.0000
  Pd  Pd3       1.0  0.98900  0.75000  0.48200  1.0000
  Pd  Pd4       1.0  0.01110  0.25000  0.51800  1.0000
  S   S1        1.0  0.78900  0.25000  0.02640  1.0000
  S   S2        1.0  0.48900  0.75000  0.20600  1.0000
  S   S3        1.0  0.14500  0.00454  0.36900  1.0000
  S   S4        1.0  0.14500  0.49500  0.36900  1.0000
  S   S5        1.0  0.85500  0.50500  0.63100  1.0000
  S   S6        1.0  0.85500  0.99500  0.63100  1.0000
  S   S7        1.0  0.51100  0.25000  0.79400  1.0000
  S   S8        1.0  0.21100  0.75000  0.97400  1.0000
