data_image0
_chemical_formula_structural       Ce2Cu2K2Te8
_chemical_formula_sum              "Ce2 Cu2 K2 Te8"
_cell_length_a       4.45285
_cell_length_b       4.45161
_cell_length_c       21.7595
_cell_angle_alpha    90
_cell_angle_beta     90
_cell_angle_gamma    90

_space_group_name_H-M_alt    "P 1"
_space_group_IT_number       1

loop_
  _space_group_symop_operation_xyz
  'x, y, z'

loop_
  _atom_site_type_symbol
  _atom_site_label
  _atom_site_symmetry_multiplicity
  _atom_site_fract_x
  _atom_site_fract_y
  _atom_site_fract_z
  _atom_site_occupancy
  Ce  Ce1       1.0  0.25000  0.25000  0.40100  1.0000
  Ce  Ce2       1.0  0.75000  0.75000  0.59900  1.0000
  Cu  Cu1       1.0  0.75000  0.25000  0.00017  1.0000
  Cu  Cu2       1.0  0.25000  0.75000  0.00000  1.0000
  K   K1        1.0  0.75000  0.75000  0.14300  1.0000
  K   K2        1.0  0.25000  0.25000  0.85700  1.0000
  Te  Te1       1.0  0.25000  0.25000  0.06900  1.0000
  Te  Te2       1.0  0.75000  0.25000  0.28200  1.0000
  Te  Te3       1.0  0.25000  0.75000  0.28200  1.0000
  Te  Te4       1.0  0.75000  0.75000  0.44500  1.0000
  Te  Te5       1.0  0.25000  0.25000  0.55500  1.0000
  Te  Te6       1.0  0.75000  0.25000  0.71800  1.0000
  Te  Te7       1.0  0.25000  0.75000  0.71800  1.0000
  Te  Te8       1.0  0.75000  0.75000  0.93100  1.0000
