data_image0
_chemical_formula_structural       B3Ca4LiN6
_chemical_formula_sum              "B3 Ca4 Li1 N6"
_cell_length_a       6.12118
_cell_length_b       6.12118
_cell_length_c       6.12118
_cell_angle_alpha    109.471
_cell_angle_beta     109.471
_cell_angle_gamma    109.471

_space_group_name_H-M_alt    "P 1"
_space_group_IT_number       1

loop_
  _space_group_symop_operation_xyz
  'x, y, z'

loop_
  _atom_site_type_symbol
  _atom_site_label
  _atom_site_symmetry_multiplicity
  _atom_site_fract_x
  _atom_site_fract_y
  _atom_site_fract_z
  _atom_site_occupancy
  B   B1        1.0  0.50000  0.50000  0.00000  1.0000
  B   B2        1.0  0.50000  0.00000  0.50000  1.0000
  B   B3        1.0  0.00000  0.50000  0.50000  1.0000
  Ca  Ca1       1.0  0.50000  0.00000  0.00000  1.0000
  Ca  Ca2       1.0  0.00000  0.50000  0.00000  1.0000
  Ca  Ca3       1.0  0.00000  0.00000  0.50000  1.0000
  Ca  Ca4       1.0  0.50000  0.50000  0.50000  1.0000
  Li  Li1       1.0  0.00000  0.00000  0.00000  1.0000
  N   N1        1.0  0.31100  0.31100  0.00000  1.0000
  N   N2        1.0  0.68900  0.68900  0.00000  1.0000
  N   N3        1.0  0.31100  0.00000  0.31100  1.0000
  N   N4        1.0  0.00000  0.31100  0.31100  1.0000
  N   N5        1.0  0.68900  0.00000  0.68900  1.0000
  N   N6        1.0  0.00000  0.68900  0.68900  1.0000
