data_image0
_chemical_formula_structural       B2P4Rb6
_chemical_formula_sum              "B2 P4 Rb6"
_cell_length_a       6.70285
_cell_length_b       6.70285
_cell_length_c       9.44862
_cell_angle_alpha    104.568
_cell_angle_beta     75.4315
_cell_angle_gamma    91.9147

_space_group_name_H-M_alt    "P 1"
_space_group_IT_number       1

loop_
  _space_group_symop_operation_xyz
  'x, y, z'

loop_
  _atom_site_type_symbol
  _atom_site_label
  _atom_site_symmetry_multiplicity
  _atom_site_fract_x
  _atom_site_fract_y
  _atom_site_fract_z
  _atom_site_occupancy
  B   B1        1.0  0.21700  0.21700  0.25000  1.0000
  B   B2        1.0  0.78300  0.78300  0.75000  1.0000
  P   P1        1.0  0.09850  0.34200  0.14500  1.0000
  P   P2        1.0  0.34200  0.09850  0.35500  1.0000
  P   P3        1.0  0.65800  0.90200  0.64500  1.0000
  P   P4        1.0  0.90200  0.65800  0.85500  1.0000
  Rb  Rb1       1.0  0.65500  0.24200  0.01870  1.0000
  Rb  Rb2       1.0  0.84300  0.84300  0.25000  1.0000
  Rb  Rb3       1.0  0.24200  0.65500  0.48100  1.0000
  Rb  Rb4       1.0  0.75800  0.34500  0.51900  1.0000
  Rb  Rb5       1.0  0.15700  0.15700  0.75000  1.0000
  Rb  Rb6       1.0  0.34500  0.75800  0.98100  1.0000
