data_image0
_chemical_formula_structural       Ce2O8Sr4
_chemical_formula_sum              "Ce2 O8 Sr4"
_cell_length_a       6.20915
_cell_length_b       10.2545
_cell_length_c       3.69659
_cell_angle_alpha    90
_cell_angle_beta     90
_cell_angle_gamma    90

_space_group_name_H-M_alt    "P 1"
_space_group_IT_number       1

loop_
  _space_group_symop_operation_xyz
  'x, y, z'

loop_
  _atom_site_type_symbol
  _atom_site_label
  _atom_site_symmetry_multiplicity
  _atom_site_fract_x
  _atom_site_fract_y
  _atom_site_fract_z
  _atom_site_occupancy
  Ce  Ce1       1.0  0.00000  0.00000  0.00000  1.0000
  Ce  Ce2       1.0  0.50000  0.50000  0.00000  1.0000
  O   O1        1.0  0.15400  0.20900  0.00000  1.0000
  O   O2        1.0  0.65400  0.29100  0.00000  1.0000
  O   O3        1.0  0.34600  0.70900  0.00000  1.0000
  O   O4        1.0  0.84600  0.79100  0.00000  1.0000
  O   O5        1.0  0.76000  0.04420  0.50000  1.0000
  O   O6        1.0  0.26000  0.45600  0.50000  1.0000
  O   O7        1.0  0.74000  0.54400  0.50000  1.0000
  O   O8        1.0  0.24000  0.95600  0.50000  1.0000
  Sr  Sr1       1.0  0.43500  0.17700  0.50000  1.0000
  Sr  Sr2       1.0  0.93500  0.32300  0.50000  1.0000
  Sr  Sr3       1.0  0.06510  0.67700  0.50000  1.0000
  Sr  Sr4       1.0  0.56500  0.82300  0.50000  1.0000
