data_image0
_chemical_formula_structural       Cu2Ge8Zr4
_chemical_formula_sum              "Cu2 Ge8 Zr4"
_cell_length_a       3.80488
_cell_length_b       3.82189
_cell_length_c       16.8935
_cell_angle_alpha    83.505
_cell_angle_beta     90
_cell_angle_gamma    90

_space_group_name_H-M_alt    "P 1"
_space_group_IT_number       1

loop_
  _space_group_symop_operation_xyz
  'x, y, z'

loop_
  _atom_site_type_symbol
  _atom_site_label
  _atom_site_symmetry_multiplicity
  _atom_site_fract_x
  _atom_site_fract_y
  _atom_site_fract_z
  _atom_site_occupancy
  Cu  Cu1       1.0  0.75000  0.25000  0.50000  1.0000
  Cu  Cu2       1.0  0.25000  0.75000  0.50000  1.0000
  Ge  Ge1       1.0  0.25000  0.47300  0.05350  1.0000
  Ge  Ge2       1.0  0.75000  0.38700  0.22600  1.0000
  Ge  Ge3       1.0  0.25000  0.88700  0.22600  1.0000
  Ge  Ge4       1.0  0.75000  0.79800  0.40400  1.0000
  Ge  Ge5       1.0  0.25000  0.20200  0.59600  1.0000
  Ge  Ge6       1.0  0.75000  0.11300  0.77400  1.0000
  Ge  Ge7       1.0  0.25000  0.61300  0.77400  1.0000
  Ge  Ge8       1.0  0.75000  0.52700  0.94700  1.0000
  Zr  Zr1       1.0  0.75000  0.95300  0.09460  1.0000
  Zr  Zr2       1.0  0.25000  0.32200  0.35500  1.0000
  Zr  Zr3       1.0  0.75000  0.67800  0.64500  1.0000
  Zr  Zr4       1.0  0.25000  0.04730  0.90500  1.0000
