data_image0
_chemical_formula_structural       Ni10Sb4
_chemical_formula_sum              "Ni10 Sb4"
_cell_length_a       5.42279
_cell_length_b       6.13884
_cell_length_c       7.02796
_cell_angle_alpha    115.524
_cell_angle_beta     112.693
_cell_angle_gamma    90

_space_group_name_H-M_alt    "P 1"
_space_group_IT_number       1

loop_
  _space_group_symop_operation_xyz
  'x, y, z'

loop_
  _atom_site_type_symbol
  _atom_site_label
  _atom_site_symmetry_multiplicity
  _atom_site_fract_x
  _atom_site_fract_y
  _atom_site_fract_z
  _atom_site_occupancy
  Ni  Ni1       1.0  0.25000  0.00000  0.00000  1.0000
  Ni  Ni2       1.0  0.75100  0.00000  0.00000  1.0000
  Ni  Ni3       1.0  0.10600  0.40500  0.20500  1.0000
  Ni  Ni4       1.0  0.62600  0.84800  0.25300  1.0000
  Ni  Ni5       1.0  0.98200  0.25700  0.45700  1.0000
  Ni  Ni6       1.0  0.48100  0.25700  0.45900  1.0000
  Ni  Ni7       1.0  0.02150  0.74300  0.54100  1.0000
  Ni  Ni8       1.0  0.52500  0.74300  0.54300  1.0000
  Ni  Ni9       1.0  0.37300  0.15200  0.74700  1.0000
  Ni  Ni10      1.0  0.90100  0.59500  0.79500  1.0000
  Sb  Sb1       1.0  0.60500  0.40200  0.20700  1.0000
  Sb  Sb2       1.0  0.12700  0.84800  0.25300  1.0000
  Sb  Sb3       1.0  0.87500  0.15200  0.74700  1.0000
  Sb  Sb4       1.0  0.39800  0.59800  0.79300  1.0000
