data_image0
_chemical_formula_structural       Ca6N6V2
_chemical_formula_sum              "Ca6 N6 V2"
_cell_length_a       5.09345
_cell_length_b       6.75044
_cell_length_c       6.75044
_cell_angle_alpha    100.887
_cell_angle_beta     90
_cell_angle_gamma    90

_space_group_name_H-M_alt    "P 1"
_space_group_IT_number       1

loop_
  _space_group_symop_operation_xyz
  'x, y, z'

loop_
  _atom_site_type_symbol
  _atom_site_label
  _atom_site_symmetry_multiplicity
  _atom_site_fract_x
  _atom_site_fract_y
  _atom_site_fract_z
  _atom_site_occupancy
  Ca  Ca1       1.0  0.25000  0.89400  0.10600  1.0000
  Ca  Ca2       1.0  0.25000  0.39700  0.16900  1.0000
  Ca  Ca3       1.0  0.75000  0.16900  0.39700  1.0000
  Ca  Ca4       1.0  0.25000  0.83100  0.60300  1.0000
  Ca  Ca5       1.0  0.75000  0.60300  0.83100  1.0000
  Ca  Ca6       1.0  0.75000  0.10600  0.89400  1.0000
  N   N1        1.0  0.75000  0.87400  0.12600  1.0000
  N   N2        1.0  0.75000  0.42900  0.18100  1.0000
  N   N3        1.0  0.25000  0.18100  0.42900  1.0000
  N   N4        1.0  0.75000  0.81900  0.57100  1.0000
  N   N5        1.0  0.25000  0.57100  0.81900  1.0000
  N   N6        1.0  0.25000  0.12600  0.87400  1.0000
  V   V1        1.0  0.75000  0.69600  0.30400  1.0000
  V   V2        1.0  0.25000  0.30400  0.69600  1.0000
