data_image0
_chemical_formula_structural       Eu4Pd4Sn4
_chemical_formula_sum              "Eu4 Pd4 Sn4"
_cell_length_a       7.44221
_cell_length_b       4.68681
_cell_length_c       8.06166
_cell_angle_alpha    90
_cell_angle_beta     90
_cell_angle_gamma    90

_space_group_name_H-M_alt    "P 1"
_space_group_IT_number       1

loop_
  _space_group_symop_operation_xyz
  'x, y, z'

loop_
  _atom_site_type_symbol
  _atom_site_label
  _atom_site_symmetry_multiplicity
  _atom_site_fract_x
  _atom_site_fract_y
  _atom_site_fract_z
  _atom_site_occupancy
  Eu  Eu1       1.0  0.47100  0.75000  0.18100  1.0000
  Eu  Eu2       1.0  0.97100  0.75000  0.31900  1.0000
  Eu  Eu3       1.0  0.02870  0.25000  0.68100  1.0000
  Eu  Eu4       1.0  0.52900  0.25000  0.81900  1.0000
  Pd  Pd1       1.0  0.78600  0.25000  0.11300  1.0000
  Pd  Pd2       1.0  0.28600  0.25000  0.38700  1.0000
  Pd  Pd3       1.0  0.71400  0.75000  0.61300  1.0000
  Pd  Pd4       1.0  0.21400  0.75000  0.88700  1.0000
  Sn  Sn1       1.0  0.15800  0.25000  0.06890  1.0000
  Sn  Sn2       1.0  0.65800  0.25000  0.43100  1.0000
  Sn  Sn3       1.0  0.34200  0.75000  0.56900  1.0000
  Sn  Sn4       1.0  0.84200  0.75000  0.93100  1.0000
