data_image0
_chemical_formula_structural       Cl2Fe2O6Sr4
_chemical_formula_sum              "Cl2 Fe2 O6 Sr4"
_cell_length_a       3.9456
_cell_length_b       3.9456
_cell_length_c       14.218
_cell_angle_alpha    90
_cell_angle_beta     90
_cell_angle_gamma    90

_space_group_name_H-M_alt    "P 1"
_space_group_IT_number       1

loop_
  _space_group_symop_operation_xyz
  'x, y, z'

loop_
  _atom_site_type_symbol
  _atom_site_label
  _atom_site_symmetry_multiplicity
  _atom_site_fract_x
  _atom_site_fract_y
  _atom_site_fract_z
  _atom_site_occupancy
  Cl  Cl1       1.0  0.75000  0.75000  0.42500  1.0000
  Cl  Cl2       1.0  0.25000  0.25000  0.57500  1.0000
  Fe  Fe1       1.0  0.75000  0.75000  0.20800  1.0000
  Fe  Fe2       1.0  0.25000  0.25000  0.79200  1.0000
  O   O1        1.0  0.75000  0.75000  0.07430  1.0000
  O   O2        1.0  0.75000  0.25000  0.23100  1.0000
  O   O3        1.0  0.25000  0.75000  0.23100  1.0000
  O   O4        1.0  0.75000  0.25000  0.76900  1.0000
  O   O5        1.0  0.25000  0.75000  0.76900  1.0000
  O   O6        1.0  0.25000  0.25000  0.92600  1.0000
  Sr  Sr1       1.0  0.25000  0.25000  0.09690  1.0000
  Sr  Sr2       1.0  0.25000  0.25000  0.34600  1.0000
  Sr  Sr3       1.0  0.75000  0.75000  0.65400  1.0000
  Sr  Sr4       1.0  0.75000  0.75000  0.90300  1.0000
