data_image0
_chemical_formula_structural       CCl8Sc5
_chemical_formula_sum              "C1 Cl8 Sc5"
_cell_length_a       3.54482
_cell_length_b       9.25109
_cell_length_c       9.61752
_cell_angle_alpha    80.5585
_cell_angle_beta     100.62
_cell_angle_gamma    101.046

_space_group_name_H-M_alt    "P 1"
_space_group_IT_number       1

loop_
  _space_group_symop_operation_xyz
  'x, y, z'

loop_
  _atom_site_type_symbol
  _atom_site_label
  _atom_site_symmetry_multiplicity
  _atom_site_fract_x
  _atom_site_fract_y
  _atom_site_fract_z
  _atom_site_occupancy
  C   C1        1.0  0.00000  0.50000  0.50000  1.0000
  Cl  Cl1       1.0  0.62900  0.15700  0.10100  1.0000
  Cl  Cl2       1.0  0.33000  0.49200  0.16900  1.0000
  Cl  Cl3       1.0  0.02850  0.82100  0.23600  1.0000
  Cl  Cl4       1.0  0.30200  0.16900  0.43500  1.0000
  Cl  Cl5       1.0  0.69800  0.83100  0.56500  1.0000
  Cl  Cl6       1.0  0.97200  0.17900  0.76400  1.0000
  Cl  Cl7       1.0  0.67000  0.50800  0.83100  1.0000
  Cl  Cl8       1.0  0.37100  0.84300  0.89900  1.0000
  Sc  Sc1       1.0  0.00000  0.00000  0.00000  1.0000
  Sc  Sc2       1.0  0.84200  0.35400  0.33000  1.0000
  Sc  Sc3       1.0  0.51200  0.63600  0.38700  1.0000
  Sc  Sc4       1.0  0.48800  0.36400  0.61300  1.0000
  Sc  Sc5       1.0  0.15800  0.64600  0.67000  1.0000
