data_image0
_chemical_formula_structural       Ge2K4Se6
_chemical_formula_sum              "Ge2 K4 Se6"
_cell_length_a       8.71131
_cell_length_b       7.59047
_cell_length_c       6.96147
_cell_angle_alpha    66.4195
_cell_angle_beta     71.9357
_cell_angle_gamma    74.8546

_space_group_name_H-M_alt    "P 1"
_space_group_IT_number       1

loop_
  _space_group_symop_operation_xyz
  'x, y, z'

loop_
  _atom_site_type_symbol
  _atom_site_label
  _atom_site_symmetry_multiplicity
  _atom_site_fract_x
  _atom_site_fract_y
  _atom_site_fract_z
  _atom_site_occupancy
  Ge  Ge1       1.0  0.31400  0.94100  0.13800  1.0000
  Ge  Ge2       1.0  0.68600  0.05910  0.86200  1.0000
  K   K1        1.0  0.68400  0.46000  0.15400  1.0000
  K   K2        1.0  0.88400  0.79900  0.40000  1.0000
  K   K3        1.0  0.11600  0.20100  0.60000  1.0000
  K   K4        1.0  0.31600  0.54000  0.84600  1.0000
  Se  Se1       1.0  0.08500  0.18400  0.12900  1.0000
  Se  Se2       1.0  0.52800  0.03610  0.22800  1.0000
  Se  Se3       1.0  0.28200  0.61700  0.33500  1.0000
  Se  Se4       1.0  0.71800  0.38300  0.66500  1.0000
  Se  Se5       1.0  0.47200  0.96400  0.77200  1.0000
  Se  Se6       1.0  0.91500  0.81600  0.87100  1.0000
