data_image0
_chemical_formula_structural       Ge4N4Sr6
_chemical_formula_sum              "Ge4 N4 Sr6"
_cell_length_a       9.04257
_cell_length_b       3.88212
_cell_length_c       9.64386
_cell_angle_alpha    90
_cell_angle_beta     112.639
_cell_angle_gamma    90

_space_group_name_H-M_alt    "P 1"
_space_group_IT_number       1

loop_
  _space_group_symop_operation_xyz
  'x, y, z'

loop_
  _atom_site_type_symbol
  _atom_site_label
  _atom_site_symmetry_multiplicity
  _atom_site_fract_x
  _atom_site_fract_y
  _atom_site_fract_z
  _atom_site_occupancy
  Ge  Ge1       1.0  0.08650  0.75000  0.05740  1.0000
  Ge  Ge2       1.0  0.76000  0.25000  0.35000  1.0000
  Ge  Ge3       1.0  0.24000  0.75000  0.65000  1.0000
  Ge  Ge4       1.0  0.91400  0.25000  0.94300  1.0000
  N   N1        1.0  0.57000  0.25000  0.17400  1.0000
  N   N2        1.0  0.31500  0.75000  0.49100  1.0000
  N   N3        1.0  0.68500  0.25000  0.50900  1.0000
  N   N4        1.0  0.43000  0.75000  0.82600  1.0000
  Sr  Sr1       1.0  0.68300  0.75000  0.05650  1.0000
  Sr  Sr2       1.0  0.48100  0.75000  0.33000  1.0000
  Sr  Sr3       1.0  0.11800  0.25000  0.35200  1.0000
  Sr  Sr4       1.0  0.88200  0.75000  0.64800  1.0000
  Sr  Sr5       1.0  0.51900  0.25000  0.67000  1.0000
  Sr  Sr6       1.0  0.31700  0.25000  0.94300  1.0000
