data_image0
_chemical_formula_structural       Ca6Mn2N6
_chemical_formula_sum              "Ca6 Mn2 N6"
_cell_length_a       5.01097
_cell_length_b       6.52851
_cell_length_c       6.52851
_cell_angle_alpha    101.108
_cell_angle_beta     90
_cell_angle_gamma    90

_space_group_name_H-M_alt    "P 1"
_space_group_IT_number       1

loop_
  _space_group_symop_operation_xyz
  'x, y, z'

loop_
  _atom_site_type_symbol
  _atom_site_label
  _atom_site_symmetry_multiplicity
  _atom_site_fract_x
  _atom_site_fract_y
  _atom_site_fract_z
  _atom_site_occupancy
  Ca  Ca1       1.0  0.75000  0.32800  0.09450  1.0000
  Ca  Ca2       1.0  0.25000  0.09450  0.32800  1.0000
  Ca  Ca3       1.0  0.25000  0.60900  0.39100  1.0000
  Ca  Ca4       1.0  0.75000  0.39100  0.60900  1.0000
  Ca  Ca5       1.0  0.75000  0.90600  0.67200  1.0000
  Ca  Ca6       1.0  0.25000  0.67200  0.90600  1.0000
  Mn  Mn1       1.0  0.75000  0.80200  0.19800  1.0000
  Mn  Mn2       1.0  0.25000  0.19800  0.80200  1.0000
  N   N1        1.0  0.25000  0.31600  0.06070  1.0000
  N   N2        1.0  0.75000  0.06070  0.31600  1.0000
  N   N3        1.0  0.75000  0.62900  0.37100  1.0000
  N   N4        1.0  0.25000  0.37100  0.62900  1.0000
  N   N5        1.0  0.25000  0.93900  0.68400  1.0000
  N   N6        1.0  0.75000  0.68400  0.93900  1.0000
