data_image0
_chemical_formula_structural       Cu4Te6Ti2
_chemical_formula_sum              "Cu4 Te6 Ti2"
_cell_length_a       3.99005
_cell_length_b       7.13065
_cell_length_c       10.1303
_cell_angle_alpha    96.2479
_cell_angle_beta     101.358
_cell_angle_gamma    90

_space_group_name_H-M_alt    "P 1"
_space_group_IT_number       1

loop_
  _space_group_symop_operation_xyz
  'x, y, z'

loop_
  _atom_site_type_symbol
  _atom_site_label
  _atom_site_symmetry_multiplicity
  _atom_site_fract_x
  _atom_site_fract_y
  _atom_site_fract_z
  _atom_site_occupancy
  Cu  Cu1       1.0  0.04510  0.65300  0.09020  1.0000
  Cu  Cu2       1.0  0.71300  0.92800  0.42700  1.0000
  Cu  Cu3       1.0  0.28700  0.07230  0.57300  1.0000
  Cu  Cu4       1.0  0.95500  0.34700  0.91000  1.0000
  Te  Te1       1.0  0.58200  0.86900  0.16400  1.0000
  Te  Te2       1.0  0.08810  0.32800  0.17600  1.0000
  Te  Te3       1.0  0.24800  0.70700  0.49500  1.0000
  Te  Te4       1.0  0.75200  0.29300  0.50500  1.0000
  Te  Te5       1.0  0.91200  0.67200  0.82400  1.0000
  Te  Te6       1.0  0.41800  0.13100  0.83600  1.0000
  Ti  Ti1       1.0  0.64600  0.56100  0.29200  1.0000
  Ti  Ti2       1.0  0.35400  0.43900  0.70800  1.0000
