data_image0
_chemical_formula_structural       In4N2Sr8
_chemical_formula_sum              "In4 N2 Sr8"
_cell_length_a       5.30019
_cell_length_b       5.30019
_cell_length_c       15.8669
_cell_angle_alpha    99.6146
_cell_angle_beta     99.6146
_cell_angle_gamma    90

_space_group_name_H-M_alt    "P 1"
_space_group_IT_number       1

loop_
  _space_group_symop_operation_xyz
  'x, y, z'

loop_
  _atom_site_type_symbol
  _atom_site_label
  _atom_site_symmetry_multiplicity
  _atom_site_fract_x
  _atom_site_fract_y
  _atom_site_fract_z
  _atom_site_occupancy
  In  In1       1.0  0.53300  0.28300  0.06670  1.0000
  In  In2       1.0  0.71700  0.46700  0.43300  1.0000
  In  In3       1.0  0.28300  0.53300  0.56700  1.0000
  In  In4       1.0  0.46700  0.71700  0.93300  1.0000
  N   N1        1.0  0.12500  0.87500  0.25000  1.0000
  N   N2        1.0  0.87500  0.12500  0.75000  1.0000
  Sr  Sr1       1.0  0.04350  0.79400  0.08700  1.0000
  Sr  Sr2       1.0  0.62500  0.87500  0.24900  1.0000
  Sr  Sr3       1.0  0.12500  0.37500  0.25100  1.0000
  Sr  Sr4       1.0  0.20600  0.95600  0.41300  1.0000
  Sr  Sr5       1.0  0.79400  0.04350  0.58700  1.0000
  Sr  Sr6       1.0  0.87500  0.62500  0.74900  1.0000
  Sr  Sr7       1.0  0.37500  0.12500  0.75100  1.0000
  Sr  Sr8       1.0  0.95600  0.20600  0.91300  1.0000
