data_image0
_chemical_formula_structural       Bi2Ni3S2
_chemical_formula_sum              "Bi2 Ni3 S2"
_cell_length_a       5.52188
_cell_length_b       5.52188
_cell_length_c       5.52188
_cell_angle_alpha    63.0223
_cell_angle_beta     63.0223
_cell_angle_gamma    63.0223

_space_group_name_H-M_alt    "P 1"
_space_group_IT_number       1

loop_
  _space_group_symop_operation_xyz
  'x, y, z'

loop_
  _atom_site_type_symbol
  _atom_site_label
  _atom_site_symmetry_multiplicity
  _atom_site_fract_x
  _atom_site_fract_y
  _atom_site_fract_z
  _atom_site_occupancy
  Bi  Bi1       1.0  0.00000  0.00000  0.00000  1.0000
  Bi  Bi2       1.0  0.50000  0.50000  0.50000  1.0000
  Ni  Ni1       1.0  0.00000  0.00000  0.50000  1.0000
  Ni  Ni2       1.0  0.50000  0.00000  0.00000  1.0000
  Ni  Ni3       1.0  0.00000  0.50000  0.00000  1.0000
  S   S1        1.0  0.27400  0.27400  0.27400  1.0000
  S   S2        1.0  0.72600  0.72600  0.72600  1.0000
