data_image0
_chemical_formula_structural       CuO10U3
_chemical_formula_sum              "Cu1 O10 U3"
_cell_length_a       6.51474
_cell_length_b       7.59764
_cell_length_c       5.59304
_cell_angle_alpha    109.832
_cell_angle_beta     125.396
_cell_angle_gamma    89.6552

_space_group_name_H-M_alt    "P 1"
_space_group_IT_number       1

loop_
  _space_group_symop_operation_xyz
  'x, y, z'

loop_
  _atom_site_type_symbol
  _atom_site_label
  _atom_site_symmetry_multiplicity
  _atom_site_fract_x
  _atom_site_fract_y
  _atom_site_fract_z
  _atom_site_occupancy
  Cu  Cu1       1.0  0.00000  0.50000  0.00000  1.0000
  O   O1        1.0  0.92700  0.75100  0.00813  1.0000
  O   O2        1.0  0.70900  0.46600  0.01350  1.0000
  O   O3        1.0  0.31400  0.96900  0.01790  1.0000
  O   O4        1.0  0.67300  0.36800  0.44200  1.0000
  O   O5        1.0  0.76000  0.84900  0.44600  1.0000
  O   O6        1.0  0.24000  0.15100  0.55400  1.0000
  O   O7        1.0  0.32700  0.63200  0.55800  1.0000
  O   O8        1.0  0.68600  0.03080  0.98200  1.0000
  O   O9        1.0  0.29100  0.53400  0.98600  1.0000
  O   O10       1.0  0.07290  0.24900  0.99200  1.0000
  U   U1        1.0  0.54100  0.73000  0.99300  1.0000
  U   U2        1.0  0.00000  0.00000  0.00000  1.0000
  U   U3        1.0  0.45900  0.27000  0.00681  1.0000
