data_image0
_chemical_formula_structural       Au4Cs4Se6
_chemical_formula_sum              "Au4 Cs4 Se6"
_cell_length_a       7.30957
_cell_length_b       8.36462
_cell_length_c       8.36462
_cell_angle_alpha    108.449
_cell_angle_beta     90.4717
_cell_angle_gamma    90.4717

_space_group_name_H-M_alt    "P 1"
_space_group_IT_number       1

loop_
  _space_group_symop_operation_xyz
  'x, y, z'

loop_
  _atom_site_type_symbol
  _atom_site_label
  _atom_site_symmetry_multiplicity
  _atom_site_fract_x
  _atom_site_fract_y
  _atom_site_fract_z
  _atom_site_occupancy
  Au  Au1       1.0  0.04370  0.64100  0.22400  1.0000
  Au  Au2       1.0  0.45600  0.77600  0.35900  1.0000
  Au  Au3       1.0  0.54400  0.22400  0.64100  1.0000
  Au  Au4       1.0  0.95600  0.35900  0.77600  1.0000
  Cs  Cs1       1.0  0.63700  0.34000  0.12900  1.0000
  Cs  Cs2       1.0  0.13700  0.12900  0.34000  1.0000
  Cs  Cs3       1.0  0.86300  0.87100  0.66000  1.0000
  Cs  Cs4       1.0  0.36300  0.66000  0.87100  1.0000
  Se  Se1       1.0  0.83000  0.73500  0.04450  1.0000
  Se  Se2       1.0  0.67000  0.95500  0.26500  1.0000
  Se  Se3       1.0  0.25000  0.57500  0.42500  1.0000
  Se  Se4       1.0  0.75000  0.42500  0.57500  1.0000
  Se  Se5       1.0  0.33000  0.04450  0.73500  1.0000
  Se  Se6       1.0  0.17000  0.26500  0.95500  1.0000
