data_image0
_chemical_formula_structural       Al2K2O8Si2
_chemical_formula_sum              "Al2 K2 O8 Si2"
_cell_length_a       5.12665
_cell_length_b       5.12669
_cell_length_c       8.74716
_cell_angle_alpha    90
_cell_angle_beta     90
_cell_angle_gamma    120

_space_group_name_H-M_alt    "P 1"
_space_group_IT_number       1

loop_
  _space_group_symop_operation_xyz
  'x, y, z'

loop_
  _atom_site_type_symbol
  _atom_site_label
  _atom_site_symmetry_multiplicity
  _atom_site_fract_x
  _atom_site_fract_y
  _atom_site_fract_z
  _atom_site_occupancy
  Al  Al1       1.0  0.33300  0.66700  0.04850  1.0000
  Al  Al2       1.0  0.66700  0.33300  0.54800  1.0000
  K   K1        1.0  0.00001  0.00000  0.24300  1.0000
  K   K2        1.0  0.00000  0.00000  0.74300  1.0000
  O   O1        1.0  0.33300  0.66700  0.24700  1.0000
  O   O2        1.0  0.01490  0.38300  0.49000  1.0000
  O   O3        1.0  0.36800  0.98500  0.49000  1.0000
  O   O4        1.0  0.61700  0.63200  0.49000  1.0000
  O   O5        1.0  0.66700  0.33300  0.74700  1.0000
  O   O6        1.0  0.98500  0.61700  0.99000  1.0000
  O   O7        1.0  0.63200  0.01490  0.99000  1.0000
  O   O8        1.0  0.38300  0.36800  0.99000  1.0000
  Si  Si1       1.0  0.33300  0.66700  0.43200  1.0000
  Si  Si2       1.0  0.66700  0.33300  0.93200  1.0000
