data_image0
_chemical_formula_structural       Li2Nd2O8Ti2
_chemical_formula_sum              "Li2 Nd2 O8 Ti2"
_cell_length_a       3.74592
_cell_length_b       3.74592
_cell_length_c       11.8773
_cell_angle_alpha    90
_cell_angle_beta     90
_cell_angle_gamma    90

_space_group_name_H-M_alt    "P 1"
_space_group_IT_number       1

loop_
  _space_group_symop_operation_xyz
  'x, y, z'

loop_
  _atom_site_type_symbol
  _atom_site_label
  _atom_site_symmetry_multiplicity
  _atom_site_fract_x
  _atom_site_fract_y
  _atom_site_fract_z
  _atom_site_occupancy
  Li  Li1       1.0  0.75000  0.25000  0.50000  1.0000
  Li  Li2       1.0  0.25000  0.75000  0.50000  1.0000
  Nd  Nd1       1.0  0.75000  0.75000  0.11700  1.0000
  Nd  Nd2       1.0  0.25000  0.25000  0.88300  1.0000
  O   O1        1.0  0.25000  0.25000  0.07710  1.0000
  O   O2        1.0  0.75000  0.25000  0.25200  1.0000
  O   O3        1.0  0.25000  0.75000  0.25200  1.0000
  O   O4        1.0  0.25000  0.25000  0.44300  1.0000
  O   O5        1.0  0.75000  0.75000  0.55700  1.0000
  O   O6        1.0  0.75000  0.25000  0.74800  1.0000
  O   O7        1.0  0.25000  0.75000  0.74800  1.0000
  O   O8        1.0  0.75000  0.75000  0.92300  1.0000
  Ti  Ti1       1.0  0.25000  0.25000  0.29100  1.0000
  Ti  Ti2       1.0  0.75000  0.75000  0.70900  1.0000
