data_image0
_chemical_formula_structural       Hg4O8W2
_chemical_formula_sum              "Hg4 O8 W2"
_cell_length_a       4.9463
_cell_length_b       7.22054
_cell_length_c       7.22054
_cell_angle_alpha    105.443
_cell_angle_beta     104.255
_cell_angle_gamma    104.255

_space_group_name_H-M_alt    "P 1"
_space_group_IT_number       1

loop_
  _space_group_symop_operation_xyz
  'x, y, z'

loop_
  _atom_site_type_symbol
  _atom_site_label
  _atom_site_symmetry_multiplicity
  _atom_site_fract_x
  _atom_site_fract_y
  _atom_site_fract_z
  _atom_site_occupancy
  Hg  Hg1       1.0  0.51800  0.47000  0.25100  1.0000
  Hg  Hg2       1.0  0.01830  0.25100  0.47000  1.0000
  Hg  Hg3       1.0  0.98200  0.74900  0.53000  1.0000
  Hg  Hg4       1.0  0.48200  0.53000  0.74900  1.0000
  O   O1        1.0  0.29500  0.65700  0.05070  1.0000
  O   O2        1.0  0.14900  0.18100  0.08240  1.0000
  O   O3        1.0  0.64900  0.08240  0.18100  1.0000
  O   O4        1.0  0.20500  0.94900  0.34300  1.0000
  O   O5        1.0  0.79500  0.05070  0.65700  1.0000
  O   O6        1.0  0.35100  0.91800  0.81900  1.0000
  O   O7        1.0  0.85100  0.81900  0.91800  1.0000
  O   O8        1.0  0.70500  0.34300  0.94900  1.0000
  W   W1        1.0  0.25000  0.90000  0.09960  1.0000
  W   W2        1.0  0.75000  0.09960  0.90000  1.0000
