data_image0
_chemical_formula_structural       Nd2O8Pd4
_chemical_formula_sum              "Nd2 O8 Pd4"
_cell_length_a       6.58292
_cell_length_b       5.8607
_cell_length_c       5.8607
_cell_angle_alpha    90
_cell_angle_beta     116.433
_cell_angle_gamma    116.433

_space_group_name_H-M_alt    "P 1"
_space_group_IT_number       1

loop_
  _space_group_symop_operation_xyz
  'x, y, z'

loop_
  _atom_site_type_symbol
  _atom_site_label
  _atom_site_symmetry_multiplicity
  _atom_site_fract_x
  _atom_site_fract_y
  _atom_site_fract_z
  _atom_site_occupancy
  Nd  Nd1       1.0  0.75000  0.87500  0.12500  1.0000
  Nd  Nd2       1.0  0.25000  0.12500  0.87500  1.0000
  O   O1        1.0  0.35300  0.82600  0.12400  1.0000
  O   O2        1.0  0.14700  0.27100  0.17400  1.0000
  O   O3        1.0  0.64700  0.47300  0.27100  1.0000
  O   O4        1.0  0.14700  0.87600  0.47300  1.0000
  O   O5        1.0  0.85300  0.12400  0.52700  1.0000
  O   O6        1.0  0.35300  0.52700  0.72900  1.0000
  O   O7        1.0  0.85300  0.72900  0.82600  1.0000
  O   O8        1.0  0.64700  0.17400  0.87600  1.0000
  Pd  Pd1       1.0  0.00000  0.50000  0.00000  1.0000
  Pd  Pd2       1.0  0.50000  0.00000  0.50000  1.0000
  Pd  Pd3       1.0  0.50000  0.50000  0.50000  1.0000
  Pd  Pd4       1.0  0.00000  0.50000  0.50000  1.0000
