data_image0
_chemical_formula_structural       Cs4S6Si2
_chemical_formula_sum              "Cs4 S6 Si2"
_cell_length_a       7.23523
_cell_length_b       7.82731
_cell_length_c       8.98403
_cell_angle_alpha    107.029
_cell_angle_beta     113.745
_cell_angle_gamma    62.4722

_space_group_name_H-M_alt    "P 1"
_space_group_IT_number       1

loop_
  _space_group_symop_operation_xyz
  'x, y, z'

loop_
  _atom_site_type_symbol
  _atom_site_label
  _atom_site_symmetry_multiplicity
  _atom_site_fract_x
  _atom_site_fract_y
  _atom_site_fract_z
  _atom_site_occupancy
  Cs  Cs1       1.0  0.92200  0.29900  0.14200  1.0000
  Cs  Cs2       1.0  0.69900  0.91400  0.31200  1.0000
  Cs  Cs3       1.0  0.30100  0.08570  0.68800  1.0000
  Cs  Cs4       1.0  0.07850  0.70100  0.85800  1.0000
  S   S1        1.0  0.39100  0.33900  0.12100  1.0000
  S   S2        1.0  0.22000  0.84000  0.28100  1.0000
  S   S3        1.0  0.27600  0.50000  0.50000  1.0000
  S   S4        1.0  0.72400  0.50000  0.50000  1.0000
  S   S5        1.0  0.78000  0.16000  0.71900  1.0000
  S   S6        1.0  0.60900  0.66100  0.87900  1.0000
  Si  Si1       1.0  0.38800  0.55000  0.32600  1.0000
  Si  Si2       1.0  0.61200  0.45000  0.67400  1.0000
