data_image0
_chemical_formula_structural       Cs4Se6Zr2
_chemical_formula_sum              "Cs4 Se6 Zr2"
_cell_length_a       7.1967
_cell_length_b       8.18137
_cell_length_c       8.18137
_cell_angle_alpha    71.8199
_cell_angle_beta     90
_cell_angle_gamma    90

_space_group_name_H-M_alt    "P 1"
_space_group_IT_number       1

loop_
  _space_group_symop_operation_xyz
  'x, y, z'

loop_
  _atom_site_type_symbol
  _atom_site_label
  _atom_site_symmetry_multiplicity
  _atom_site_fract_x
  _atom_site_fract_y
  _atom_site_fract_z
  _atom_site_occupancy
  Cs  Cs1       1.0  0.25000  0.50800  0.18200  1.0000
  Cs  Cs2       1.0  0.25000  0.81800  0.49200  1.0000
  Cs  Cs3       1.0  0.75000  0.18200  0.50800  1.0000
  Cs  Cs4       1.0  0.75000  0.49200  0.81800  1.0000
  Se  Se1       1.0  0.00000  0.13800  0.13800  1.0000
  Se  Se2       1.0  0.50000  0.13800  0.13800  1.0000
  Se  Se3       1.0  0.75000  0.65800  0.34200  1.0000
  Se  Se4       1.0  0.25000  0.34200  0.65800  1.0000
  Se  Se5       1.0  0.00000  0.86200  0.86200  1.0000
  Se  Se6       1.0  0.50000  0.86200  0.86200  1.0000
  Zr  Zr1       1.0  0.75000  0.91800  0.08180  1.0000
  Zr  Zr2       1.0  0.25000  0.08180  0.91800  1.0000
