data_image0
_chemical_formula_structural       C4FeHgN4S4
_chemical_formula_sum              "C4 Fe1 Hg1 N4 S4"
_cell_length_a       4.28048
_cell_length_b       8.20729
_cell_length_c       8.20729
_cell_angle_alpha    93.8993
_cell_angle_beta     74.8841
_cell_angle_gamma    105.116

_space_group_name_H-M_alt    "P 1"
_space_group_IT_number       1

loop_
  _space_group_symop_operation_xyz
  'x, y, z'

loop_
  _atom_site_type_symbol
  _atom_site_label
  _atom_site_symmetry_multiplicity
  _atom_site_fract_x
  _atom_site_fract_y
  _atom_site_fract_z
  _atom_site_occupancy
  C   C1        1.0  0.60600  0.64500  0.19200  1.0000
  C   C2        1.0  0.03860  0.19200  0.35500  1.0000
  C   C3        1.0  0.20200  0.80800  0.64500  1.0000
  C   C4        1.0  0.15300  0.35500  0.80800  1.0000
  Fe  Fe1       1.0  0.75000  0.50000  0.50000  1.0000
  Hg  Hg1       1.0  0.00000  0.00000  0.00000  1.0000
  N   N1        1.0  0.65100  0.59000  0.31100  1.0000
  N   N2        1.0  0.93900  0.31100  0.41000  1.0000
  N   N3        1.0  0.03780  0.68900  0.59000  1.0000
  N   N4        1.0  0.37200  0.41000  0.68900  1.0000
  S   S1        1.0  0.54000  0.71400  0.02560  1.0000
  S   S2        1.0  0.17400  0.02560  0.28600  1.0000
  S   S3        1.0  0.43400  0.97400  0.71400  1.0000
  S   S4        1.0  0.85100  0.28600  0.97400  1.0000
