data_image0
_chemical_formula_structural       KNiO9P3
_chemical_formula_sum              "K1 Ni1 O9 P3"
_cell_length_a       6.19285
_cell_length_b       6.19285
_cell_length_c       6.19285
_cell_angle_alpha    107.112
_cell_angle_beta     107.112
_cell_angle_gamma    107.112

_space_group_name_H-M_alt    "P 1"
_space_group_IT_number       1

loop_
  _space_group_symop_operation_xyz
  'x, y, z'

loop_
  _atom_site_type_symbol
  _atom_site_label
  _atom_site_symmetry_multiplicity
  _atom_site_fract_x
  _atom_site_fract_y
  _atom_site_fract_z
  _atom_site_occupancy
  K   K1        1.0  0.49700  0.49700  0.49700  1.0000
  Ni  Ni1       1.0  0.00496  0.00496  0.00496  1.0000
  O   O1        1.0  0.37200  0.10500  0.07960  1.0000
  O   O2        1.0  0.07960  0.37200  0.10500  1.0000
  O   O3        1.0  0.85600  0.62200  0.26500  1.0000
  O   O4        1.0  0.10500  0.07960  0.37200  1.0000
  O   O5        1.0  0.26500  0.85600  0.62200  1.0000
  O   O6        1.0  0.89100  0.94900  0.64000  1.0000
  O   O7        1.0  0.62200  0.26500  0.85600  1.0000
  O   O8        1.0  0.94900  0.64000  0.89100  1.0000
  O   O9        1.0  0.64000  0.89100  0.94900  1.0000
  P   P1        1.0  0.89900  0.47900  0.02530  1.0000
  P   P2        1.0  0.02530  0.89900  0.47900  1.0000
  P   P3        1.0  0.47900  0.02530  0.89900  1.0000
