data_image0
_chemical_formula_structural       Cu4La2O8
_chemical_formula_sum              "Cu4 La2 O8"
_cell_length_a       5.8302
_cell_length_b       5.8692
_cell_length_c       6.33456
_cell_angle_alpha    116.419
_cell_angle_beta     116.214
_cell_angle_gamma    92.2835

_space_group_name_H-M_alt    "P 1"
_space_group_IT_number       1

loop_
  _space_group_symop_operation_xyz
  'x, y, z'

loop_
  _atom_site_type_symbol
  _atom_site_label
  _atom_site_symmetry_multiplicity
  _atom_site_fract_x
  _atom_site_fract_y
  _atom_site_fract_z
  _atom_site_occupancy
  Cu  Cu1       1.0  0.50000  0.50000  0.00000  1.0000
  Cu  Cu2       1.0  0.50000  0.00000  0.00000  1.0000
  Cu  Cu3       1.0  0.00000  0.00000  0.50000  1.0000
  Cu  Cu4       1.0  0.50000  0.00000  0.50000  1.0000
  La  La1       1.0  0.12600  0.37600  0.25200  1.0000
  La  La2       1.0  0.87400  0.62400  0.74800  1.0000
  O   O1        1.0  0.29300  0.97200  0.14500  1.0000
  O   O2        1.0  0.85300  0.67300  0.14500  1.0000
  O   O3        1.0  0.54300  0.65000  0.34800  1.0000
  O   O4        1.0  0.80500  0.19800  0.34800  1.0000
  O   O5        1.0  0.19500  0.80200  0.65200  1.0000
  O   O6        1.0  0.45700  0.35000  0.65200  1.0000
  O   O7        1.0  0.14700  0.32700  0.85500  1.0000
  O   O8        1.0  0.70700  0.02810  0.85500  1.0000
