data_image0
_chemical_formula_structural       Se4Ti3
_chemical_formula_sum              "Se4 Ti3"
_cell_length_a       3.52014
_cell_length_b       6.43209
_cell_length_c       7.10236
_cell_angle_alpha    62.4744
_cell_angle_beta     104.348
_cell_angle_gamma    90

_space_group_name_H-M_alt    "P 1"
_space_group_IT_number       1

loop_
  _space_group_symop_operation_xyz
  'x, y, z'

loop_
  _atom_site_type_symbol
  _atom_site_label
  _atom_site_symmetry_multiplicity
  _atom_site_fract_x
  _atom_site_fract_y
  _atom_site_fract_z
  _atom_site_occupancy
  Se  Se1       1.0  0.11100  0.22600  0.22300  1.0000
  Se  Se2       1.0  0.63300  0.69700  0.26600  1.0000
  Se  Se3       1.0  0.36700  0.30300  0.73400  1.0000
  Se  Se4       1.0  0.88900  0.77400  0.77700  1.0000
  Ti  Ti1       1.0  0.00000  0.00000  0.00000  1.0000
  Ti  Ti2       1.0  0.74900  0.21000  0.49800  1.0000
  Ti  Ti3       1.0  0.25100  0.79000  0.50200  1.0000
