data_image0
_chemical_formula_structural       Eu4Sn4Zn4
_chemical_formula_sum              "Eu4 Sn4 Zn4"
_cell_length_a       7.76086
_cell_length_b       4.76775
_cell_length_c       8.0008
_cell_angle_alpha    90
_cell_angle_beta     90
_cell_angle_gamma    90

_space_group_name_H-M_alt    "P 1"
_space_group_IT_number       1

loop_
  _space_group_symop_operation_xyz
  'x, y, z'

loop_
  _atom_site_type_symbol
  _atom_site_label
  _atom_site_symmetry_multiplicity
  _atom_site_fract_x
  _atom_site_fract_y
  _atom_site_fract_z
  _atom_site_occupancy
  Eu  Eu1       1.0  0.50400  0.75000  0.21200  1.0000
  Eu  Eu2       1.0  0.00374  0.75000  0.28800  1.0000
  Eu  Eu3       1.0  0.99600  0.25000  0.71200  1.0000
  Eu  Eu4       1.0  0.49600  0.25000  0.78800  1.0000
  Sn  Sn1       1.0  0.79300  0.25000  0.09150  1.0000
  Sn  Sn2       1.0  0.29300  0.25000  0.40800  1.0000
  Sn  Sn3       1.0  0.70700  0.75000  0.59200  1.0000
  Sn  Sn4       1.0  0.20700  0.75000  0.90800  1.0000
  Zn  Zn1       1.0  0.17700  0.25000  0.08310  1.0000
  Zn  Zn2       1.0  0.67700  0.25000  0.41700  1.0000
  Zn  Zn3       1.0  0.32300  0.75000  0.58300  1.0000
  Zn  Zn4       1.0  0.82300  0.75000  0.91700  1.0000
