data_image0
_chemical_formula_structural       Er6Ge8
_chemical_formula_sum              "Er6 Ge8"
_cell_length_a       4.02804
_cell_length_b       5.67615
_cell_length_c       14.2112
_cell_angle_alpha    90
_cell_angle_beta     90
_cell_angle_gamma    69.2175

_space_group_name_H-M_alt    "P 1"
_space_group_IT_number       1

loop_
  _space_group_symop_operation_xyz
  'x, y, z'

loop_
  _atom_site_type_symbol
  _atom_site_label
  _atom_site_symmetry_multiplicity
  _atom_site_fract_x
  _atom_site_fract_y
  _atom_site_fract_z
  _atom_site_occupancy
  Er  Er1       1.0  0.66800  0.66400  0.09680  1.0000
  Er  Er2       1.0  0.95200  0.09520  0.25000  1.0000
  Er  Er3       1.0  0.66800  0.66400  0.40300  1.0000
  Er  Er4       1.0  0.33200  0.33600  0.59700  1.0000
  Er  Er5       1.0  0.04760  0.90500  0.75000  1.0000
  Er  Er6       1.0  0.33200  0.33600  0.90300  1.0000
  Ge  Ge1       1.0  0.00000  0.00000  0.00000  1.0000
  Ge  Ge2       1.0  0.37900  0.24200  0.10800  1.0000
  Ge  Ge3       1.0  0.22300  0.55400  0.25000  1.0000
  Ge  Ge4       1.0  0.37900  0.24200  0.39200  1.0000
  Ge  Ge5       1.0  0.00000  0.00000  0.50000  1.0000
  Ge  Ge6       1.0  0.62100  0.75800  0.60800  1.0000
  Ge  Ge7       1.0  0.77700  0.44600  0.75000  1.0000
  Ge  Ge8       1.0  0.62100  0.75800  0.89200  1.0000
