data_image0
_chemical_formula_structural       P6Pr2Zn6
_chemical_formula_sum              "P6 Pr2 Zn6"
_cell_length_a       4.04945
_cell_length_b       4.0494
_cell_length_c       20.0796
_cell_angle_alpha    90
_cell_angle_beta     90
_cell_angle_gamma    120

_space_group_name_H-M_alt    "P 1"
_space_group_IT_number       1

loop_
  _space_group_symop_operation_xyz
  'x, y, z'

loop_
  _atom_site_type_symbol
  _atom_site_label
  _atom_site_symmetry_multiplicity
  _atom_site_fract_x
  _atom_site_fract_y
  _atom_site_fract_z
  _atom_site_occupancy
  P   P1        1.0  0.66700  0.33300  0.08850  1.0000
  P   P2        1.0  0.33300  0.66700  0.25000  1.0000
  P   P3        1.0  0.66700  0.33300  0.41200  1.0000
  P   P4        1.0  0.33300  0.66700  0.58800  1.0000
  P   P5        1.0  0.66700  0.33300  0.75000  1.0000
  P   P6        1.0  0.33300  0.66700  0.91200  1.0000
  Pr  Pr1       1.0  0.00000  0.00000  0.00000  1.0000
  Pr  Pr2       1.0  0.00000  0.00000  0.50000  1.0000
  Zn  Zn1       1.0  0.33300  0.66700  0.13000  1.0000
  Zn  Zn2       1.0  0.66700  0.33300  0.25000  1.0000
  Zn  Zn3       1.0  0.33300  0.66700  0.37000  1.0000
  Zn  Zn4       1.0  0.66700  0.33300  0.63000  1.0000
  Zn  Zn5       1.0  0.33300  0.66700  0.75000  1.0000
  Zn  Zn6       1.0  0.66700  0.33300  0.87000  1.0000
