data_image0
_chemical_formula_structural       P10Y2
_chemical_formula_sum              "P10 Y2"
_cell_length_a       4.9325
_cell_length_b       9.42164
_cell_length_c       5.35851
_cell_angle_alpha    90
_cell_angle_beta     102.524
_cell_angle_gamma    90

_space_group_name_H-M_alt    "P 1"
_space_group_IT_number       1

loop_
  _space_group_symop_operation_xyz
  'x, y, z'

loop_
  _atom_site_type_symbol
  _atom_site_label
  _atom_site_symmetry_multiplicity
  _atom_site_fract_x
  _atom_site_fract_y
  _atom_site_fract_z
  _atom_site_occupancy
  P   P1        1.0  0.38200  0.59200  0.04290  1.0000
  P   P2        1.0  0.38200  0.90800  0.04290  1.0000
  P   P3        1.0  0.72400  0.75000  0.10500  1.0000
  P   P4        1.0  0.28500  0.53000  0.40400  1.0000
  P   P5        1.0  0.28500  0.97000  0.40400  1.0000
  P   P6        1.0  0.71500  0.02950  0.59600  1.0000
  P   P7        1.0  0.71500  0.47000  0.59600  1.0000
  P   P8        1.0  0.27600  0.25000  0.89500  1.0000
  P   P9        1.0  0.61800  0.09230  0.95700  1.0000
  P   P10       1.0  0.61800  0.40800  0.95700  1.0000
  Y   Y1        1.0  0.00641  0.25000  0.34900  1.0000
  Y   Y2        1.0  0.99400  0.75000  0.65100  1.0000
