data_image0
_chemical_formula_structural       F2Fe2O6Sr4
_chemical_formula_sum              "F2 Fe2 O6 Sr4"
_cell_length_a       3.86558
_cell_length_b       3.86558
_cell_length_c       13.0477
_cell_angle_alpha    90
_cell_angle_beta     90
_cell_angle_gamma    90

_space_group_name_H-M_alt    "P 1"
_space_group_IT_number       1

loop_
  _space_group_symop_operation_xyz
  'x, y, z'

loop_
  _atom_site_type_symbol
  _atom_site_label
  _atom_site_symmetry_multiplicity
  _atom_site_fract_x
  _atom_site_fract_y
  _atom_site_fract_z
  _atom_site_occupancy
  F   F1        1.0  0.75000  0.75000  0.43400  1.0000
  F   F2        1.0  0.25000  0.25000  0.56600  1.0000
  Fe  Fe1       1.0  0.75000  0.75000  0.22800  1.0000
  Fe  Fe2       1.0  0.25000  0.25000  0.77200  1.0000
  O   O1        1.0  0.75000  0.75000  0.08150  1.0000
  O   O2        1.0  0.75000  0.25000  0.25400  1.0000
  O   O3        1.0  0.25000  0.75000  0.25400  1.0000
  O   O4        1.0  0.75000  0.25000  0.74600  1.0000
  O   O5        1.0  0.25000  0.75000  0.74600  1.0000
  O   O6        1.0  0.25000  0.25000  0.91800  1.0000
  Sr  Sr1       1.0  0.25000  0.25000  0.10500  1.0000
  Sr  Sr2       1.0  0.25000  0.25000  0.37700  1.0000
  Sr  Sr3       1.0  0.75000  0.75000  0.62300  1.0000
  Sr  Sr4       1.0  0.75000  0.75000  0.89500  1.0000
