data_image0
_chemical_formula_structural       Au5O2Rb7
_chemical_formula_sum              "Au5 O2 Rb7"
_cell_length_a       5.73277
_cell_length_b       9.43427
_cell_length_c       10.0393
_cell_angle_alpha    118.026
_cell_angle_beta     106.59
_cell_angle_gamma    90

_space_group_name_H-M_alt    "P 1"
_space_group_IT_number       1

loop_
  _space_group_symop_operation_xyz
  'x, y, z'

loop_
  _atom_site_type_symbol
  _atom_site_label
  _atom_site_symmetry_multiplicity
  _atom_site_fract_x
  _atom_site_fract_y
  _atom_site_fract_z
  _atom_site_occupancy
  Au  Au1       1.0  0.00000  0.00000  0.00000  1.0000
  Au  Au2       1.0  0.65200  0.65200  0.30300  1.0000
  Au  Au3       1.0  0.69300  0.19300  0.38600  1.0000
  Au  Au4       1.0  0.30700  0.80700  0.61400  1.0000
  Au  Au5       1.0  0.34800  0.34800  0.69700  1.0000
  O   O1        1.0  0.00000  0.21600  0.00000  1.0000
  O   O2        1.0  0.00000  0.78400  0.00000  1.0000
  Rb  Rb1       1.0  0.50000  0.21200  0.00000  1.0000
  Rb  Rb2       1.0  0.00000  0.50000  0.00000  1.0000
  Rb  Rb3       1.0  0.50000  0.78800  0.00000  1.0000
  Rb  Rb4       1.0  0.16600  0.38800  0.33300  1.0000
  Rb  Rb5       1.0  0.16600  0.94400  0.33300  1.0000
  Rb  Rb6       1.0  0.83400  0.05560  0.66700  1.0000
  Rb  Rb7       1.0  0.83400  0.61200  0.66700  1.0000
