data_image0
_chemical_formula_structural       Au4Ba2O8
_chemical_formula_sum              "Au4 Ba2 O8"
_cell_length_a       6.90251
_cell_length_b       6.45079
_cell_length_c       6.45079
_cell_angle_alpha    90
_cell_angle_beta     117.858
_cell_angle_gamma    117.858

_space_group_name_H-M_alt    "P 1"
_space_group_IT_number       1

loop_
  _space_group_symop_operation_xyz
  'x, y, z'

loop_
  _atom_site_type_symbol
  _atom_site_label
  _atom_site_symmetry_multiplicity
  _atom_site_fract_x
  _atom_site_fract_y
  _atom_site_fract_z
  _atom_site_occupancy
  Au  Au1       1.0  0.00000  0.50000  0.00000  1.0000
  Au  Au2       1.0  0.00000  0.50000  0.50000  1.0000
  Au  Au3       1.0  0.50000  0.00000  0.50000  1.0000
  Au  Au4       1.0  0.50000  0.50000  0.50000  1.0000
  Ba  Ba1       1.0  0.75000  0.87500  0.12500  1.0000
  Ba  Ba2       1.0  0.25000  0.12500  0.87500  1.0000
  O   O1        1.0  0.34500  0.52400  0.15200  1.0000
  O   O2        1.0  0.15500  0.84800  0.18000  1.0000
  O   O3        1.0  0.65500  0.18000  0.30800  1.0000
  O   O4        1.0  0.15500  0.30800  0.47600  1.0000
  O   O5        1.0  0.84500  0.69200  0.52400  1.0000
  O   O6        1.0  0.34500  0.82000  0.69200  1.0000
  O   O7        1.0  0.84500  0.15200  0.82000  1.0000
  O   O8        1.0  0.65500  0.47600  0.84800  1.0000
