data_image0
_chemical_formula_structural       Cu2O5S2Sc2Sr3
_chemical_formula_sum              "Cu2 O5 S2 Sc2 Sr3"
_cell_length_a       4.07574
_cell_length_b       4.07574
_cell_length_c       13.246
_cell_angle_alpha    98.85
_cell_angle_beta     98.85
_cell_angle_gamma    90

_space_group_name_H-M_alt    "P 1"
_space_group_IT_number       1

loop_
  _space_group_symop_operation_xyz
  'x, y, z'

loop_
  _atom_site_type_symbol
  _atom_site_label
  _atom_site_symmetry_multiplicity
  _atom_site_fract_x
  _atom_site_fract_y
  _atom_site_fract_z
  _atom_site_occupancy
  Cu  Cu1       1.0  0.75000  0.25000  0.50000  1.0000
  Cu  Cu2       1.0  0.25000  0.75000  0.50000  1.0000
  O   O1        1.0  0.00000  0.00000  0.00000  1.0000
  O   O2        1.0  0.58700  0.08720  0.17400  1.0000
  O   O3        1.0  0.08720  0.58700  0.17400  1.0000
  O   O4        1.0  0.91300  0.41300  0.82600  1.0000
  O   O5        1.0  0.41300  0.91300  0.82600  1.0000
  S   S1        1.0  0.19900  0.19900  0.39800  1.0000
  S   S2        1.0  0.80100  0.80100  0.60200  1.0000
  Sc  Sc1       1.0  0.07690  0.07690  0.15400  1.0000
  Sc  Sc2       1.0  0.92300  0.92300  0.84600  1.0000
  Sr  Sr1       1.0  0.50000  0.50000  0.00000  1.0000
  Sr  Sr2       1.0  0.64500  0.64500  0.29100  1.0000
  Sr  Sr3       1.0  0.35500  0.35500  0.70900  1.0000
