data_image0
_chemical_formula_structural       Cu4Ho2O8
_chemical_formula_sum              "Cu4 Ho2 O8"
_cell_length_a       5.57704
_cell_length_b       5.63805
_cell_length_c       6.14236
_cell_angle_alpha    116.138
_cell_angle_beta     115.809
_cell_angle_gamma    92.3238

_space_group_name_H-M_alt    "P 1"
_space_group_IT_number       1

loop_
  _space_group_symop_operation_xyz
  'x, y, z'

loop_
  _atom_site_type_symbol
  _atom_site_label
  _atom_site_symmetry_multiplicity
  _atom_site_fract_x
  _atom_site_fract_y
  _atom_site_fract_z
  _atom_site_occupancy
  Cu  Cu1       1.0  0.50000  0.00000  0.00000  1.0000
  Cu  Cu2       1.0  0.50000  0.50000  0.00000  1.0000
  Cu  Cu3       1.0  1.00000  0.00000  0.50000  1.0000
  Cu  Cu4       1.0  0.50000  0.00000  0.50000  1.0000
  Ho  Ho1       1.0  0.12600  0.37600  0.25100  1.0000
  Ho  Ho2       1.0  0.87400  0.62400  0.74900  1.0000
  O   O1        1.0  0.86500  0.66600  0.14000  1.0000
  O   O2        1.0  0.27500  0.97400  0.14000  1.0000
  O   O3        1.0  0.81400  0.21800  0.35300  1.0000
  O   O4        1.0  0.53900  0.63500  0.35300  1.0000
  O   O5        1.0  0.46100  0.36500  0.64700  1.0000
  O   O6        1.0  0.18600  0.78200  0.64700  1.0000
  O   O7        1.0  0.72500  0.02600  0.86000  1.0000
  O   O8        1.0  0.13500  0.33400  0.86000  1.0000
