data_image0
_chemical_formula_structural       C4HgMnN4S4
_chemical_formula_sum              "C4 Hg1 Mn1 N4 S4"
_cell_length_a       4.2517
_cell_length_b       8.25841
_cell_length_c       8.25841
_cell_angle_alpha    93.7994
_cell_angle_beta     75.0832
_cell_angle_gamma    104.917

_space_group_name_H-M_alt    "P 1"
_space_group_IT_number       1

loop_
  _space_group_symop_operation_xyz
  'x, y, z'

loop_
  _atom_site_type_symbol
  _atom_site_label
  _atom_site_symmetry_multiplicity
  _atom_site_fract_x
  _atom_site_fract_y
  _atom_site_fract_z
  _atom_site_occupancy
  C   C1        1.0  0.60500  0.64700  0.18600  1.0000
  C   C2        1.0  0.04190  0.18600  0.35300  1.0000
  C   C3        1.0  0.20900  0.81400  0.64700  1.0000
  C   C4        1.0  0.14400  0.35300  0.81400  1.0000
  Hg  Hg1       1.0  0.00000  0.00000  0.00000  1.0000
  Mn  Mn1       1.0  0.75000  0.50000  0.50000  1.0000
  N   N1        1.0  0.64400  0.59200  0.30600  1.0000
  N   N2        1.0  0.94800  0.30600  0.40800  1.0000
  N   N3        1.0  0.05010  0.69400  0.59200  1.0000
  N   N4        1.0  0.35800  0.40800  0.69400  1.0000
  S   S1        1.0  0.54500  0.71700  0.01900  1.0000
  S   S2        1.0  0.17200  0.01900  0.28300  1.0000
  S   S3        1.0  0.43600  0.98100  0.71700  1.0000
  S   S4        1.0  0.84700  0.28300  0.98100  1.0000
