data_image0
_chemical_formula_structural       La2Li2O8Ti2
_chemical_formula_sum              "La2 Li2 O8 Ti2"
_cell_length_a       3.77256
_cell_length_b       3.77256
_cell_length_c       11.996
_cell_angle_alpha    90
_cell_angle_beta     90
_cell_angle_gamma    90

_space_group_name_H-M_alt    "P 1"
_space_group_IT_number       1

loop_
  _space_group_symop_operation_xyz
  'x, y, z'

loop_
  _atom_site_type_symbol
  _atom_site_label
  _atom_site_symmetry_multiplicity
  _atom_site_fract_x
  _atom_site_fract_y
  _atom_site_fract_z
  _atom_site_occupancy
  La  La1       1.0  0.00000  0.50000  0.38200  1.0000
  La  La2       1.0  0.50000  0.00000  0.61800  1.0000
  Li  Li1       1.0  0.00000  0.00000  0.00000  1.0000
  Li  Li2       1.0  0.50000  0.50000  0.00000  1.0000
  O   O1        1.0  0.50000  0.00000  0.05500  1.0000
  O   O2        1.0  0.00000  0.00000  0.24400  1.0000
  O   O3        1.0  0.50000  0.50000  0.24400  1.0000
  O   O4        1.0  0.50000  0.00000  0.42200  1.0000
  O   O5        1.0  0.00000  0.50000  0.57800  1.0000
  O   O6        1.0  0.00000  0.00000  0.75600  1.0000
  O   O7        1.0  0.50000  0.50000  0.75600  1.0000
  O   O8        1.0  0.00000  0.50000  0.94500  1.0000
  Ti  Ti1       1.0  0.50000  0.00000  0.20500  1.0000
  Ti  Ti2       1.0  0.00000  0.50000  0.79500  1.0000
