data_image0
_chemical_formula_structural       Cl8O4
_chemical_formula_sum              "Cl8 O4"
_cell_length_a       7.04598
_cell_length_b       7.04598
_cell_length_c       7.04598
_cell_angle_alpha    99.1335
_cell_angle_beta     114.875
_cell_angle_gamma    114.875

_space_group_name_H-M_alt    "P 1"
_space_group_IT_number       1

loop_
  _space_group_symop_operation_xyz
  'x, y, z'

loop_
  _atom_site_type_symbol
  _atom_site_label
  _atom_site_symmetry_multiplicity
  _atom_site_fract_x
  _atom_site_fract_y
  _atom_site_fract_z
  _atom_site_occupancy
  Cl  Cl1       1.0  0.56000  0.25500  0.19600  1.0000
  Cl  Cl2       1.0  0.94000  0.63600  0.19600  1.0000
  Cl  Cl3       1.0  0.05980  0.19600  0.25500  1.0000
  Cl  Cl4       1.0  0.56000  0.80400  0.36400  1.0000
  Cl  Cl5       1.0  0.44000  0.19600  0.63600  1.0000
  Cl  Cl6       1.0  0.94000  0.80400  0.74500  1.0000
  Cl  Cl7       1.0  0.05980  0.36400  0.80400  1.0000
  Cl  Cl8       1.0  0.44000  0.74500  0.80400  1.0000
  O   O1        1.0  0.75000  0.34100  0.09080  1.0000
  O   O2        1.0  0.25000  0.09080  0.34100  1.0000
  O   O3        1.0  0.75000  0.90900  0.65900  1.0000
  O   O4        1.0  0.25000  0.65900  0.90900  1.0000
