data_image0
_chemical_formula_structural       La2O8Pd4
_chemical_formula_sum              "La2 O8 Pd4"
_cell_length_a       5.90438
_cell_length_b       5.90438
_cell_length_c       6.64977
_cell_angle_alpha    116.356
_cell_angle_beta     116.356
_cell_angle_gamma    90

_space_group_name_H-M_alt    "P 1"
_space_group_IT_number       1

loop_
  _space_group_symop_operation_xyz
  'x, y, z'

loop_
  _atom_site_type_symbol
  _atom_site_label
  _atom_site_symmetry_multiplicity
  _atom_site_fract_x
  _atom_site_fract_y
  _atom_site_fract_z
  _atom_site_occupancy
  La  La1       1.0  0.00000  0.00000  0.00000  1.0000
  La  La2       1.0  0.25000  0.75000  0.50000  1.0000
  O   O1        1.0  0.25200  0.40200  0.09970  1.0000
  O   O2        1.0  0.84800  0.69800  0.09970  1.0000
  O   O3        1.0  0.40200  0.05190  0.40000  1.0000
  O   O4        1.0  0.99800  0.34800  0.40000  1.0000
  O   O5        1.0  0.94800  0.00169  0.60000  1.0000
  O   O6        1.0  0.65200  0.59800  0.60000  1.0000
  O   O7        1.0  0.59800  0.15200  0.90000  1.0000
  O   O8        1.0  0.30200  0.74800  0.90000  1.0000
  Pd  Pd1       1.0  0.62500  0.37500  0.25000  1.0000
  Pd  Pd2       1.0  0.62500  0.87500  0.25000  1.0000
  Pd  Pd3       1.0  0.12500  0.37500  0.75000  1.0000
  Pd  Pd4       1.0  0.62500  0.37500  0.75000  1.0000
