data_image0
_chemical_formula_structural       As2Nb6Te6
_chemical_formula_sum              "As2 Nb6 Te6"
_cell_length_a       10.509
_cell_length_b       10.5101
_cell_length_c       3.58479
_cell_angle_alpha    90
_cell_angle_beta     90
_cell_angle_gamma    120.012

_space_group_name_H-M_alt    "P 1"
_space_group_IT_number       1

loop_
  _space_group_symop_operation_xyz
  'x, y, z'

loop_
  _atom_site_type_symbol
  _atom_site_label
  _atom_site_symmetry_multiplicity
  _atom_site_fract_x
  _atom_site_fract_y
  _atom_site_fract_z
  _atom_site_occupancy
  As  As1       1.0  0.66700  0.33300  0.25000  1.0000
  As  As2       1.0  0.33300  0.66700  0.75000  1.0000
  Nb  Nb1       1.0  0.12600  0.50400  0.25000  1.0000
  Nb  Nb2       1.0  0.49600  0.62200  0.25000  1.0000
  Nb  Nb3       1.0  0.37800  0.87400  0.25000  1.0000
  Nb  Nb4       1.0  0.62200  0.12600  0.75000  1.0000
  Nb  Nb5       1.0  0.50400  0.37800  0.75000  1.0000
  Nb  Nb6       1.0  0.87400  0.49600  0.75000  1.0000
  Te  Te1       1.0  0.27700  0.33000  0.25000  1.0000
  Te  Te2       1.0  0.05260  0.72300  0.25000  1.0000
  Te  Te3       1.0  0.67000  0.94700  0.25000  1.0000
  Te  Te4       1.0  0.33000  0.05260  0.75000  1.0000
  Te  Te5       1.0  0.94700  0.27700  0.75000  1.0000
  Te  Te6       1.0  0.72300  0.67000  0.75000  1.0000
