data_image0
_chemical_formula_structural       Cu4O8Sm2
_chemical_formula_sum              "Cu4 O8 Sm2"
_cell_length_a       5.68938
_cell_length_b       5.74676
_cell_length_c       6.23339
_cell_angle_alpha    116.287
_cell_angle_beta     115.982
_cell_angle_gamma    92.2727

_space_group_name_H-M_alt    "P 1"
_space_group_IT_number       1

loop_
  _space_group_symop_operation_xyz
  'x, y, z'

loop_
  _atom_site_type_symbol
  _atom_site_label
  _atom_site_symmetry_multiplicity
  _atom_site_fract_x
  _atom_site_fract_y
  _atom_site_fract_z
  _atom_site_occupancy
  Cu  Cu1       1.0  0.50000  0.00000  0.00000  1.0000
  Cu  Cu2       1.0  0.50000  0.50000  0.00000  1.0000
  Cu  Cu3       1.0  0.50000  0.00000  0.50000  1.0000
  Cu  Cu4       1.0  0.00000  1.00000  0.50000  1.0000
  O   O1        1.0  0.86000  0.67000  0.14400  1.0000
  O   O2        1.0  0.28400  0.97400  0.14400  1.0000
  O   O3        1.0  0.81000  0.20900  0.35000  1.0000
  O   O4        1.0  0.54000  0.64200  0.35000  1.0000
  O   O5        1.0  0.46000  0.35800  0.65000  1.0000
  O   O6        1.0  0.19000  0.79100  0.65000  1.0000
  O   O7        1.0  0.71600  0.02610  0.85600  1.0000
  O   O8        1.0  0.14000  0.33000  0.85600  1.0000
  Sm  Sm1       1.0  0.12600  0.37600  0.25100  1.0000
  Sm  Sm2       1.0  0.87400  0.62400  0.74900  1.0000
