data_image0
_chemical_formula_structural       Ga4O8Pb2
_chemical_formula_sum              "Ga4 O8 Pb2"
_cell_length_a       5.3552
_cell_length_b       8.53919
_cell_length_c       5.24801
_cell_angle_alpha    90.0419
_cell_angle_beta     119.34
_cell_angle_gamma    89.9319

_space_group_name_H-M_alt    "P 1"
_space_group_IT_number       1

loop_
  _space_group_symop_operation_xyz
  'x, y, z'

loop_
  _atom_site_type_symbol
  _atom_site_label
  _atom_site_symmetry_multiplicity
  _atom_site_fract_x
  _atom_site_fract_y
  _atom_site_fract_z
  _atom_site_occupancy
  Ga  Ga1       1.0  0.64900  0.94200  0.35900  1.0000
  Ga  Ga2       1.0  0.66200  0.54500  0.36600  1.0000
  Ga  Ga3       1.0  0.34400  0.04610  0.70700  1.0000
  Ga  Ga4       1.0  0.35700  0.44100  0.71400  1.0000
  O   O1        1.0  0.63200  0.92800  0.00136  1.0000
  O   O2        1.0  0.65700  0.55000  0.01280  1.0000
  O   O3        1.0  0.35000  0.05140  0.35900  1.0000
  O   O4        1.0  0.37100  0.43100  0.37100  1.0000
  O   O5        1.0  0.61600  0.74300  0.48800  1.0000
  O   O6        1.0  0.99300  0.00029  0.67600  1.0000
  O   O7        1.0  0.01140  0.49500  0.68600  1.0000
  O   O8        1.0  0.39800  0.24300  0.88100  1.0000
  Pb  Pb1       1.0  0.04190  0.24700  0.01470  1.0000
  Pb  Pb2       1.0  0.96200  0.74600  0.97800  1.0000
