data_image0
_chemical_formula_structural       Cu4O8Y2
_chemical_formula_sum              "Cu4 O8 Y2"
_cell_length_a       5.59892
_cell_length_b       5.66457
_cell_length_c       6.1659
_cell_angle_alpha    116.164
_cell_angle_beta     115.811
_cell_angle_gamma    92.3239

_space_group_name_H-M_alt    "P 1"
_space_group_IT_number       1

loop_
  _space_group_symop_operation_xyz
  'x, y, z'

loop_
  _atom_site_type_symbol
  _atom_site_label
  _atom_site_symmetry_multiplicity
  _atom_site_fract_x
  _atom_site_fract_y
  _atom_site_fract_z
  _atom_site_occupancy
  Cu  Cu1       1.0  0.50000  0.50000  0.00000  1.0000
  Cu  Cu2       1.0  0.50000  1.00000  0.00000  1.0000
  Cu  Cu3       1.0  0.50000  1.00000  0.50000  1.0000
  Cu  Cu4       1.0  0.00000  0.00000  0.50000  1.0000
  O   O1        1.0  0.86400  0.66700  0.14200  1.0000
  O   O2        1.0  0.27700  0.97400  0.14200  1.0000
  O   O3        1.0  0.53900  0.63700  0.35200  1.0000
  O   O4        1.0  0.81300  0.21600  0.35200  1.0000
  O   O5        1.0  0.18700  0.78400  0.64800  1.0000
  O   O6        1.0  0.46100  0.36300  0.64800  1.0000
  O   O7        1.0  0.72300  0.02580  0.85800  1.0000
  O   O8        1.0  0.13600  0.33300  0.85800  1.0000
  Y   Y1        1.0  0.12500  0.37500  0.25100  1.0000
  Y   Y2        1.0  0.87500  0.62500  0.74900  1.0000
