data_image0
_chemical_formula_structural       Er4Ge10
_chemical_formula_sum              "Er4 Ge10"
_cell_length_a       3.91345
_cell_length_b       4.02169
_cell_length_c       18.3014
_cell_angle_alpha    90
_cell_angle_beta     90
_cell_angle_gamma    90

_space_group_name_H-M_alt    "P 1"
_space_group_IT_number       1

loop_
  _space_group_symop_operation_xyz
  'x, y, z'

loop_
  _atom_site_type_symbol
  _atom_site_label
  _atom_site_symmetry_multiplicity
  _atom_site_fract_x
  _atom_site_fract_y
  _atom_site_fract_z
  _atom_site_occupancy
  Er  Er1       1.0  0.75000  0.25000  0.19100  1.0000
  Er  Er2       1.0  0.25000  0.25000  0.37300  1.0000
  Er  Er3       1.0  0.75000  0.75000  0.62700  1.0000
  Er  Er4       1.0  0.25000  0.75000  0.80900  1.0000
  Ge  Ge1       1.0  0.25000  0.25000  0.06780  1.0000
  Ge  Ge2       1.0  0.75000  0.75000  0.06920  1.0000
  Ge  Ge3       1.0  0.25000  0.75000  0.23800  1.0000
  Ge  Ge4       1.0  0.75000  0.75000  0.33000  1.0000
  Ge  Ge5       1.0  0.25000  0.75000  0.49700  1.0000
  Ge  Ge6       1.0  0.75000  0.25000  0.50300  1.0000
  Ge  Ge7       1.0  0.25000  0.25000  0.67000  1.0000
  Ge  Ge8       1.0  0.75000  0.25000  0.76200  1.0000
  Ge  Ge9       1.0  0.25000  0.25000  0.93100  1.0000
  Ge  Ge10      1.0  0.75000  0.75000  0.93200  1.0000
