data_image0
_chemical_formula_structural       C4CdN4S4Zn
_chemical_formula_sum              "C4 Cd1 N4 S4 Zn1"
_cell_length_a       4.37802
_cell_length_b       8.17907
_cell_length_c       8.17907
_cell_angle_alpha    94.1075
_cell_angle_beta     74.4764
_cell_angle_gamma    105.524

_space_group_name_H-M_alt    "P 1"
_space_group_IT_number       1

loop_
  _space_group_symop_operation_xyz
  'x, y, z'

loop_
  _atom_site_type_symbol
  _atom_site_label
  _atom_site_symmetry_multiplicity
  _atom_site_fract_x
  _atom_site_fract_y
  _atom_site_fract_z
  _atom_site_occupancy
  C   C1        1.0  0.96000  0.35100  0.19400  1.0000
  C   C2        1.0  0.84600  0.80600  0.35100  1.0000
  C   C3        1.0  0.39100  0.19400  0.64900  1.0000
  C   C4        1.0  0.80200  0.64900  0.80600  1.0000
  Cd  Cd1       1.0  0.00000  0.00000  0.00000  1.0000
  N   N1        1.0  0.05530  0.40800  0.31300  1.0000
  N   N2        1.0  0.63200  0.68700  0.40800  1.0000
  N   N3        1.0  0.35300  0.31300  0.59200  1.0000
  N   N4        1.0  0.96000  0.59200  0.68700  1.0000
  S   S1        1.0  0.82200  0.27700  0.02840  1.0000
  S   S2        1.0  0.15000  0.97200  0.27700  1.0000
  S   S3        1.0  0.45600  0.02840  0.72300  1.0000
  S   S4        1.0  0.57300  0.72300  0.97200  1.0000
  Zn  Zn1       1.0  0.25000  0.50000  0.50000  1.0000
