data_image0
_chemical_formula_structural       Cu4NiS7Si2
_chemical_formula_sum              "Cu4 Ni1 S7 Si2"
_cell_length_a       5.29161
_cell_length_b       6.33655
_cell_length_c       8.162
_cell_angle_alpha    97.8889
_cell_angle_beta     90
_cell_angle_gamma    114.68

_space_group_name_H-M_alt    "P 1"
_space_group_IT_number       1

loop_
  _space_group_symop_operation_xyz
  'x, y, z'

loop_
  _atom_site_type_symbol
  _atom_site_label
  _atom_site_symmetry_multiplicity
  _atom_site_fract_x
  _atom_site_fract_y
  _atom_site_fract_z
  _atom_site_occupancy
  Cu  Cu1       1.0  0.70500  0.42000  0.13900  1.0000
  Cu  Cu2       1.0  0.12100  0.28100  0.43500  1.0000
  Cu  Cu3       1.0  0.84100  0.71900  0.56500  1.0000
  Cu  Cu4       1.0  0.28500  0.58000  0.86100  1.0000
  Ni  Ni1       1.0  0.99900  0.00000  0.00000  1.0000
  S   S1        1.0  0.11200  0.72400  0.08590  1.0000
  S   S2        1.0  0.80500  0.12700  0.21400  1.0000
  S   S3        1.0  0.51200  0.56900  0.35100  1.0000
  S   S4        1.0  0.26800  0.00000  0.50000  1.0000
  S   S5        1.0  0.94300  0.43100  0.64900  1.0000
  S   S6        1.0  0.67900  0.87300  0.78600  1.0000
  S   S7        1.0  0.38800  0.27600  0.91400  1.0000
  Si  Si1       1.0  0.43400  0.85100  0.28300  1.0000
  Si  Si2       1.0  0.58300  0.14900  0.71700  1.0000
