data_image0
_chemical_formula_structural       Rb4S6Si2
_chemical_formula_sum              "Rb4 S6 Si2"
_cell_length_a       6.92553
_cell_length_b       7.56202
_cell_length_c       8.6627
_cell_angle_alpha    107.166
_cell_angle_beta     113.561
_cell_angle_gamma    62.7473

_space_group_name_H-M_alt    "P 1"
_space_group_IT_number       1

loop_
  _space_group_symop_operation_xyz
  'x, y, z'

loop_
  _atom_site_type_symbol
  _atom_site_label
  _atom_site_symmetry_multiplicity
  _atom_site_fract_x
  _atom_site_fract_y
  _atom_site_fract_z
  _atom_site_occupancy
  Rb  Rb1       1.0  0.80600  0.57500  0.18800  1.0000
  Rb  Rb2       1.0  0.58100  0.20100  0.36300  1.0000
  Rb  Rb3       1.0  0.41900  0.79900  0.63700  1.0000
  Rb  Rb4       1.0  0.19400  0.42500  0.81200  1.0000
  S   S1        1.0  0.23500  0.00000  0.00000  1.0000
  S   S2        1.0  0.76500  0.00000  0.00000  1.0000
  S   S3        1.0  0.28700  0.64700  0.22100  1.0000
  S   S4        1.0  0.11200  0.16700  0.39100  1.0000
  S   S5        1.0  0.88800  0.83300  0.60900  1.0000
  S   S6        1.0  0.71300  0.35300  0.77900  1.0000
  Si  Si1       1.0  0.11500  0.94800  0.17800  1.0000
  Si  Si2       1.0  0.88500  0.05250  0.82200  1.0000
