data_image0
_chemical_formula_structural       As4Fe4
_chemical_formula_sum              "As4 Fe4"
_cell_length_a       5.97966
_cell_length_b       5.38706
_cell_length_c       3.31295
_cell_angle_alpha    90
_cell_angle_beta     90
_cell_angle_gamma    90

_space_group_name_H-M_alt    "P 1"
_space_group_IT_number       1

loop_
  _space_group_symop_operation_xyz
  'x, y, z'

loop_
  _atom_site_type_symbol
  _atom_site_label
  _atom_site_symmetry_multiplicity
  _atom_site_fract_x
  _atom_site_fract_y
  _atom_site_fract_z
  _atom_site_occupancy
  As  As1       1.0  0.57600  0.19900  0.25000  1.0000
  As  As2       1.0  0.92400  0.69900  0.25000  1.0000
  As  As3       1.0  0.07640  0.30100  0.75000  1.0000
  As  As4       1.0  0.42400  0.80100  0.75000  1.0000
  Fe  Fe1       1.0  0.20000  0.00064  0.25000  1.0000
  Fe  Fe2       1.0  0.30000  0.50100  0.25000  1.0000
  Fe  Fe3       1.0  0.70000  0.49900  0.75000  1.0000
  Fe  Fe4       1.0  0.80000  0.99900  0.75000  1.0000
