data_image0
_chemical_formula_structural       Hg10Mn4
_chemical_formula_sum              "Hg10 Mn4"
_cell_length_a       9.94503
_cell_length_b       9.94503
_cell_length_c       3.01013
_cell_angle_alpha    90
_cell_angle_beta     90
_cell_angle_gamma    90

_space_group_name_H-M_alt    "P 1"
_space_group_IT_number       1

loop_
  _space_group_symop_operation_xyz
  'x, y, z'

loop_
  _atom_site_type_symbol
  _atom_site_label
  _atom_site_symmetry_multiplicity
  _atom_site_fract_x
  _atom_site_fract_y
  _atom_site_fract_z
  _atom_site_occupancy
  Hg  Hg1       1.0  0.50000  0.00000  0.00000  1.0000
  Hg  Hg2       1.0  0.79600  0.06370  0.00000  1.0000
  Hg  Hg3       1.0  0.06370  0.20400  0.00000  1.0000
  Hg  Hg4       1.0  0.56400  0.29600  0.00000  1.0000
  Hg  Hg5       1.0  0.29600  0.43600  0.00000  1.0000
  Hg  Hg6       1.0  0.00000  0.50000  0.00000  1.0000
  Hg  Hg7       1.0  0.70400  0.56400  0.00000  1.0000
  Hg  Hg8       1.0  0.43600  0.70400  0.00000  1.0000
  Hg  Hg9       1.0  0.93600  0.79600  0.00000  1.0000
  Hg  Hg10      1.0  0.20400  0.93600  0.00000  1.0000
  Mn  Mn1       1.0  0.31900  0.18100  0.50000  1.0000
  Mn  Mn2       1.0  0.81900  0.31900  0.50000  1.0000
  Mn  Mn3       1.0  0.18100  0.68100  0.50000  1.0000
  Mn  Mn4       1.0  0.68100  0.81900  0.50000  1.0000
