data_image0
_chemical_formula_structural       Te10U4
_chemical_formula_sum              "Te10 U4"
_cell_length_a       4.18064
_cell_length_b       6.1167
_cell_length_c       17.3821
_cell_angle_alpha    95.2887
_cell_angle_beta     96.9069
_cell_angle_gamma    90

_space_group_name_H-M_alt    "P 1"
_space_group_IT_number       1

loop_
  _space_group_symop_operation_xyz
  'x, y, z'

loop_
  _atom_site_type_symbol
  _atom_site_label
  _atom_site_symmetry_multiplicity
  _atom_site_fract_x
  _atom_site_fract_y
  _atom_site_fract_z
  _atom_site_occupancy
  Te  Te1       1.0  0.50000  0.75100  0.00000  1.0000
  Te  Te2       1.0  0.50000  0.24900  0.00004  1.0000
  Te  Te3       1.0  0.08240  0.04340  0.16500  1.0000
  Te  Te4       1.0  0.62000  0.56300  0.24000  1.0000
  Te  Te5       1.0  0.20000  0.85800  0.40000  1.0000
  Te  Te6       1.0  0.20100  0.34900  0.40200  1.0000
  Te  Te7       1.0  0.79900  0.65100  0.59800  1.0000
  Te  Te8       1.0  0.80000  0.14200  0.60000  1.0000
  Te  Te9       1.0  0.38000  0.43700  0.76000  1.0000
  Te  Te10      1.0  0.91800  0.95700  0.83500  1.0000
  U   U1        1.0  0.05480  0.52900  0.11000  1.0000
  U   U2        1.0  0.65000  0.07880  0.30000  1.0000
  U   U3        1.0  0.35000  0.92100  0.70000  1.0000
  U   U4        1.0  0.94500  0.47100  0.89000  1.0000
