data_image0
_chemical_formula_structural       Ba4Br2In2O6
_chemical_formula_sum              "Ba4 Br2 In2 O6"
_cell_length_a       4.26816
_cell_length_b       4.26816
_cell_length_c       15.5654
_cell_angle_alpha    90
_cell_angle_beta     90
_cell_angle_gamma    90

_space_group_name_H-M_alt    "P 1"
_space_group_IT_number       1

loop_
  _space_group_symop_operation_xyz
  'x, y, z'

loop_
  _atom_site_type_symbol
  _atom_site_label
  _atom_site_symmetry_multiplicity
  _atom_site_fract_x
  _atom_site_fract_y
  _atom_site_fract_z
  _atom_site_occupancy
  Ba  Ba1       1.0  0.25000  0.25000  0.09140  1.0000
  Ba  Ba2       1.0  0.25000  0.25000  0.34200  1.0000
  Ba  Ba3       1.0  0.75000  0.75000  0.65800  1.0000
  Ba  Ba4       1.0  0.75000  0.75000  0.90900  1.0000
  Br  Br1       1.0  0.75000  0.75000  0.42500  1.0000
  Br  Br2       1.0  0.25000  0.25000  0.57500  1.0000
  In  In1       1.0  0.75000  0.75000  0.20700  1.0000
  In  In2       1.0  0.25000  0.25000  0.79300  1.0000
  O   O1        1.0  0.75000  0.75000  0.07160  1.0000
  O   O2        1.0  0.75000  0.25000  0.23100  1.0000
  O   O3        1.0  0.25000  0.75000  0.23100  1.0000
  O   O4        1.0  0.75000  0.25000  0.76900  1.0000
  O   O5        1.0  0.25000  0.75000  0.76900  1.0000
  O   O6        1.0  0.25000  0.25000  0.92800  1.0000
