data_image0
_chemical_formula_structural       Au4Cs4O4
_chemical_formula_sum              "Au4 Cs4 O4"
_cell_length_a       6.1752
_cell_length_b       7.87133
_cell_length_c       7.87133
_cell_angle_alpha    98.8511
_cell_angle_beta     66.9048
_cell_angle_gamma    113.095

_space_group_name_H-M_alt    "P 1"
_space_group_IT_number       1

loop_
  _space_group_symop_operation_xyz
  'x, y, z'

loop_
  _atom_site_type_symbol
  _atom_site_label
  _atom_site_symmetry_multiplicity
  _atom_site_fract_x
  _atom_site_fract_y
  _atom_site_fract_z
  _atom_site_occupancy
  Au  Au1       1.0  0.89600  0.50000  0.20700  1.0000
  Au  Au2       1.0  0.60400  0.20700  0.50000  1.0000
  Au  Au3       1.0  0.89600  0.79300  0.50000  1.0000
  Au  Au4       1.0  0.60400  0.50000  0.79300  1.0000
  Cs  Cs1       1.0  0.25000  0.20100  0.20100  1.0000
  Cs  Cs2       1.0  0.54900  0.79900  0.20100  1.0000
  Cs  Cs3       1.0  0.95100  0.20100  0.79900  1.0000
  Cs  Cs4       1.0  0.25000  0.79900  0.79900  1.0000
  O   O1        1.0  0.75000  0.21600  0.21600  1.0000
  O   O2        1.0  0.03370  0.78400  0.21600  1.0000
  O   O3        1.0  0.46600  0.21600  0.78400  1.0000
  O   O4        1.0  0.75000  0.78400  0.78400  1.0000
