data_image0
_chemical_formula_structural       Bi4Mn2Ti8
_chemical_formula_sum              "Bi4 Mn2 Ti8"
_cell_length_a       5.00975
_cell_length_b       7.83222
_cell_length_c       7.83222
_cell_angle_alpha    95.8706
_cell_angle_beta     71.3482
_cell_angle_gamma    108.652

_space_group_name_H-M_alt    "P 1"
_space_group_IT_number       1

loop_
  _space_group_symop_operation_xyz
  'x, y, z'

loop_
  _atom_site_type_symbol
  _atom_site_label
  _atom_site_symmetry_multiplicity
  _atom_site_fract_x
  _atom_site_fract_y
  _atom_site_fract_z
  _atom_site_occupancy
  Bi  Bi1       1.0  0.13800  0.50000  0.22300  1.0000
  Bi  Bi2       1.0  0.36200  0.22300  0.50000  1.0000
  Bi  Bi3       1.0  0.63800  0.77700  0.50000  1.0000
  Bi  Bi4       1.0  0.86200  0.50000  0.77700  1.0000
  Mn  Mn1       1.0  0.25000  0.00000  0.00000  1.0000
  Mn  Mn2       1.0  0.75000  0.00000  0.00000  1.0000
  Ti  Ti1       1.0  0.58000  0.27100  0.11100  1.0000
  Ti  Ti2       1.0  0.80900  0.72900  0.11100  1.0000
  Ti  Ti3       1.0  0.92000  0.11100  0.27100  1.0000
  Ti  Ti4       1.0  0.30900  0.88900  0.27100  1.0000
  Ti  Ti5       1.0  0.69100  0.11100  0.72900  1.0000
  Ti  Ti6       1.0  0.08010  0.88900  0.72900  1.0000
  Ti  Ti7       1.0  0.19100  0.27100  0.88900  1.0000
  Ti  Ti8       1.0  0.42000  0.72900  0.88900  1.0000
