data_image0
_chemical_formula_structural       Li2Ni2O8P2
_chemical_formula_sum              "Li2 Ni2 O8 P2"
_cell_length_a       4.85423
_cell_length_b       4.85423
_cell_length_c       6.10984
_cell_angle_alpha    90
_cell_angle_beta     90
_cell_angle_gamma    113.425

_space_group_name_H-M_alt    "P 1"
_space_group_IT_number       1

loop_
  _space_group_symop_operation_xyz
  'x, y, z'

loop_
  _atom_site_type_symbol
  _atom_site_label
  _atom_site_symmetry_multiplicity
  _atom_site_fract_x
  _atom_site_fract_y
  _atom_site_fract_z
  _atom_site_occupancy
  Li  Li1       1.0  0.32800  0.67200  0.25000  1.0000
  Li  Li2       1.0  0.67200  0.32800  0.75000  1.0000
  Ni  Ni1       1.0  0.00000  0.00000  0.00000  1.0000
  Ni  Ni2       1.0  0.00000  0.00000  0.50000  1.0000
  O   O1        1.0  0.75600  0.24400  0.04360  1.0000
  O   O2        1.0  0.29700  0.23700  0.25000  1.0000
  O   O3        1.0  0.76300  0.70300  0.25000  1.0000
  O   O4        1.0  0.75600  0.24400  0.45600  1.0000
  O   O5        1.0  0.24400  0.75600  0.54400  1.0000
  O   O6        1.0  0.23700  0.29700  0.75000  1.0000
  O   O7        1.0  0.70300  0.76300  0.75000  1.0000
  O   O8        1.0  0.24400  0.75600  0.95600  1.0000
  P   P1        1.0  0.65000  0.35000  0.25000  1.0000
  P   P2        1.0  0.35000  0.65000  0.75000  1.0000
