data_image0
_chemical_formula_structural       Bi4Ni2Ti8
_chemical_formula_sum              "Bi4 Ni2 Ti8"
_cell_length_a       4.78478
_cell_length_b       7.89414
_cell_length_c       7.89414
_cell_angle_alpha    95.2697
_cell_angle_beta     72.3586
_cell_angle_gamma    107.641

_space_group_name_H-M_alt    "P 1"
_space_group_IT_number       1

loop_
  _space_group_symop_operation_xyz
  'x, y, z'

loop_
  _atom_site_type_symbol
  _atom_site_label
  _atom_site_symmetry_multiplicity
  _atom_site_fract_x
  _atom_site_fract_y
  _atom_site_fract_z
  _atom_site_occupancy
  Bi  Bi1       1.0  0.13900  0.50000  0.22100  1.0000
  Bi  Bi2       1.0  0.36100  0.22100  0.50000  1.0000
  Bi  Bi3       1.0  0.63900  0.77900  0.50000  1.0000
  Bi  Bi4       1.0  0.86100  0.50000  0.77900  1.0000
  Ni  Ni1       1.0  0.25000  0.00000  0.00000  1.0000
  Ni  Ni2       1.0  0.75000  0.00000  0.00000  1.0000
  Ti  Ti1       1.0  0.58100  0.27700  0.11500  1.0000
  Ti  Ti2       1.0  0.80400  0.72300  0.11500  1.0000
  Ti  Ti3       1.0  0.91900  0.11500  0.27700  1.0000
  Ti  Ti4       1.0  0.30400  0.88500  0.27700  1.0000
  Ti  Ti5       1.0  0.69600  0.11500  0.72300  1.0000
  Ti  Ti6       1.0  0.08120  0.88500  0.72300  1.0000
  Ti  Ti7       1.0  0.19600  0.27700  0.88500  1.0000
  Ti  Ti8       1.0  0.41900  0.72300  0.88500  1.0000
