data_image0
_chemical_formula_structural       Dy6Ge8
_chemical_formula_sum              "Dy6 Ge8"
_cell_length_a       4.0661
_cell_length_b       5.72134
_cell_length_c       14.2842
_cell_angle_alpha    90
_cell_angle_beta     90
_cell_angle_gamma    69.1854

_space_group_name_H-M_alt    "P 1"
_space_group_IT_number       1

loop_
  _space_group_symop_operation_xyz
  'x, y, z'

loop_
  _atom_site_type_symbol
  _atom_site_label
  _atom_site_symmetry_multiplicity
  _atom_site_fract_x
  _atom_site_fract_y
  _atom_site_fract_z
  _atom_site_occupancy
  Dy  Dy1       1.0  0.67000  0.66000  0.09720  1.0000
  Dy  Dy2       1.0  0.95400  0.09130  0.25000  1.0000
  Dy  Dy3       1.0  0.67000  0.66000  0.40300  1.0000
  Dy  Dy4       1.0  0.33000  0.34000  0.59700  1.0000
  Dy  Dy5       1.0  0.04560  0.90900  0.75000  1.0000
  Dy  Dy6       1.0  0.33000  0.34000  0.90300  1.0000
  Ge  Ge1       1.0  0.00000  0.00000  0.00000  1.0000
  Ge  Ge2       1.0  0.38100  0.23900  0.10800  1.0000
  Ge  Ge3       1.0  0.22600  0.54800  0.25000  1.0000
  Ge  Ge4       1.0  0.38100  0.23900  0.39200  1.0000
  Ge  Ge5       1.0  0.00000  0.00000  0.50000  1.0000
  Ge  Ge6       1.0  0.61900  0.76100  0.60800  1.0000
  Ge  Ge7       1.0  0.77400  0.45200  0.75000  1.0000
  Ge  Ge8       1.0  0.61900  0.76100  0.89200  1.0000
