data_image0
_chemical_formula_structural       Al4C6Th4
_chemical_formula_sum              "Al4 C6 Th4"
_cell_length_a       5.41598
_cell_length_b       11.5795
_cell_length_c       3.50976
_cell_angle_alpha    90
_cell_angle_beta     90
_cell_angle_gamma    90

_space_group_name_H-M_alt    "P 1"
_space_group_IT_number       1

loop_
  _space_group_symop_operation_xyz
  'x, y, z'

loop_
  _atom_site_type_symbol
  _atom_site_label
  _atom_site_symmetry_multiplicity
  _atom_site_fract_x
  _atom_site_fract_y
  _atom_site_fract_z
  _atom_site_occupancy
  Al  Al1       1.0  0.31600  0.08530  0.00000  1.0000
  Al  Al2       1.0  0.68400  0.91500  0.00000  1.0000
  Al  Al3       1.0  0.81600  0.41500  0.50000  1.0000
  Al  Al4       1.0  0.18400  0.58500  0.50000  1.0000
  C   C1        1.0  0.00000  0.00000  0.00000  1.0000
  C   C2        1.0  0.83200  0.31200  0.00000  1.0000
  C   C3        1.0  0.16800  0.68800  0.00000  1.0000
  C   C4        1.0  0.33200  0.18800  0.50000  1.0000
  C   C5        1.0  0.50000  0.50000  0.50000  1.0000
  C   C6        1.0  0.66800  0.81200  0.50000  1.0000
  Th  Th1       1.0  0.32500  0.35100  0.00000  1.0000
  Th  Th2       1.0  0.67500  0.64900  0.00000  1.0000
  Th  Th3       1.0  0.82500  0.14900  0.50000  1.0000
  Th  Th4       1.0  0.17500  0.85100  0.50000  1.0000
