data_image0
_chemical_formula_structural       N16Zr12
_chemical_formula_sum              "N16 Zr12"
_cell_length_a       9.71531
_cell_length_b       10.8699
_cell_length_c       3.29072
_cell_angle_alpha    90
_cell_angle_beta     90
_cell_angle_gamma    90

_space_group_name_H-M_alt    "P 1"
_space_group_IT_number       1

loop_
  _space_group_symop_operation_xyz
  'x, y, z'

loop_
  _atom_site_type_symbol
  _atom_site_label
  _atom_site_symmetry_multiplicity
  _atom_site_fract_x
  _atom_site_fract_y
  _atom_site_fract_z
  _atom_site_occupancy
  N   N1        1.0  0.23400  0.71300  0.25000  1.0000
  N   N2        1.0  0.76600  0.28700  0.75000  1.0000
  N   N3        1.0  0.26600  0.21300  0.75000  1.0000
  N   N4        1.0  0.73400  0.78700  0.25000  1.0000
  N   N5        1.0  0.14400  0.98100  0.25000  1.0000
  N   N6        1.0  0.85600  0.01920  0.75000  1.0000
  N   N7        1.0  0.35600  0.48100  0.75000  1.0000
  N   N8        1.0  0.64400  0.51900  0.25000  1.0000
  N   N9        1.0  0.99900  0.22700  0.25000  1.0000
  N   N10       1.0  0.00098  0.77300  0.75000  1.0000
  N   N11       1.0  0.50100  0.72700  0.75000  1.0000
  N   N12       1.0  0.49900  0.27300  0.25000  1.0000
  N   N13       1.0  0.60300  0.02860  0.25000  1.0000
  N   N14       1.0  0.39700  0.97100  0.75000  1.0000
  N   N15       1.0  0.89700  0.52900  0.75000  1.0000
  N   N16       1.0  0.10300  0.47100  0.25000  1.0000
  Zr  Zr1       1.0  0.26700  0.35000  0.25000  1.0000
  Zr  Zr2       1.0  0.73300  0.65000  0.75000  1.0000
  Zr  Zr3       1.0  0.23300  0.85000  0.75000  1.0000
  Zr  Zr4       1.0  0.76700  0.15000  0.25000  1.0000
  Zr  Zr5       1.0  0.39200  0.09320  0.25000  1.0000
  Zr  Zr6       1.0  0.60800  0.90700  0.75000  1.0000
  Zr  Zr7       1.0  0.10800  0.59300  0.75000  1.0000
  Zr  Zr8       1.0  0.89200  0.40700  0.25000  1.0000
  Zr  Zr9       1.0  0.43100  0.62300  0.25000  1.0000
  Zr  Zr10      1.0  0.56900  0.37700  0.75000  1.0000
  Zr  Zr11      1.0  0.06920  0.12300  0.75000  1.0000
  Zr  Zr12      1.0  0.93100  0.87700  0.25000  1.0000
