data_image0
_chemical_formula_structural       Cu6Rb2S4
_chemical_formula_sum              "Cu6 Rb2 S4"
_cell_length_a       3.91283
_cell_length_b       7.60844
_cell_length_c       8.47018
_cell_angle_alpha    111.35
_cell_angle_beta     90
_cell_angle_gamma    104.9

_space_group_name_H-M_alt    "P 1"
_space_group_IT_number       1

loop_
  _space_group_symop_operation_xyz
  'x, y, z'

loop_
  _atom_site_type_symbol
  _atom_site_label
  _atom_site_symmetry_multiplicity
  _atom_site_fract_x
  _atom_site_fract_y
  _atom_site_fract_z
  _atom_site_occupancy
  Cu  Cu1       1.0  0.40800  0.81500  0.36500  1.0000
  Cu  Cu2       1.0  0.06260  0.12500  0.41000  1.0000
  Cu  Cu3       1.0  0.68900  0.37900  0.42400  1.0000
  Cu  Cu4       1.0  0.31100  0.62100  0.57600  1.0000
  Cu  Cu5       1.0  0.93700  0.87500  0.59000  1.0000
  Cu  Cu6       1.0  0.59200  0.18500  0.63500  1.0000
  Rb  Rb1       1.0  0.13700  0.27300  0.04470  1.0000
  Rb  Rb2       1.0  0.86300  0.72700  0.95500  1.0000
  S   S1        1.0  0.52400  0.04810  0.24600  1.0000
  S   S2        1.0  0.80900  0.61900  0.32100  1.0000
  S   S3        1.0  0.19100  0.38100  0.67900  1.0000
  S   S4        1.0  0.47600  0.95200  0.75400  1.0000
