data_image0
_chemical_formula_structural       As2B12
_chemical_formula_sum              "As2 B12"
_cell_length_a       5.32214
_cell_length_b       5.32214
_cell_length_c       5.32214
_cell_angle_alpha    70.582
_cell_angle_beta     109.418
_cell_angle_gamma    109.418

_space_group_name_H-M_alt    "P 1"
_space_group_IT_number       1

loop_
  _space_group_symop_operation_xyz
  'x, y, z'

loop_
  _atom_site_type_symbol
  _atom_site_label
  _atom_site_symmetry_multiplicity
  _atom_site_fract_x
  _atom_site_fract_y
  _atom_site_fract_z
  _atom_site_occupancy
  As  As1       1.0  0.60100  0.39900  0.39900  1.0000
  As  As2       1.0  0.39900  0.60100  0.60100  1.0000
  B   B1        1.0  0.67500  0.01560  0.01560  1.0000
  B   B2        1.0  0.98400  0.32500  0.01560  1.0000
  B   B3        1.0  0.27200  0.17800  0.17800  1.0000
  B   B4        1.0  0.82200  0.72800  0.17800  1.0000
  B   B5        1.0  0.17800  0.82200  0.27200  1.0000
  B   B6        1.0  0.98400  0.01560  0.32500  1.0000
  B   B7        1.0  0.01560  0.98400  0.67500  1.0000
  B   B8        1.0  0.82200  0.17800  0.72800  1.0000
  B   B9        1.0  0.17800  0.27200  0.82200  1.0000
  B   B10       1.0  0.72800  0.82200  0.82200  1.0000
  B   B11       1.0  0.01560  0.67500  0.98400  1.0000
  B   B12       1.0  0.32500  0.98400  0.98400  1.0000
