data_image0
_chemical_formula_structural       Bi4O8Sr2
_chemical_formula_sum              "Bi4 O8 Sr2"
_cell_length_a       4.34603
_cell_length_b       6.03993
_cell_length_c       9.79498
_cell_angle_alpha    93.7493
_cell_angle_beta     102.818
_cell_angle_gamma    90

_space_group_name_H-M_alt    "P 1"
_space_group_IT_number       1

loop_
  _space_group_symop_operation_xyz
  'x, y, z'

loop_
  _atom_site_type_symbol
  _atom_site_label
  _atom_site_symmetry_multiplicity
  _atom_site_fract_x
  _atom_site_fract_y
  _atom_site_fract_z
  _atom_site_occupancy
  Bi  Bi1       1.0  0.57300  0.28300  0.14600  1.0000
  Bi  Bi2       1.0  0.09760  0.81700  0.19500  1.0000
  Bi  Bi3       1.0  0.90200  0.18300  0.80500  1.0000
  Bi  Bi4       1.0  0.42700  0.71700  0.85400  1.0000
  O   O1        1.0  0.58800  0.92900  0.17600  1.0000
  O   O2        1.0  0.08870  0.17900  0.17700  1.0000
  O   O3        1.0  0.67400  0.42200  0.34900  1.0000
  O   O4        1.0  0.20400  0.85400  0.40800  1.0000
  O   O5        1.0  0.79600  0.14600  0.59200  1.0000
  O   O6        1.0  0.32600  0.57800  0.65100  1.0000
  O   O7        1.0  0.91100  0.82100  0.82300  1.0000
  O   O8        1.0  0.41200  0.07100  0.82400  1.0000
  Sr  Sr1       1.0  0.23500  0.26000  0.47100  1.0000
  Sr  Sr2       1.0  0.76500  0.74000  0.52900  1.0000
