data_image0
_chemical_formula_structural       BaBi2O9Ta2
_chemical_formula_sum              "Ba1 Bi2 O9 Ta2"
_cell_length_a       3.94104
_cell_length_b       3.94104
_cell_length_c       12.7399
_cell_angle_alpha    98.8979
_cell_angle_beta     98.8979
_cell_angle_gamma    90

_space_group_name_H-M_alt    "P 1"
_space_group_IT_number       1

loop_
  _space_group_symop_operation_xyz
  'x, y, z'

loop_
  _atom_site_type_symbol
  _atom_site_label
  _atom_site_symmetry_multiplicity
  _atom_site_fract_x
  _atom_site_fract_y
  _atom_site_fract_z
  _atom_site_occupancy
  Ba  Ba1       1.0  0.00000  0.00000  0.00000  1.0000
  Bi  Bi1       1.0  0.20100  0.20100  0.40200  1.0000
  Bi  Bi2       1.0  0.79900  0.79900  0.59800  1.0000
  O   O1        1.0  0.50000  0.50000  0.00000  1.0000
  O   O2        1.0  0.58200  0.08190  0.16400  1.0000
  O   O3        1.0  0.08190  0.58200  0.16400  1.0000
  O   O4        1.0  0.66500  0.66500  0.33000  1.0000
  O   O5        1.0  0.75000  0.25000  0.50000  1.0000
  O   O6        1.0  0.25000  0.75000  0.50000  1.0000
  O   O7        1.0  0.33500  0.33500  0.67000  1.0000
  O   O8        1.0  0.91800  0.41800  0.83600  1.0000
  O   O9        1.0  0.41800  0.91800  0.83600  1.0000
  Ta  Ta1       1.0  0.58900  0.58900  0.17900  1.0000
  Ta  Ta2       1.0  0.41100  0.41100  0.82100  1.0000
