data_image0
_chemical_formula_structural       Ba6Mn2N6
_chemical_formula_sum              "Ba6 Mn2 N6"
_cell_length_a       8.09943
_cell_length_b       8.09929
_cell_length_c       5.53365
_cell_angle_alpha    90
_cell_angle_beta     90
_cell_angle_gamma    120.001

_space_group_name_H-M_alt    "P 1"
_space_group_IT_number       1

loop_
  _space_group_symop_operation_xyz
  'x, y, z'

loop_
  _atom_site_type_symbol
  _atom_site_label
  _atom_site_symmetry_multiplicity
  _atom_site_fract_x
  _atom_site_fract_y
  _atom_site_fract_z
  _atom_site_occupancy
  Ba  Ba1       1.0  0.72800  0.08960  0.25000  1.0000
  Ba  Ba2       1.0  0.36200  0.27200  0.25000  1.0000
  Ba  Ba3       1.0  0.91000  0.63800  0.25000  1.0000
  Ba  Ba4       1.0  0.08960  0.36200  0.75000  1.0000
  Ba  Ba5       1.0  0.63800  0.72800  0.75000  1.0000
  Ba  Ba6       1.0  0.27200  0.91000  0.75000  1.0000
  Mn  Mn1       1.0  0.33300  0.66700  0.25000  1.0000
  Mn  Mn2       1.0  0.66700  0.33300  0.75000  1.0000
  N   N1        1.0  0.12900  0.44600  0.25000  1.0000
  N   N2        1.0  0.55500  0.68300  0.25000  1.0000
  N   N3        1.0  0.31700  0.87100  0.25000  1.0000
  N   N4        1.0  0.68300  0.12900  0.75000  1.0000
  N   N5        1.0  0.44500  0.31700  0.75000  1.0000
  N   N6        1.0  0.87100  0.55400  0.75000  1.0000
