data_image0
_chemical_formula_structural       C2N8Si4
_chemical_formula_sum              "C2 N8 Si4"
_cell_length_a       4.81616
_cell_length_b       5.43215
_cell_length_c       7.37861
_cell_angle_alpha    90
_cell_angle_beta     70.952
_cell_angle_gamma    90

_space_group_name_H-M_alt    "P 1"
_space_group_IT_number       1

loop_
  _space_group_symop_operation_xyz
  'x, y, z'

loop_
  _atom_site_type_symbol
  _atom_site_label
  _atom_site_symmetry_multiplicity
  _atom_site_fract_x
  _atom_site_fract_y
  _atom_site_fract_z
  _atom_site_occupancy
  C   C1        1.0  0.01040  0.00000  0.00000  1.0000
  C   C2        1.0  0.51000  0.50000  0.00000  1.0000
  N   N1        1.0  0.91600  0.98000  0.17300  1.0000
  N   N2        1.0  0.41600  0.52000  0.17300  1.0000
  N   N3        1.0  0.69200  0.62300  0.45100  1.0000
  N   N4        1.0  0.19200  0.87700  0.45100  1.0000
  N   N5        1.0  0.64300  0.12300  0.54900  1.0000
  N   N6        1.0  0.14300  0.37700  0.54900  1.0000
  N   N7        1.0  0.08880  0.01990  0.82700  1.0000
  N   N8        1.0  0.58900  0.48000  0.82700  1.0000
  Si  Si1       1.0  0.36700  0.59500  0.40300  1.0000
  Si  Si2       1.0  0.86700  0.90500  0.40300  1.0000
  Si  Si3       1.0  0.27000  0.09540  0.59700  1.0000
  Si  Si4       1.0  0.77000  0.40500  0.59700  1.0000
