data_image0
_chemical_formula_structural       Cu4Ge2O8
_chemical_formula_sum              "Cu4 Ge2 O8"
_cell_length_a       5.58383
_cell_length_b       5.58383
_cell_length_c       6.16308
_cell_angle_alpha    116.937
_cell_angle_beta     116.937
_cell_angle_gamma    90

_space_group_name_H-M_alt    "P 1"
_space_group_IT_number       1

loop_
  _space_group_symop_operation_xyz
  'x, y, z'

loop_
  _atom_site_type_symbol
  _atom_site_label
  _atom_site_symmetry_multiplicity
  _atom_site_fract_x
  _atom_site_fract_y
  _atom_site_fract_z
  _atom_site_occupancy
  Cu  Cu1       1.0  0.62500  0.37500  0.25000  1.0000
  Cu  Cu2       1.0  0.62500  0.87500  0.25000  1.0000
  Cu  Cu3       1.0  0.12500  0.37500  0.75000  1.0000
  Cu  Cu4       1.0  0.62500  0.37500  0.75000  1.0000
  Ge  Ge1       1.0  0.00000  0.00000  0.00000  1.0000
  Ge  Ge2       1.0  0.25000  0.75000  0.50000  1.0000
  O   O1        1.0  0.37100  0.11100  0.22200  1.0000
  O   O2        1.0  0.85200  0.11100  0.22200  1.0000
  O   O3        1.0  0.39800  0.63900  0.27800  1.0000
  O   O4        1.0  0.87900  0.63900  0.27800  1.0000
  O   O5        1.0  0.36100  0.12100  0.72200  1.0000
  O   O6        1.0  0.36100  0.60200  0.72200  1.0000
  O   O7        1.0  0.88900  0.14800  0.77800  1.0000
  O   O8        1.0  0.88900  0.62900  0.77800  1.0000
