data_image0
_chemical_formula_structural       Ca2O8Tl4
_chemical_formula_sum              "Ca2 O8 Tl4"
_cell_length_a       3.33592
_cell_length_b       5.78733
_cell_length_c       10.5063
_cell_angle_alpha    90
_cell_angle_beta     90
_cell_angle_gamma    73.2492

_space_group_name_H-M_alt    "P 1"
_space_group_IT_number       1

loop_
  _space_group_symop_operation_xyz
  'x, y, z'

loop_
  _atom_site_type_symbol
  _atom_site_label
  _atom_site_symmetry_multiplicity
  _atom_site_fract_x
  _atom_site_fract_y
  _atom_site_fract_z
  _atom_site_occupancy
  Ca  Ca1       1.0  0.89100  0.21800  0.25000  1.0000
  Ca  Ca2       1.0  0.10900  0.78200  0.75000  1.0000
  O   O1        1.0  0.00000  0.00000  0.00000  1.0000
  O   O2        1.0  0.28000  0.43900  0.11900  1.0000
  O   O3        1.0  0.53600  0.92800  0.25000  1.0000
  O   O4        1.0  0.28000  0.43900  0.38100  1.0000
  O   O5        1.0  0.00000  0.00000  0.50000  1.0000
  O   O6        1.0  0.72000  0.56100  0.61900  1.0000
  O   O7        1.0  0.46400  0.07190  0.75000  1.0000
  O   O8        1.0  0.72000  0.56100  0.88100  1.0000
  Tl  Tl1       1.0  0.63500  0.73000  0.07250  1.0000
  Tl  Tl2       1.0  0.63500  0.73000  0.42800  1.0000
  Tl  Tl3       1.0  0.36500  0.27000  0.57200  1.0000
  Tl  Tl4       1.0  0.36500  0.27000  0.92800  1.0000
