data_image0
_chemical_formula_structural       Nd3Pt7Sb4
_chemical_formula_sum              "Nd3 Pt7 Sb4"
_cell_length_a       4.33543
_cell_length_b       8.60021
_cell_length_c       8.62459
_cell_angle_alpha    97.934
_cell_angle_beta     104.557
_cell_angle_gamma    104.599

_space_group_name_H-M_alt    "P 1"
_space_group_IT_number       1

loop_
  _space_group_symop_operation_xyz
  'x, y, z'

loop_
  _atom_site_type_symbol
  _atom_site_label
  _atom_site_symmetry_multiplicity
  _atom_site_fract_x
  _atom_site_fract_y
  _atom_site_fract_z
  _atom_site_occupancy
  Nd  Nd1       1.0  0.50000  0.00000  0.00000  1.0000
  Nd  Nd2       1.0  0.48800  0.66100  0.31500  1.0000
  Nd  Nd3       1.0  0.51200  0.33900  0.68500  1.0000
  Pt  Pt1       1.0  0.77700  0.40100  0.15300  1.0000
  Pt  Pt2       1.0  0.10400  0.93300  0.27400  1.0000
  Pt  Pt3       1.0  0.30600  0.29100  0.32000  1.0000
  Pt  Pt4       1.0  0.00000  0.50000  0.50000  1.0000
  Pt  Pt5       1.0  0.69400  0.70900  0.68000  1.0000
  Pt  Pt6       1.0  0.89600  0.06690  0.72600  1.0000
  Pt  Pt7       1.0  0.22300  0.59900  0.84700  1.0000
  Sb  Sb1       1.0  0.85400  0.68300  0.02600  1.0000
  Sb  Sb2       1.0  0.77000  0.13300  0.40800  1.0000
  Sb  Sb3       1.0  0.23000  0.86700  0.59200  1.0000
  Sb  Sb4       1.0  0.14600  0.31700  0.97400  1.0000
