data_image0
_chemical_formula_structural       Br2Mo6S6
_chemical_formula_sum              "Br2 Mo6 S6"
_cell_length_a       6.54548
_cell_length_b       6.54548
_cell_length_c       6.54548
_cell_angle_alpha    94.2532
_cell_angle_beta     94.2532
_cell_angle_gamma    94.2532

_space_group_name_H-M_alt    "P 1"
_space_group_IT_number       1

loop_
  _space_group_symop_operation_xyz
  'x, y, z'

loop_
  _atom_site_type_symbol
  _atom_site_label
  _atom_site_symmetry_multiplicity
  _atom_site_fract_x
  _atom_site_fract_y
  _atom_site_fract_z
  _atom_site_occupancy
  Br  Br1       1.0  0.19000  0.19000  0.19000  1.0000
  Br  Br2       1.0  0.81000  0.81000  0.81000  1.0000
  Mo  Mo1       1.0  0.40800  0.54900  0.22000  1.0000
  Mo  Mo2       1.0  0.54900  0.22000  0.40800  1.0000
  Mo  Mo3       1.0  0.78000  0.59200  0.45100  1.0000
  Mo  Mo4       1.0  0.22000  0.40800  0.54900  1.0000
  Mo  Mo5       1.0  0.45100  0.78000  0.59200  1.0000
  Mo  Mo6       1.0  0.59200  0.45100  0.78000  1.0000
  S   S1        1.0  0.71800  0.37700  0.13400  1.0000
  S   S2        1.0  0.62300  0.86600  0.28200  1.0000
  S   S3        1.0  0.13400  0.71800  0.37700  1.0000
  S   S4        1.0  0.86600  0.28200  0.62300  1.0000
  S   S5        1.0  0.37700  0.13400  0.71800  1.0000
  S   S6        1.0  0.28200  0.62300  0.86600  1.0000
