data_image0
_chemical_formula_structural       As8Sr6
_chemical_formula_sum              "As8 Sr6"
_cell_length_a       6.03291
_cell_length_b       8.07732
_cell_length_c       9.49625
_cell_angle_alpha    96.8127
_cell_angle_beta     71.4793
_cell_angle_gamma    111.928

_space_group_name_H-M_alt    "P 1"
_space_group_IT_number       1

loop_
  _space_group_symop_operation_xyz
  'x, y, z'

loop_
  _atom_site_type_symbol
  _atom_site_label
  _atom_site_symmetry_multiplicity
  _atom_site_fract_x
  _atom_site_fract_y
  _atom_site_fract_z
  _atom_site_occupancy
  As  As1       1.0  0.33000  0.17200  0.00557  1.0000
  As  As2       1.0  0.27400  0.67100  0.16000  1.0000
  As  As3       1.0  0.68400  0.17100  0.34000  1.0000
  As  As4       1.0  0.58600  0.67200  0.49400  1.0000
  As  As5       1.0  0.40800  0.32800  0.50600  1.0000
  As  As6       1.0  0.85300  0.82900  0.66000  1.0000
  As  As7       1.0  0.76300  0.32900  0.84000  1.0000
  As  As8       1.0  0.16300  0.82800  0.99400  1.0000
  Sr  Sr1       1.0  0.74600  0.00000  0.00000  1.0000
  Sr  Sr2       1.0  0.69200  0.49500  0.16600  1.0000
  Sr  Sr3       1.0  0.10700  0.99500  0.33400  1.0000
  Sr  Sr4       1.0  0.99600  0.50000  0.50000  1.0000
  Sr  Sr5       1.0  0.44700  0.00501  0.66600  1.0000
  Sr  Sr6       1.0  0.36200  0.50500  0.83400  1.0000
