data_image0
_chemical_formula_structural       Cl8S2Sm4
_chemical_formula_sum              "Cl8 S2 Sm4"
_cell_length_a       6.42356
_cell_length_b       7.05093
_cell_length_c       8.27644
_cell_angle_alpha    97.4213
_cell_angle_beta     112.834
_cell_angle_gamma    90

_space_group_name_H-M_alt    "P 1"
_space_group_IT_number       1

loop_
  _space_group_symop_operation_xyz
  'x, y, z'

loop_
  _atom_site_type_symbol
  _atom_site_label
  _atom_site_symmetry_multiplicity
  _atom_site_fract_x
  _atom_site_fract_y
  _atom_site_fract_z
  _atom_site_occupancy
  Cl  Cl1       1.0  0.69500  0.42500  0.17700  1.0000
  Cl  Cl2       1.0  0.48200  0.92500  0.17700  1.0000
  Cl  Cl3       1.0  0.13900  0.81900  0.44100  1.0000
  Cl  Cl4       1.0  0.30200  0.31900  0.44100  1.0000
  Cl  Cl5       1.0  0.69800  0.68100  0.55900  1.0000
  Cl  Cl6       1.0  0.86100  0.18100  0.55900  1.0000
  Cl  Cl7       1.0  0.51800  0.07500  0.82300  1.0000
  Cl  Cl8       1.0  0.30500  0.57500  0.82300  1.0000
  S   S1        1.0  0.06650  0.25000  0.00000  1.0000
  S   S2        1.0  0.93300  0.75000  0.00000  1.0000
  Sm  Sm1       1.0  0.90000  0.07790  0.21500  1.0000
  Sm  Sm2       1.0  0.31500  0.57800  0.21500  1.0000
  Sm  Sm3       1.0  0.68500  0.42200  0.78500  1.0000
  Sm  Sm4       1.0  0.09980  0.92200  0.78500  1.0000
