data_image0
_chemical_formula_structural       RhZn13
_chemical_formula_sum              "Rh1 Zn13"
_cell_length_a       5.17224
_cell_length_b       6.60165
_cell_length_c       6.60165
_cell_angle_alpha    69.0375
_cell_angle_beta     99.249
_cell_angle_gamma    99.249

_space_group_name_H-M_alt    "P 1"
_space_group_IT_number       1

loop_
  _space_group_symop_operation_xyz
  'x, y, z'

loop_
  _atom_site_type_symbol
  _atom_site_label
  _atom_site_symmetry_multiplicity
  _atom_site_fract_x
  _atom_site_fract_y
  _atom_site_fract_z
  _atom_site_occupancy
  Rh  Rh1       1.0  0.50000  0.00000  1.00000  1.0000
  Zn  Zn1       1.0  0.00000  0.00000  0.00000  1.0000
  Zn  Zn2       1.0  0.19800  0.63900  0.00169  1.0000
  Zn  Zn3       1.0  0.36600  0.22400  0.22400  1.0000
  Zn  Zn4       1.0  0.67600  0.61500  0.22500  1.0000
  Zn  Zn5       1.0  0.80200  0.99800  0.36100  1.0000
  Zn  Zn6       1.0  0.32400  0.77500  0.38500  1.0000
  Zn  Zn7       1.0  0.07050  0.38800  0.38800  1.0000
  Zn  Zn8       1.0  0.93000  0.61200  0.61200  1.0000
  Zn  Zn9       1.0  0.67600  0.22500  0.61500  1.0000
  Zn  Zn10      1.0  0.19800  0.00169  0.63900  1.0000
  Zn  Zn11      1.0  0.32400  0.38500  0.77500  1.0000
  Zn  Zn12      1.0  0.63400  0.77600  0.77600  1.0000
  Zn  Zn13      1.0  0.80200  0.36100  0.99800  1.0000
