data_image0
_chemical_formula_structural       Ba6Ge4N4
_chemical_formula_sum              "Ba6 Ge4 N4"
_cell_length_a       9.66416
_cell_length_b       4.07274
_cell_length_c       10.1765
_cell_angle_alpha    90
_cell_angle_beta     113.682
_cell_angle_gamma    90

_space_group_name_H-M_alt    "P 1"
_space_group_IT_number       1

loop_
  _space_group_symop_operation_xyz
  'x, y, z'

loop_
  _atom_site_type_symbol
  _atom_site_label
  _atom_site_symmetry_multiplicity
  _atom_site_fract_x
  _atom_site_fract_y
  _atom_site_fract_z
  _atom_site_occupancy
  Ba  Ba1       1.0  0.38600  0.75000  0.14400  1.0000
  Ba  Ba2       1.0  0.02820  0.25000  0.17400  1.0000
  Ba  Ba3       1.0  0.81200  0.25000  0.44100  1.0000
  Ba  Ba4       1.0  0.18800  0.75000  0.55900  1.0000
  Ba  Ba5       1.0  0.97200  0.75000  0.82600  1.0000
  Ba  Ba6       1.0  0.61400  0.25000  0.85600  1.0000
  Ge  Ge1       1.0  0.75200  0.75000  0.15200  1.0000
  Ge  Ge2       1.0  0.42100  0.25000  0.44400  1.0000
  Ge  Ge3       1.0  0.57900  0.75000  0.55600  1.0000
  Ge  Ge4       1.0  0.24800  0.25000  0.84800  1.0000
  N   N1        1.0  0.18200  0.25000  0.00000  1.0000
  N   N2        1.0  0.81800  0.75000  0.00048  1.0000
  N   N3        1.0  0.92900  0.75000  0.32400  1.0000
  N   N4        1.0  0.07080  0.25000  0.67600  1.0000
