data_image0
_chemical_formula_structural       Na2P2Pd2S8
_chemical_formula_sum              "Na2 P2 Pd2 S8"
_cell_length_a       7.33579
_cell_length_b       7.33579
_cell_length_c       8.09228
_cell_angle_alpha    116.953
_cell_angle_beta     116.953
_cell_angle_gamma    90

_space_group_name_H-M_alt    "P 1"
_space_group_IT_number       1

loop_
  _space_group_symop_operation_xyz
  'x, y, z'

loop_
  _atom_site_type_symbol
  _atom_site_label
  _atom_site_symmetry_multiplicity
  _atom_site_fract_x
  _atom_site_fract_y
  _atom_site_fract_z
  _atom_site_occupancy
  Na  Na1       1.0  0.25000  0.25000  0.50000  1.0000
  Na  Na2       1.0  0.75000  0.75000  0.50000  1.0000
  P   P1        1.0  0.75000  0.25000  0.50000  1.0000
  P   P2        1.0  0.25000  0.75000  0.50000  1.0000
  Pd  Pd1       1.0  0.50000  0.00000  0.00000  1.0000
  Pd  Pd2       1.0  0.00000  0.50000  0.00000  1.0000
  S   S1        1.0  0.79200  0.29200  0.28300  1.0000
  S   S2        1.0  0.29200  0.49100  0.28300  1.0000
  S   S3        1.0  0.99100  0.79200  0.28300  1.0000
  S   S4        1.0  0.49100  0.99100  0.28300  1.0000
  S   S5        1.0  0.50900  0.00904  0.71700  1.0000
  S   S6        1.0  0.00904  0.20800  0.71700  1.0000
  S   S7        1.0  0.70800  0.50900  0.71700  1.0000
  S   S8        1.0  0.20800  0.70800  0.71700  1.0000
