data_image0
_chemical_formula_structural       Cl8Sr2Zn2
_chemical_formula_sum              "Cl8 Sr2 Zn2"
_cell_length_a       8.54778
_cell_length_b       6.51849
_cell_length_c       6.51849
_cell_angle_alpha    90
_cell_angle_beta     112.414
_cell_angle_gamma    112.414

_space_group_name_H-M_alt    "P 1"
_space_group_IT_number       1

loop_
  _space_group_symop_operation_xyz
  'x, y, z'

loop_
  _atom_site_type_symbol
  _atom_site_label
  _atom_site_symmetry_multiplicity
  _atom_site_fract_x
  _atom_site_fract_y
  _atom_site_fract_z
  _atom_site_occupancy
  Cl  Cl1       1.0  0.08550  0.28400  0.13600  1.0000
  Cl  Cl2       1.0  0.41500  0.86400  0.19800  1.0000
  Cl  Cl3       1.0  0.58500  0.45000  0.28400  1.0000
  Cl  Cl4       1.0  0.08550  0.80200  0.45000  1.0000
  Cl  Cl5       1.0  0.91500  0.19800  0.55000  1.0000
  Cl  Cl6       1.0  0.41500  0.55000  0.71600  1.0000
  Cl  Cl7       1.0  0.58500  0.13600  0.80200  1.0000
  Cl  Cl8       1.0  0.91500  0.71600  0.86400  1.0000
  Sr  Sr1       1.0  0.75000  0.87500  0.12500  1.0000
  Sr  Sr2       1.0  0.25000  0.12500  0.87500  1.0000
  Zn  Zn1       1.0  0.25000  0.62500  0.37500  1.0000
  Zn  Zn2       1.0  0.75000  0.37500  0.62500  1.0000
