data_image0
_chemical_formula_structural       Ba4Cl2In2O6
_chemical_formula_sum              "Ba4 Cl2 In2 O6"
_cell_length_a       4.24428
_cell_length_b       4.24428
_cell_length_c       15.0857
_cell_angle_alpha    90
_cell_angle_beta     90
_cell_angle_gamma    90

_space_group_name_H-M_alt    "P 1"
_space_group_IT_number       1

loop_
  _space_group_symop_operation_xyz
  'x, y, z'

loop_
  _atom_site_type_symbol
  _atom_site_label
  _atom_site_symmetry_multiplicity
  _atom_site_fract_x
  _atom_site_fract_y
  _atom_site_fract_z
  _atom_site_occupancy
  Ba  Ba1       1.0  0.25000  0.25000  0.09500  1.0000
  Ba  Ba2       1.0  0.25000  0.25000  0.35400  1.0000
  Ba  Ba3       1.0  0.75000  0.75000  0.64600  1.0000
  Ba  Ba4       1.0  0.75000  0.75000  0.90500  1.0000
  Cl  Cl1       1.0  0.75000  0.75000  0.42600  1.0000
  Cl  Cl2       1.0  0.25000  0.25000  0.57400  1.0000
  In  In1       1.0  0.75000  0.75000  0.21400  1.0000
  In  In2       1.0  0.25000  0.25000  0.78600  1.0000
  O   O1        1.0  0.75000  0.75000  0.07390  1.0000
  O   O2        1.0  0.75000  0.25000  0.23900  1.0000
  O   O3        1.0  0.25000  0.75000  0.23900  1.0000
  O   O4        1.0  0.75000  0.25000  0.76100  1.0000
  O   O5        1.0  0.25000  0.75000  0.76100  1.0000
  O   O6        1.0  0.25000  0.25000  0.92600  1.0000
