data_image0
_chemical_formula_structural       Ce2Ga12
_chemical_formula_sum              "Ce2 Ga12"
_cell_length_a       6.07149
_cell_length_b       6.07149
_cell_length_c       7.71366
_cell_angle_alpha    90
_cell_angle_beta     90
_cell_angle_gamma    90

_space_group_name_H-M_alt    "P 1"
_space_group_IT_number       1

loop_
  _space_group_symop_operation_xyz
  'x, y, z'

loop_
  _atom_site_type_symbol
  _atom_site_label
  _atom_site_symmetry_multiplicity
  _atom_site_fract_x
  _atom_site_fract_y
  _atom_site_fract_z
  _atom_site_occupancy
  Ce  Ce1       1.0  0.75000  0.25000  0.00000  1.0000
  Ce  Ce2       1.0  0.25000  0.75000  0.00000  1.0000
  Ga  Ga1       1.0  0.25000  0.25000  0.16200  1.0000
  Ga  Ga2       1.0  0.75000  0.75000  0.16200  1.0000
  Ga  Ga3       1.0  0.94300  0.05750  0.35000  1.0000
  Ga  Ga4       1.0  0.55700  0.44300  0.35000  1.0000
  Ga  Ga5       1.0  0.05750  0.55700  0.35000  1.0000
  Ga  Ga6       1.0  0.44300  0.94300  0.35000  1.0000
  Ga  Ga7       1.0  0.55700  0.05750  0.65000  1.0000
  Ga  Ga8       1.0  0.94300  0.44300  0.65000  1.0000
  Ga  Ga9       1.0  0.44300  0.55700  0.65000  1.0000
  Ga  Ga10      1.0  0.05750  0.94300  0.65000  1.0000
  Ga  Ga11      1.0  0.25000  0.25000  0.83800  1.0000
  Ga  Ga12      1.0  0.75000  0.75000  0.83800  1.0000
