data_image0
_chemical_formula_structural       Ce2K2S8Si2
_chemical_formula_sum              "Ce2 K2 S8 Si2"
_cell_length_a       6.59725
_cell_length_b       6.65993
_cell_length_c       8.77947
_cell_angle_alpha    90
_cell_angle_beta     107.411
_cell_angle_gamma    90

_space_group_name_H-M_alt    "P 1"
_space_group_IT_number       1

loop_
  _space_group_symop_operation_xyz
  'x, y, z'

loop_
  _atom_site_type_symbol
  _atom_site_label
  _atom_site_symmetry_multiplicity
  _atom_site_fract_x
  _atom_site_fract_y
  _atom_site_fract_z
  _atom_site_occupancy
  Ce  Ce1       1.0  0.77100  0.48600  0.45000  1.0000
  Ce  Ce2       1.0  0.22900  0.98600  0.55000  1.0000
  K   K1        1.0  0.28000  0.00265  0.06880  1.0000
  K   K2        1.0  0.72000  0.50300  0.93100  1.0000
  S   S1        1.0  0.41100  0.51000  0.16400  1.0000
  S   S2        1.0  0.98600  0.74700  0.26800  1.0000
  S   S3        1.0  0.01880  0.24800  0.28200  1.0000
  S   S4        1.0  0.60400  0.04330  0.43900  1.0000
  S   S5        1.0  0.39600  0.54300  0.56100  1.0000
  S   S6        1.0  0.98100  0.74800  0.71800  1.0000
  S   S7        1.0  0.01380  0.24700  0.73200  1.0000
  S   S8        1.0  0.58900  0.01000  0.83600  1.0000
  Si  Si1       1.0  0.21500  0.51000  0.31500  1.0000
  Si  Si2       1.0  0.78500  0.01010  0.68500  1.0000
