data_image0
_chemical_formula_structural       CuHf2
_chemical_formula_sum              "Cu1 Hf2"
_cell_length_a       3.16588
_cell_length_b       3.16588
_cell_length_c       6.01498
_cell_angle_alpha    105.258
_cell_angle_beta     105.258
_cell_angle_gamma    90

_space_group_name_H-M_alt    "P 1"
_space_group_IT_number       1

loop_
  _space_group_symop_operation_xyz
  'x, y, z'

loop_
  _atom_site_type_symbol
  _atom_site_label
  _atom_site_symmetry_multiplicity
  _atom_site_fract_x
  _atom_site_fract_y
  _atom_site_fract_z
  _atom_site_occupancy
  Cu  Cu1       1.0  0.00000  0.00000  0.00000  1.0000
  Hf  Hf1       1.0  0.65700  0.65700  0.31300  1.0000
  Hf  Hf2       1.0  0.34300  0.34300  0.68700  1.0000
