data_image0
_chemical_formula_structural       Rb2Sb4Se8
_chemical_formula_sum              "Rb2 Sb4 Se8"
_cell_length_a       6.6373
_cell_length_b       7.13555
_cell_length_c       9.70444
_cell_angle_alpha    80.3343
_cell_angle_beta     85.0423
_cell_angle_gamma    74.4562

_space_group_name_H-M_alt    "P 1"
_space_group_IT_number       1

loop_
  _space_group_symop_operation_xyz
  'x, y, z'

loop_
  _atom_site_type_symbol
  _atom_site_label
  _atom_site_symmetry_multiplicity
  _atom_site_fract_x
  _atom_site_fract_y
  _atom_site_fract_z
  _atom_site_occupancy
  Rb  Rb1       1.0  0.82000  0.81500  0.43600  1.0000
  Rb  Rb2       1.0  0.18000  0.18500  0.56400  1.0000
  Sb  Sb1       1.0  0.15300  0.18800  0.04080  1.0000
  Sb  Sb2       1.0  0.43500  0.60200  0.16400  1.0000
  Sb  Sb3       1.0  0.56500  0.39800  0.83600  1.0000
  Sb  Sb4       1.0  0.84700  0.81200  0.95900  1.0000
  Se  Se1       1.0  0.77900  0.15000  0.11600  1.0000
  Se  Se2       1.0  0.08800  0.48600  0.21200  1.0000
  Se  Se3       1.0  0.31700  0.93300  0.26900  1.0000
  Se  Se4       1.0  0.60400  0.40800  0.41300  1.0000
  Se  Se5       1.0  0.39600  0.59200  0.58700  1.0000
  Se  Se6       1.0  0.68300  0.06690  0.73100  1.0000
  Se  Se7       1.0  0.91200  0.51400  0.78800  1.0000
  Se  Se8       1.0  0.22100  0.85000  0.88400  1.0000
