data_image0
_chemical_formula_structural       Al2Cl6O4S2
_chemical_formula_sum              "Al2 Cl6 O4 S2"
_cell_length_a       6.17977
_cell_length_b       7.32555
_cell_length_c       7.83713
_cell_angle_alpha    94.4943
_cell_angle_beta     106.652
_cell_angle_gamma    108.532

_space_group_name_H-M_alt    "P 1"
_space_group_IT_number       1

loop_
  _space_group_symop_operation_xyz
  'x, y, z'

loop_
  _atom_site_type_symbol
  _atom_site_label
  _atom_site_symmetry_multiplicity
  _atom_site_fract_x
  _atom_site_fract_y
  _atom_site_fract_z
  _atom_site_occupancy
  Al  Al1       1.0  0.29100  0.79900  0.15700  1.0000
  Al  Al2       1.0  0.70900  0.20100  0.84300  1.0000
  Cl  Cl1       1.0  0.91400  0.71600  0.08890  1.0000
  Cl  Cl2       1.0  0.46500  0.67000  0.35700  1.0000
  Cl  Cl3       1.0  0.93200  0.20400  0.36700  1.0000
  Cl  Cl4       1.0  0.06780  0.79600  0.63300  1.0000
  Cl  Cl5       1.0  0.53500  0.33000  0.64300  1.0000
  Cl  Cl6       1.0  0.08560  0.28400  0.91100  1.0000
  O   O1        1.0  0.61500  0.23400  0.03620  1.0000
  O   O2        1.0  0.41600  0.06370  0.23200  1.0000
  O   O3        1.0  0.58400  0.93600  0.76800  1.0000
  O   O4        1.0  0.38500  0.76600  0.96400  1.0000
  S   S1        1.0  0.61400  0.24900  0.23000  1.0000
  S   S2        1.0  0.38600  0.75100  0.77000  1.0000
