data_image0
_chemical_formula_structural       Cl2O8Pb2Re2
_chemical_formula_sum              "Cl2 O8 Pb2 Re2"
_cell_length_a       5.67718
_cell_length_b       9.3907
_cell_length_c       4.44529
_cell_angle_alpha    90
_cell_angle_beta     90
_cell_angle_gamma    90

_space_group_name_H-M_alt    "P 1"
_space_group_IT_number       1

loop_
  _space_group_symop_operation_xyz
  'x, y, z'

loop_
  _atom_site_type_symbol
  _atom_site_label
  _atom_site_symmetry_multiplicity
  _atom_site_fract_x
  _atom_site_fract_y
  _atom_site_fract_z
  _atom_site_occupancy
  Cl  Cl1       1.0  0.50000  0.53700  0.16400  1.0000
  Cl  Cl2       1.0  0.00000  0.46300  0.66400  1.0000
  O   O1        1.0  0.00000  0.95400  0.13300  1.0000
  O   O2        1.0  0.25700  0.22400  0.13800  1.0000
  O   O3        1.0  0.74300  0.22400  0.13800  1.0000
  O   O4        1.0  0.50000  0.86800  0.13800  1.0000
  O   O5        1.0  0.50000  0.04650  0.63300  1.0000
  O   O6        1.0  0.24300  0.77600  0.63800  1.0000
  O   O7        1.0  0.75700  0.77600  0.63800  1.0000
  O   O8        1.0  0.00000  0.13200  0.63800  1.0000
  Pb  Pb1       1.0  0.00000  0.67500  0.21200  1.0000
  Pb  Pb2       1.0  0.50000  0.32500  0.71200  1.0000
  Re  Re1       1.0  0.00000  0.13200  0.24700  1.0000
  Re  Re2       1.0  0.50000  0.86800  0.74700  1.0000
