data_image0
_chemical_formula_structural       Ga10Mn4
_chemical_formula_sum              "Ga10 Mn4"
_cell_length_a       8.80366
_cell_length_b       8.80366
_cell_length_c       2.69135
_cell_angle_alpha    90
_cell_angle_beta     90
_cell_angle_gamma    90

_space_group_name_H-M_alt    "P 1"
_space_group_IT_number       1

loop_
  _space_group_symop_operation_xyz
  'x, y, z'

loop_
  _atom_site_type_symbol
  _atom_site_label
  _atom_site_symmetry_multiplicity
  _atom_site_fract_x
  _atom_site_fract_y
  _atom_site_fract_z
  _atom_site_occupancy
  Ga  Ga1       1.0  0.50000  0.00000  0.00000  1.0000
  Ga  Ga2       1.0  0.20600  0.06450  0.00000  1.0000
  Ga  Ga3       1.0  0.93600  0.20600  0.00000  1.0000
  Ga  Ga4       1.0  0.43600  0.29400  0.00000  1.0000
  Ga  Ga5       1.0  0.70600  0.43600  0.00000  1.0000
  Ga  Ga6       1.0  0.00000  0.50000  0.00000  1.0000
  Ga  Ga7       1.0  0.29400  0.56400  0.00000  1.0000
  Ga  Ga8       1.0  0.56400  0.70600  0.00000  1.0000
  Ga  Ga9       1.0  0.06450  0.79400  0.00000  1.0000
  Ga  Ga10      1.0  0.79400  0.93600  0.00000  1.0000
  Mn  Mn1       1.0  0.67900  0.17900  0.50000  1.0000
  Mn  Mn2       1.0  0.17900  0.32100  0.50000  1.0000
  Mn  Mn3       1.0  0.82100  0.67900  0.50000  1.0000
  Mn  Mn4       1.0  0.32100  0.82100  0.50000  1.0000
