data_image0
_chemical_formula_structural       C4Hg2N4O4
_chemical_formula_sum              "C4 Hg2 N4 O4"
_cell_length_a       5.26741
_cell_length_b       5.87591
_cell_length_c       7.4355
_cell_angle_alpha    90
_cell_angle_beta     90
_cell_angle_gamma    63.3704

_space_group_name_H-M_alt    "P 1"
_space_group_IT_number       1

loop_
  _space_group_symop_operation_xyz
  'x, y, z'

loop_
  _atom_site_type_symbol
  _atom_site_label
  _atom_site_symmetry_multiplicity
  _atom_site_fract_x
  _atom_site_fract_y
  _atom_site_fract_z
  _atom_site_occupancy
  C   C1        1.0  0.82000  0.36100  0.09560  1.0000
  C   C2        1.0  0.32000  0.36100  0.40400  1.0000
  C   C3        1.0  0.68000  0.63900  0.59600  1.0000
  C   C4        1.0  0.18000  0.63900  0.90400  1.0000
  Hg  Hg1       1.0  0.00000  0.00000  0.00000  1.0000
  Hg  Hg2       1.0  0.50000  0.00000  0.50000  1.0000
  N   N1        1.0  0.70900  0.58200  0.12100  1.0000
  N   N2        1.0  0.20900  0.58200  0.37900  1.0000
  N   N3        1.0  0.79100  0.41800  0.62100  1.0000
  N   N4        1.0  0.29100  0.41800  0.87900  1.0000
  O   O1        1.0  0.59300  0.81400  0.14800  1.0000
  O   O2        1.0  0.09320  0.81400  0.35200  1.0000
  O   O3        1.0  0.90700  0.18600  0.64800  1.0000
  O   O4        1.0  0.40700  0.18600  0.85200  1.0000
