data_image0
_chemical_formula_structural       S8TlV5
_chemical_formula_sum              "S8 Tl1 V5"
_cell_length_a       3.24502
_cell_length_b       8.51416
_cell_length_c       8.90947
_cell_angle_alpha    104.299
_cell_angle_beta     100.493
_cell_angle_gamma    90

_space_group_name_H-M_alt    "P 1"
_space_group_IT_number       1

loop_
  _space_group_symop_operation_xyz
  'x, y, z'

loop_
  _atom_site_type_symbol
  _atom_site_label
  _atom_site_symmetry_multiplicity
  _atom_site_fract_x
  _atom_site_fract_y
  _atom_site_fract_z
  _atom_site_occupancy
  S   S1        1.0  0.11100  0.68000  0.14800  1.0000
  S   S2        1.0  0.62100  0.31900  0.16900  1.0000
  S   S3        1.0  0.69700  0.00048  0.32100  1.0000
  S   S4        1.0  0.77900  0.66000  0.48300  1.0000
  S   S5        1.0  0.29600  0.34000  0.51700  1.0000
  S   S6        1.0  0.37600  0.00000  0.67900  1.0000
  S   S7        1.0  0.45200  0.68100  0.83100  1.0000
  S   S8        1.0  0.96300  0.32000  0.85200  1.0000
  Tl  Tl1       1.0  0.01080  0.00000  0.00000  1.0000
  V   V1        1.0  0.53600  0.50000  0.00000  1.0000
  V   V2        1.0  0.18400  0.49700  0.29600  1.0000
  V   V3        1.0  0.24900  0.85800  0.42200  1.0000
  V   V4        1.0  0.82700  0.14200  0.57800  1.0000
  V   V5        1.0  0.88800  0.50300  0.70400  1.0000
