data_image0
_chemical_formula_structural       InK5Pb8
_chemical_formula_sum              "In1 K5 Pb8"
_cell_length_a       6.96518
_cell_length_b       6.96518
_cell_length_c       13.386
_cell_angle_alpha    105.08
_cell_angle_beta     74.92
_cell_angle_gamma    120

_space_group_name_H-M_alt    "P 1"
_space_group_IT_number       1

loop_
  _space_group_symop_operation_xyz
  'x, y, z'

loop_
  _atom_site_type_symbol
  _atom_site_label
  _atom_site_symmetry_multiplicity
  _atom_site_fract_x
  _atom_site_fract_y
  _atom_site_fract_z
  _atom_site_occupancy
  In  In1       1.0  0.00000  0.00000  0.00000  1.0000
  K   K1        1.0  0.31800  0.68200  0.04600  1.0000
  K   K2        1.0  0.22000  0.78000  0.34000  1.0000
  K   K3        1.0  0.50000  0.50000  0.50000  1.0000
  K   K4        1.0  0.78000  0.22000  0.66000  1.0000
  K   K5        1.0  0.68200  0.31800  0.95400  1.0000
  Pb  Pb1       1.0  0.77100  0.73900  0.19800  1.0000
  Pb  Pb2       1.0  0.26100  0.22900  0.19800  1.0000
  Pb  Pb3       1.0  0.77100  0.22900  0.19800  1.0000
  Pb  Pb4       1.0  0.87200  0.12800  0.38500  1.0000
  Pb  Pb5       1.0  0.12800  0.87200  0.61500  1.0000
  Pb  Pb6       1.0  0.22900  0.77100  0.80200  1.0000
  Pb  Pb7       1.0  0.73900  0.77100  0.80200  1.0000
  Pb  Pb8       1.0  0.22900  0.26100  0.80200  1.0000
