data_image0
_chemical_formula_structural       S2Ta12
_chemical_formula_sum              "S2 Ta12"
_cell_length_a       5.27272
_cell_length_b       7.63957
_cell_length_c       7.68721
_cell_angle_alpha    59.2196
_cell_angle_beta     68.5865
_cell_angle_gamma    77.2193

_space_group_name_H-M_alt    "P 1"
_space_group_IT_number       1

loop_
  _space_group_symop_operation_xyz
  'x, y, z'

loop_
  _atom_site_type_symbol
  _atom_site_label
  _atom_site_symmetry_multiplicity
  _atom_site_fract_x
  _atom_site_fract_y
  _atom_site_fract_z
  _atom_site_occupancy
  S   S1        1.0  0.22600  0.41500  0.28500  1.0000
  S   S2        1.0  0.77400  0.58500  0.71500  1.0000
  Ta  Ta1       1.0  0.00000  0.00000  0.00000  1.0000
  Ta  Ta2       1.0  0.50000  1.00000  1.00000  1.0000
  Ta  Ta3       1.0  0.63200  0.29500  0.07620  1.0000
  Ta  Ta4       1.0  0.78300  0.59100  0.18400  1.0000
  Ta  Ta5       1.0  0.04760  0.13600  0.28900  1.0000
  Ta  Ta6       1.0  0.16500  0.69100  0.37300  1.0000
  Ta  Ta7       1.0  0.57100  0.85000  0.43000  1.0000
  Ta  Ta8       1.0  0.42900  0.15000  0.57000  1.0000
  Ta  Ta9       1.0  0.83500  0.30900  0.62700  1.0000
  Ta  Ta10      1.0  0.95200  0.86400  0.71100  1.0000
  Ta  Ta11      1.0  0.21700  0.40900  0.81600  1.0000
  Ta  Ta12      1.0  0.36800  0.70500  0.92400  1.0000
