data_image0
_chemical_formula_structural       RbSc5Te8
_chemical_formula_sum              "Rb1 Sc5 Te8"
_cell_length_a       4.15536
_cell_length_b       10.261
_cell_length_c       10.9021
_cell_angle_alpha    104.11
_cell_angle_beta     100.986
_cell_angle_gamma    90

_space_group_name_H-M_alt    "P 1"
_space_group_IT_number       1

loop_
  _space_group_symop_operation_xyz
  'x, y, z'

loop_
  _atom_site_type_symbol
  _atom_site_label
  _atom_site_symmetry_multiplicity
  _atom_site_fract_x
  _atom_site_fract_y
  _atom_site_fract_z
  _atom_site_occupancy
  Rb  Rb1       1.0  0.00000  0.00000  0.00000  1.0000
  Sc  Sc1       1.0  0.50000  0.50000  0.00000  1.0000
  Sc  Sc2       1.0  0.15600  0.47600  0.31100  1.0000
  Sc  Sc3       1.0  0.20500  0.84500  0.41100  1.0000
  Sc  Sc4       1.0  0.79500  0.15500  0.58900  1.0000
  Sc  Sc5       1.0  0.84400  0.52400  0.68900  1.0000
  Te  Te1       1.0  0.07500  0.66600  0.15000  1.0000
  Te  Te2       1.0  0.58400  0.31200  0.16800  1.0000
  Te  Te3       1.0  0.66400  0.99800  0.32800  1.0000
  Te  Te4       1.0  0.73800  0.65800  0.47600  1.0000
  Te  Te5       1.0  0.26200  0.34200  0.52400  1.0000
  Te  Te6       1.0  0.33600  0.00168  0.67200  1.0000
  Te  Te7       1.0  0.41600  0.68800  0.83200  1.0000
  Te  Te8       1.0  0.92500  0.33400  0.85000  1.0000
