data_image0
_chemical_formula_structural       O10P2Sb2
_chemical_formula_sum              "O10 P2 Sb2"
_cell_length_a       5.24006
_cell_length_b       5.24006
_cell_length_c       7.03469
_cell_angle_alpha    106.373
_cell_angle_beta     106.373
_cell_angle_gamma    99.4054

_space_group_name_H-M_alt    "P 1"
_space_group_IT_number       1

loop_
  _space_group_symop_operation_xyz
  'x, y, z'

loop_
  _atom_site_type_symbol
  _atom_site_label
  _atom_site_symmetry_multiplicity
  _atom_site_fract_x
  _atom_site_fract_y
  _atom_site_fract_z
  _atom_site_occupancy
  O   O1        1.0  0.26600  0.37100  0.09140  1.0000
  O   O2        1.0  0.32300  0.87200  0.13100  1.0000
  O   O3        1.0  0.90100  0.09900  0.25000  1.0000
  O   O4        1.0  0.12800  0.67700  0.36900  1.0000
  O   O5        1.0  0.62900  0.73400  0.40900  1.0000
  O   O6        1.0  0.37100  0.26600  0.59100  1.0000
  O   O7        1.0  0.87200  0.32300  0.63100  1.0000
  O   O8        1.0  0.09900  0.90100  0.75000  1.0000
  O   O9        1.0  0.67700  0.12800  0.86900  1.0000
  O   O10       1.0  0.73400  0.62900  0.90900  1.0000
  P   P1        1.0  0.33600  0.66400  0.25000  1.0000
  P   P2        1.0  0.66400  0.33600  0.75000  1.0000
  Sb  Sb1       1.0  0.00000  0.00000  0.00000  1.0000
  Sb  Sb2       1.0  0.00000  0.00000  0.50000  1.0000
