data_image0
_chemical_formula_structural       Cl4O8Sr2
_chemical_formula_sum              "Cl4 O8 Sr2"
_cell_length_a       5.91464
_cell_length_b       5.93546
_cell_length_c       6.91347
_cell_angle_alpha    64.5789
_cell_angle_beta     90
_cell_angle_gamma    90

_space_group_name_H-M_alt    "P 1"
_space_group_IT_number       1

loop_
  _space_group_symop_operation_xyz
  'x, y, z'

loop_
  _atom_site_type_symbol
  _atom_site_label
  _atom_site_symmetry_multiplicity
  _atom_site_fract_x
  _atom_site_fract_y
  _atom_site_fract_z
  _atom_site_occupancy
  Cl  Cl1       1.0  0.75000  0.42700  0.14600  1.0000
  Cl  Cl2       1.0  0.25000  0.92700  0.14600  1.0000
  Cl  Cl3       1.0  0.75000  0.07310  0.85400  1.0000
  Cl  Cl4       1.0  0.25000  0.57300  0.85400  1.0000
  O   O1        1.0  0.09530  0.01260  0.28900  1.0000
  O   O2        1.0  0.59500  0.19800  0.28900  1.0000
  O   O3        1.0  0.90500  0.51300  0.28900  1.0000
  O   O4        1.0  0.40500  0.69800  0.28900  1.0000
  O   O5        1.0  0.59500  0.30200  0.71100  1.0000
  O   O6        1.0  0.09530  0.48700  0.71100  1.0000
  O   O7        1.0  0.40500  0.80200  0.71100  1.0000
  O   O8        1.0  0.90500  0.98700  0.71100  1.0000
  Sr  Sr1       1.0  0.25000  0.25000  0.50000  1.0000
  Sr  Sr2       1.0  0.75000  0.75000  0.50000  1.0000
