data_image0
_chemical_formula_structural       Au4In8Yb2
_chemical_formula_sum              "Au4 In8 Yb2"
_cell_length_a       7.75814
_cell_length_b       4.55591
_cell_length_c       9.63319
_cell_angle_alpha    90
_cell_angle_beta     107.546
_cell_angle_gamma    90

_space_group_name_H-M_alt    "P 1"
_space_group_IT_number       1

loop_
  _space_group_symop_operation_xyz
  'x, y, z'

loop_
  _atom_site_type_symbol
  _atom_site_label
  _atom_site_symmetry_multiplicity
  _atom_site_fract_x
  _atom_site_fract_y
  _atom_site_fract_z
  _atom_site_occupancy
  Au  Au1       1.0  0.27200  0.25000  0.05640  1.0000
  Au  Au2       1.0  0.72500  0.75000  0.41800  1.0000
  Au  Au3       1.0  0.27500  0.25000  0.58200  1.0000
  Au  Au4       1.0  0.72800  0.75000  0.94400  1.0000
  In  In1       1.0  0.09540  0.75000  0.12300  1.0000
  In  In2       1.0  0.50300  0.75000  0.12800  1.0000
  In  In3       1.0  0.46400  0.25000  0.36900  1.0000
  In  In4       1.0  0.10300  0.75000  0.42800  1.0000
  In  In5       1.0  0.89700  0.25000  0.57200  1.0000
  In  In6       1.0  0.53600  0.75000  0.63100  1.0000
  In  In7       1.0  0.49700  0.25000  0.87200  1.0000
  In  In8       1.0  0.90500  0.25000  0.87700  1.0000
  Yb  Yb1       1.0  0.83000  0.25000  0.21100  1.0000
  Yb  Yb2       1.0  0.17000  0.75000  0.78900  1.0000
