data_image0
_chemical_formula_structural       Gd6Ge8
_chemical_formula_sum              "Gd6 Ge8"
_cell_length_a       4.11386
_cell_length_b       5.77302
_cell_length_c       14.3673
_cell_angle_alpha    90
_cell_angle_beta     90
_cell_angle_gamma    69.1269

_space_group_name_H-M_alt    "P 1"
_space_group_IT_number       1

loop_
  _space_group_symop_operation_xyz
  'x, y, z'

loop_
  _atom_site_type_symbol
  _atom_site_label
  _atom_site_symmetry_multiplicity
  _atom_site_fract_x
  _atom_site_fract_y
  _atom_site_fract_z
  _atom_site_occupancy
  Gd  Gd1       1.0  0.67200  0.65700  0.09690  1.0000
  Gd  Gd2       1.0  0.95700  0.08510  0.25000  1.0000
  Gd  Gd3       1.0  0.67200  0.65700  0.40300  1.0000
  Gd  Gd4       1.0  0.32800  0.34300  0.59700  1.0000
  Gd  Gd5       1.0  0.04260  0.91500  0.75000  1.0000
  Gd  Gd6       1.0  0.32800  0.34300  0.90300  1.0000
  Ge  Ge1       1.0  0.00000  0.00000  0.00000  1.0000
  Ge  Ge2       1.0  0.38300  0.23500  0.10900  1.0000
  Ge  Ge3       1.0  0.23000  0.54000  0.25000  1.0000
  Ge  Ge4       1.0  0.38300  0.23500  0.39100  1.0000
  Ge  Ge5       1.0  0.00000  0.00000  0.50000  1.0000
  Ge  Ge6       1.0  0.61700  0.76500  0.60900  1.0000
  Ge  Ge7       1.0  0.77000  0.46000  0.75000  1.0000
  Ge  Ge8       1.0  0.61700  0.76500  0.89100  1.0000
