data_image0
_chemical_formula_structural       Br10Ce4
_chemical_formula_sum              "Br10 Ce4"
_cell_length_a       7.92208
_cell_length_b       4.23069
_cell_length_c       13.4658
_cell_angle_alpha    90
_cell_angle_beta     91.076
_cell_angle_gamma    90

_space_group_name_H-M_alt    "P 1"
_space_group_IT_number       1

loop_
  _space_group_symop_operation_xyz
  'x, y, z'

loop_
  _atom_site_type_symbol
  _atom_site_label
  _atom_site_symmetry_multiplicity
  _atom_site_fract_x
  _atom_site_fract_y
  _atom_site_fract_z
  _atom_site_occupancy
  Br  Br1       1.0  0.15000  0.75000  0.06930  1.0000
  Br  Br2       1.0  0.65200  0.75000  0.12000  1.0000
  Br  Br3       1.0  0.33000  0.25000  0.27000  1.0000
  Br  Br4       1.0  0.95500  0.75000  0.32300  1.0000
  Br  Br5       1.0  0.69300  0.25000  0.49000  1.0000
  Br  Br6       1.0  0.30700  0.75000  0.51000  1.0000
  Br  Br7       1.0  0.04500  0.25000  0.67700  1.0000
  Br  Br8       1.0  0.67000  0.75000  0.73000  1.0000
  Br  Br9       1.0  0.34800  0.25000  0.88000  1.0000
  Br  Br10      1.0  0.85000  0.25000  0.93100  1.0000
  Ce  Ce1       1.0  0.92500  0.25000  0.16100  1.0000
  Ce  Ce2       1.0  0.57400  0.75000  0.34100  1.0000
  Ce  Ce3       1.0  0.42600  0.25000  0.65900  1.0000
  Ce  Ce4       1.0  0.07500  0.75000  0.83900  1.0000
