data_image0
_chemical_formula_structural       Cd2Dy4Se8
_chemical_formula_sum              "Cd2 Dy4 Se8"
_cell_length_a       8.32562
_cell_length_b       8.32562
_cell_length_c       8.32562
_cell_angle_alpha    120
_cell_angle_beta     90
_cell_angle_gamma    120

_space_group_name_H-M_alt    "P 1"
_space_group_IT_number       1

loop_
  _space_group_symop_operation_xyz
  'x, y, z'

loop_
  _atom_site_type_symbol
  _atom_site_label
  _atom_site_symmetry_multiplicity
  _atom_site_fract_x
  _atom_site_fract_y
  _atom_site_fract_z
  _atom_site_occupancy
  Cd  Cd1       1.0  0.87500  0.75000  0.12500  1.0000
  Cd  Cd2       1.0  0.12500  0.25000  0.87500  1.0000
  Dy  Dy1       1.0  0.50000  0.00000  0.00000  1.0000
  Dy  Dy2       1.0  0.50000  0.00000  0.50000  1.0000
  Dy  Dy3       1.0  0.00000  0.50000  0.50000  1.0000
  Dy  Dy4       1.0  0.50000  0.50000  0.50000  1.0000
  Se  Se1       1.0  0.27100  0.01370  0.25700  1.0000
  Se  Se2       1.0  0.74300  0.01370  0.25700  1.0000
  Se  Se3       1.0  0.74300  0.48600  0.25700  1.0000
  Se  Se4       1.0  0.25700  0.51400  0.27100  1.0000
  Se  Se5       1.0  0.74300  0.48600  0.72900  1.0000
  Se  Se6       1.0  0.25700  0.51400  0.74300  1.0000
  Se  Se7       1.0  0.25700  0.98600  0.74300  1.0000
  Se  Se8       1.0  0.72900  0.98600  0.74300  1.0000
