data_image0
_chemical_formula_structural       C4Cd2O8
_chemical_formula_sum              "C4 Cd2 O8"
_cell_length_a       5.79083
_cell_length_b       5.19799
_cell_length_c       5.88548
_cell_angle_alpha    90
_cell_angle_beta     114.883
_cell_angle_gamma    90

_space_group_name_H-M_alt    "P 1"
_space_group_IT_number       1

loop_
  _space_group_symop_operation_xyz
  'x, y, z'

loop_
  _atom_site_type_symbol
  _atom_site_label
  _atom_site_symmetry_multiplicity
  _atom_site_fract_x
  _atom_site_fract_y
  _atom_site_fract_z
  _atom_site_occupancy
  C   C1        1.0  0.58300  0.62300  0.03830  1.0000
  C   C2        1.0  0.91700  0.12300  0.46200  1.0000
  C   C3        1.0  0.08310  0.87700  0.53800  1.0000
  C   C4        1.0  0.41700  0.37700  0.96200  1.0000
  Cd  Cd1       1.0  0.00000  0.00000  0.00000  1.0000
  Cd  Cd2       1.0  0.50000  0.50000  0.50000  1.0000
  O   O1        1.0  0.32000  0.30300  0.10900  1.0000
  O   O2        1.0  0.61300  0.73600  0.23700  1.0000
  O   O3        1.0  0.88700  0.23600  0.26300  1.0000
  O   O4        1.0  0.18000  0.80300  0.39100  1.0000
  O   O5        1.0  0.82000  0.19700  0.60900  1.0000
  O   O6        1.0  0.11300  0.76400  0.73700  1.0000
  O   O7        1.0  0.38700  0.26400  0.76300  1.0000
  O   O8        1.0  0.68000  0.69700  0.89100  1.0000
