data_image0
_chemical_formula_structural       In11Sr3
_chemical_formula_sum              "In11 Sr3"
_cell_length_a       4.96573
_cell_length_b       9.51881
_cell_length_c       9.51881
_cell_angle_alpha    99.3424
_cell_angle_beta     105.12
_cell_angle_gamma    105.12

_space_group_name_H-M_alt    "P 1"
_space_group_IT_number       1

loop_
  _space_group_symop_operation_xyz
  'x, y, z'

loop_
  _atom_site_type_symbol
  _atom_site_label
  _atom_site_symmetry_multiplicity
  _atom_site_fract_x
  _atom_site_fract_y
  _atom_site_fract_z
  _atom_site_occupancy
  In  In1       1.0  0.37200  0.71400  0.03000  1.0000
  In  In2       1.0  0.27600  0.42400  0.12800  1.0000
  In  In3       1.0  0.62800  0.97000  0.28600  1.0000
  In  In4       1.0  0.80500  0.30500  0.30500  1.0000
  In  In5       1.0  0.27600  0.12800  0.42400  1.0000
  In  In6       1.0  0.50000  0.50000  0.50000  1.0000
  In  In7       1.0  0.72400  0.87200  0.57600  1.0000
  In  In8       1.0  0.19500  0.69500  0.69500  1.0000
  In  In9       1.0  0.37200  0.03000  0.71400  1.0000
  In  In10      1.0  0.72400  0.57600  0.87200  1.0000
  In  In11      1.0  0.62800  0.28600  0.97000  1.0000
  Sr  Sr1       1.0  0.00000  0.00000  0.00000  1.0000
  Sr  Sr2       1.0  0.00000  0.69000  0.31000  1.0000
  Sr  Sr3       1.0  0.00000  0.31000  0.69000  1.0000
