data_image0
_chemical_formula_structural       Cr4S8Zn2
_chemical_formula_sum              "Cr4 S8 Zn2"
_cell_length_a       7.0774
_cell_length_b       7.0774
_cell_length_c       7.0774
_cell_angle_alpha    119.972
_cell_angle_beta     90.0481
_cell_angle_gamma    119.972

_space_group_name_H-M_alt    "P 1"
_space_group_IT_number       1

loop_
  _space_group_symop_operation_xyz
  'x, y, z'

loop_
  _atom_site_type_symbol
  _atom_site_label
  _atom_site_symmetry_multiplicity
  _atom_site_fract_x
  _atom_site_fract_y
  _atom_site_fract_z
  _atom_site_occupancy
  Cr  Cr1       1.0  0.50000  0.50000  0.00000  1.0000
  Cr  Cr2       1.0  0.50000  0.00000  0.50000  1.0000
  Cr  Cr3       1.0  0.50000  0.50000  0.50000  1.0000
  Cr  Cr4       1.0  0.00000  0.00000  0.50000  1.0000
  S   S1        1.0  0.73900  0.97900  0.26000  1.0000
  S   S2        1.0  0.28100  0.52100  0.26000  1.0000
  S   S3        1.0  0.74000  0.52100  0.26100  1.0000
  S   S4        1.0  0.26000  0.02110  0.28100  1.0000
  S   S5        1.0  0.74000  0.97900  0.71900  1.0000
  S   S6        1.0  0.26000  0.47900  0.73900  1.0000
  S   S7        1.0  0.26100  0.02110  0.74000  1.0000
  S   S8        1.0  0.71900  0.47900  0.74000  1.0000
  Zn  Zn1       1.0  0.87500  0.25000  0.12500  1.0000
  Zn  Zn2       1.0  0.12500  0.75000  0.87500  1.0000
