data_image0
_chemical_formula_structural       Ag3InO8P2
_chemical_formula_sum              "Ag3 In1 O8 P2"
_cell_length_a       5.17061
_cell_length_b       5.17061
_cell_length_c       7.3302
_cell_angle_alpha    93.5671
_cell_angle_beta     93.5671
_cell_angle_gamma    64.3565

_space_group_name_H-M_alt    "P 1"
_space_group_IT_number       1

loop_
  _space_group_symop_operation_xyz
  'x, y, z'

loop_
  _atom_site_type_symbol
  _atom_site_label
  _atom_site_symmetry_multiplicity
  _atom_site_fract_x
  _atom_site_fract_y
  _atom_site_fract_z
  _atom_site_occupancy
  Ag  Ag1       1.0  0.33000  0.33000  0.31700  1.0000
  Ag  Ag2       1.0  0.00000  0.00000  0.50000  1.0000
  Ag  Ag3       1.0  0.67000  0.67000  0.68300  1.0000
  In  In1       1.0  0.00000  0.00000  0.00000  1.0000
  O   O1        1.0  0.76000  0.76000  0.04700  1.0000
  O   O2        1.0  0.78000  0.32500  0.20600  1.0000
  O   O3        1.0  0.32500  0.78000  0.20600  1.0000
  O   O4        1.0  0.75700  0.75700  0.39500  1.0000
  O   O5        1.0  0.24300  0.24300  0.60500  1.0000
  O   O6        1.0  0.67500  0.22000  0.79400  1.0000
  O   O7        1.0  0.22000  0.67500  0.79400  1.0000
  O   O8        1.0  0.24000  0.24000  0.95300  1.0000
  P   P1        1.0  0.66000  0.66000  0.21000  1.0000
  P   P2        1.0  0.34000  0.34000  0.79000  1.0000
