data_image0
_chemical_formula_structural       Cs2Hg2Se6Y2
_chemical_formula_sum              "Cs2 Hg2 Se6 Y2"
_cell_length_a       4.27043
_cell_length_b       8.31047
_cell_length_c       11.1254
_cell_angle_alpha    90
_cell_angle_beta     90
_cell_angle_gamma    75.112

_space_group_name_H-M_alt    "P 1"
_space_group_IT_number       1

loop_
  _space_group_symop_operation_xyz
  'x, y, z'

loop_
  _atom_site_type_symbol
  _atom_site_label
  _atom_site_symmetry_multiplicity
  _atom_site_fract_x
  _atom_site_fract_y
  _atom_site_fract_z
  _atom_site_occupancy
  Cs  Cs1       1.0  0.25600  0.48800  0.25000  1.0000
  Cs  Cs2       1.0  0.74400  0.51200  0.75000  1.0000
  Hg  Hg1       1.0  0.54700  0.90600  0.25000  1.0000
  Hg  Hg2       1.0  0.45300  0.09430  0.75000  1.0000
  Se  Se1       1.0  0.62100  0.75800  0.03980  1.0000
  Se  Se2       1.0  0.93900  0.12300  0.25000  1.0000
  Se  Se3       1.0  0.62100  0.75800  0.46000  1.0000
  Se  Se4       1.0  0.37900  0.24200  0.54000  1.0000
  Se  Se5       1.0  0.06130  0.87700  0.75000  1.0000
  Se  Se6       1.0  0.37900  0.24200  0.96000  1.0000
  Y   Y1        1.0  0.00000  0.00000  0.00000  1.0000
  Y   Y2        1.0  0.00000  0.00000  0.50000  1.0000
