data_image0
_chemical_formula_structural       Ca2Cl4O8
_chemical_formula_sum              "Ca2 Cl4 O8"
_cell_length_a       5.69794
_cell_length_b       5.68081
_cell_length_c       6.80251
_cell_angle_alpha    65.3199
_cell_angle_beta     90
_cell_angle_gamma    90

_space_group_name_H-M_alt    "P 1"
_space_group_IT_number       1

loop_
  _space_group_symop_operation_xyz
  'x, y, z'

loop_
  _atom_site_type_symbol
  _atom_site_label
  _atom_site_symmetry_multiplicity
  _atom_site_fract_x
  _atom_site_fract_y
  _atom_site_fract_z
  _atom_site_occupancy
  Ca  Ca1       1.0  0.25000  0.25000  0.50000  1.0000
  Ca  Ca2       1.0  0.75000  0.75000  0.50000  1.0000
  Cl  Cl1       1.0  0.75000  0.42200  0.15700  1.0000
  Cl  Cl2       1.0  0.25000  0.92200  0.15700  1.0000
  Cl  Cl3       1.0  0.75000  0.07830  0.84300  1.0000
  Cl  Cl4       1.0  0.25000  0.57800  0.84300  1.0000
  O   O1        1.0  0.08920  0.01220  0.30200  1.0000
  O   O2        1.0  0.58900  0.18600  0.30200  1.0000
  O   O3        1.0  0.91100  0.51200  0.30200  1.0000
  O   O4        1.0  0.41100  0.68600  0.30200  1.0000
  O   O5        1.0  0.58900  0.31400  0.69800  1.0000
  O   O6        1.0  0.08920  0.48800  0.69800  1.0000
  O   O7        1.0  0.41100  0.81400  0.69800  1.0000
  O   O8        1.0  0.91100  0.98800  0.69800  1.0000
