data_image0
_chemical_formula_structural       Eu4In4Pt4
_chemical_formula_sum              "Eu4 In4 Pt4"
_cell_length_a       7.42352
_cell_length_b       4.42889
_cell_length_c       8.50231
_cell_angle_alpha    90
_cell_angle_beta     90
_cell_angle_gamma    90

_space_group_name_H-M_alt    "P 1"
_space_group_IT_number       1

loop_
  _space_group_symop_operation_xyz
  'x, y, z'

loop_
  _atom_site_type_symbol
  _atom_site_label
  _atom_site_symmetry_multiplicity
  _atom_site_fract_x
  _atom_site_fract_y
  _atom_site_fract_z
  _atom_site_occupancy
  Eu  Eu1       1.0  0.46600  0.75000  0.17900  1.0000
  Eu  Eu2       1.0  0.96600  0.75000  0.32100  1.0000
  Eu  Eu3       1.0  0.03410  0.25000  0.67900  1.0000
  Eu  Eu4       1.0  0.53400  0.25000  0.82100  1.0000
  In  In1       1.0  0.14700  0.25000  0.06460  1.0000
  In  In2       1.0  0.64700  0.25000  0.43500  1.0000
  In  In3       1.0  0.35300  0.75000  0.56500  1.0000
  In  In4       1.0  0.85300  0.75000  0.93500  1.0000
  Pt  Pt1       1.0  0.76700  0.25000  0.12500  1.0000
  Pt  Pt2       1.0  0.26700  0.25000  0.37500  1.0000
  Pt  Pt3       1.0  0.73300  0.75000  0.62500  1.0000
  Pt  Pt4       1.0  0.23300  0.75000  0.87500  1.0000
