data_image0
_chemical_formula_structural       Pb4Pd6Te4
_chemical_formula_sum              "Pb4 Pd6 Te4"
_cell_length_a       8.67794
_cell_length_b       6.0148
_cell_length_c       6.41203
_cell_angle_alpha    90
_cell_angle_beta     90
_cell_angle_gamma    90

_space_group_name_H-M_alt    "P 1"
_space_group_IT_number       1

loop_
  _space_group_symop_operation_xyz
  'x, y, z'

loop_
  _atom_site_type_symbol
  _atom_site_label
  _atom_site_symmetry_multiplicity
  _atom_site_fract_x
  _atom_site_fract_y
  _atom_site_fract_z
  _atom_site_occupancy
  Pb  Pb1       1.0  0.75000  0.25000  0.19700  1.0000
  Pb  Pb2       1.0  0.25000  0.25000  0.25700  1.0000
  Pb  Pb3       1.0  0.75000  0.75000  0.74300  1.0000
  Pb  Pb4       1.0  0.25000  0.75000  0.80300  1.0000
  Pd  Pd1       1.0  0.00000  0.00000  0.00000  1.0000
  Pd  Pd2       1.0  0.50000  0.00000  0.00000  1.0000
  Pd  Pd3       1.0  0.00000  0.50000  0.00000  1.0000
  Pd  Pd4       1.0  0.50000  0.50000  0.00000  1.0000
  Pd  Pd5       1.0  0.75000  0.75000  0.21500  1.0000
  Pd  Pd6       1.0  0.25000  0.25000  0.78500  1.0000
  Te  Te1       1.0  0.04350  0.75000  0.33200  1.0000
  Te  Te2       1.0  0.45700  0.75000  0.33200  1.0000
  Te  Te3       1.0  0.54300  0.25000  0.66800  1.0000
  Te  Te4       1.0  0.95700  0.25000  0.66800  1.0000
