data_image0
_chemical_formula_structural       Fe4P4
_chemical_formula_sum              "Fe4 P4"
_cell_length_a       5.14419
_cell_length_b       3.04277
_cell_length_c       5.74886
_cell_angle_alpha    90
_cell_angle_beta     90
_cell_angle_gamma    90

_space_group_name_H-M_alt    "P 1"
_space_group_IT_number       1

loop_
  _space_group_symop_operation_xyz
  'x, y, z'

loop_
  _atom_site_type_symbol
  _atom_site_label
  _atom_site_symmetry_multiplicity
  _atom_site_fract_x
  _atom_site_fract_y
  _atom_site_fract_z
  _atom_site_occupancy
  Fe  Fe1       1.0  0.00115  0.25000  0.20100  1.0000
  Fe  Fe2       1.0  0.50100  0.25000  0.29900  1.0000
  Fe  Fe3       1.0  0.49900  0.75000  0.70100  1.0000
  Fe  Fe4       1.0  0.99900  0.75000  0.79900  1.0000
  P   P1        1.0  0.31000  0.75000  0.06710  1.0000
  P   P2        1.0  0.81000  0.75000  0.43300  1.0000
  P   P3        1.0  0.19000  0.25000  0.56700  1.0000
  P   P4        1.0  0.69000  0.25000  0.93300  1.0000
