data_image0
_chemical_formula_structural       FeZn13
_chemical_formula_sum              "Fe1 Zn13"
_cell_length_a       5.03523
_cell_length_b       6.58682
_cell_length_c       6.58682
_cell_angle_alpha    109.982
_cell_angle_beta     98.7956
_cell_angle_gamma    81.2044

_space_group_name_H-M_alt    "P 1"
_space_group_IT_number       1

loop_
  _space_group_symop_operation_xyz
  'x, y, z'

loop_
  _atom_site_type_symbol
  _atom_site_label
  _atom_site_symmetry_multiplicity
  _atom_site_fract_x
  _atom_site_fract_y
  _atom_site_fract_z
  _atom_site_occupancy
  Fe  Fe1       1.0  0.50000  1.00000  0.00000  1.0000
  Zn  Zn1       1.0  0.00000  0.00000  0.00000  1.0000
  Zn  Zn2       1.0  0.19800  0.35400  0.00373  1.0000
  Zn  Zn3       1.0  0.68100  0.37100  0.21800  1.0000
  Zn  Zn4       1.0  0.36900  0.78000  0.22000  1.0000
  Zn  Zn5       1.0  0.80200  0.00373  0.35400  1.0000
  Zn  Zn6       1.0  0.31900  0.21800  0.37100  1.0000
  Zn  Zn7       1.0  0.06620  0.61400  0.38600  1.0000
  Zn  Zn8       1.0  0.93400  0.38600  0.61400  1.0000
  Zn  Zn9       1.0  0.68100  0.78200  0.62900  1.0000
  Zn  Zn10      1.0  0.19800  0.99600  0.64600  1.0000
  Zn  Zn11      1.0  0.63100  0.22000  0.78000  1.0000
  Zn  Zn12      1.0  0.31900  0.62900  0.78200  1.0000
  Zn  Zn13      1.0  0.80200  0.64600  0.99600  1.0000
