data_image0
_chemical_formula_structural       Gd2Rb2Te8
_chemical_formula_sum              "Gd2 Rb2 Te8"
_cell_length_a       6.89406
_cell_length_b       6.89406
_cell_length_c       9.23202
_cell_angle_alpha    90
_cell_angle_beta     90
_cell_angle_gamma    90

_space_group_name_H-M_alt    "P 1"
_space_group_IT_number       1

loop_
  _space_group_symop_operation_xyz
  'x, y, z'

loop_
  _atom_site_type_symbol
  _atom_site_label
  _atom_site_symmetry_multiplicity
  _atom_site_fract_x
  _atom_site_fract_y
  _atom_site_fract_z
  _atom_site_occupancy
  Gd  Gd1       1.0  0.25000  0.25000  0.50000  1.0000
  Gd  Gd2       1.0  0.75000  0.75000  0.50000  1.0000
  Rb  Rb1       1.0  0.25000  0.25000  0.00000  1.0000
  Rb  Rb2       1.0  0.75000  0.75000  0.00000  1.0000
  Te  Te1       1.0  0.60400  0.10400  0.29900  1.0000
  Te  Te2       1.0  0.89600  0.39600  0.29900  1.0000
  Te  Te3       1.0  0.39600  0.60400  0.29900  1.0000
  Te  Te4       1.0  0.10400  0.89600  0.29900  1.0000
  Te  Te5       1.0  0.89600  0.10400  0.70100  1.0000
  Te  Te6       1.0  0.60400  0.39600  0.70100  1.0000
  Te  Te7       1.0  0.10400  0.60400  0.70100  1.0000
  Te  Te8       1.0  0.39600  0.89600  0.70100  1.0000
