data_image0
_chemical_formula_structural       Bi4Fe2Ti8
_chemical_formula_sum              "Bi4 Fe2 Ti8"
_cell_length_a       4.93962
_cell_length_b       7.82906
_cell_length_c       7.82906
_cell_angle_alpha    95.7115
_cell_angle_beta     71.611
_cell_angle_gamma    108.389

_space_group_name_H-M_alt    "P 1"
_space_group_IT_number       1

loop_
  _space_group_symop_operation_xyz
  'x, y, z'

loop_
  _atom_site_type_symbol
  _atom_site_label
  _atom_site_symmetry_multiplicity
  _atom_site_fract_x
  _atom_site_fract_y
  _atom_site_fract_z
  _atom_site_occupancy
  Bi  Bi1       1.0  0.13900  0.50000  0.22200  1.0000
  Bi  Bi2       1.0  0.63900  0.77800  0.50000  1.0000
  Bi  Bi3       1.0  0.36100  0.22200  0.50000  1.0000
  Bi  Bi4       1.0  0.86100  0.50000  0.77800  1.0000
  Fe  Fe1       1.0  0.25000  0.00000  0.00000  1.0000
  Fe  Fe2       1.0  0.75000  0.00000  0.00000  1.0000
  Ti  Ti1       1.0  0.80900  0.72900  0.11100  1.0000
  Ti  Ti2       1.0  0.58000  0.27100  0.11100  1.0000
  Ti  Ti3       1.0  0.92000  0.11100  0.27100  1.0000
  Ti  Ti4       1.0  0.30900  0.88900  0.27100  1.0000
  Ti  Ti5       1.0  0.69100  0.11100  0.72900  1.0000
  Ti  Ti6       1.0  0.07970  0.88900  0.72900  1.0000
  Ti  Ti7       1.0  0.19100  0.27100  0.88900  1.0000
  Ti  Ti8       1.0  0.42000  0.72900  0.88900  1.0000
