data_image0
_chemical_formula_structural       Ga4Pd7Zn3
_chemical_formula_sum              "Ga4 Pd7 Zn3"
_cell_length_a       5.32601
_cell_length_b       6.95461
_cell_length_c       6.95461
_cell_angle_alpha    113.719
_cell_angle_beta     104.79
_cell_angle_gamma    104.79

_space_group_name_H-M_alt    "P 1"
_space_group_IT_number       1

loop_
  _space_group_symop_operation_xyz
  'x, y, z'

loop_
  _atom_site_type_symbol
  _atom_site_label
  _atom_site_symmetry_multiplicity
  _atom_site_fract_x
  _atom_site_fract_y
  _atom_site_fract_z
  _atom_site_occupancy
  Ga  Ga1       1.0  0.97900  0.00000  0.00000  1.0000
  Ga  Ga2       1.0  0.53500  0.42700  0.17000  1.0000
  Ga  Ga3       1.0  0.36500  0.83000  0.25600  1.0000
  Ga  Ga4       1.0  0.10800  0.74400  0.57300  1.0000
  Pd  Pd1       1.0  0.49700  0.00000  0.00000  1.0000
  Pd  Pd2       1.0  0.03220  0.42700  0.17200  1.0000
  Pd  Pd3       1.0  0.86000  0.82800  0.25500  1.0000
  Pd  Pd4       1.0  0.37700  0.24600  0.40900  1.0000
  Pd  Pd5       1.0  0.60500  0.74500  0.57300  1.0000
  Pd  Pd6       1.0  0.13100  0.16300  0.75400  1.0000
  Pd  Pd7       1.0  0.96800  0.59100  0.83700  1.0000
  Zn  Zn1       1.0  0.89500  0.26100  0.44200  1.0000
  Zn  Zn2       1.0  0.63400  0.18100  0.73900  1.0000
  Zn  Zn3       1.0  0.45300  0.55800  0.81900  1.0000
