data_image0
_chemical_formula_structural       F2Fe2O8S2
_chemical_formula_sum              "F2 Fe2 O8 S2"
_cell_length_a       5.04138
_cell_length_b       5.01066
_cell_length_c       7.22947
_cell_angle_alpha    109.196
_cell_angle_beta     111.039
_cell_angle_gamma    90.4613

_space_group_name_H-M_alt    "P 1"
_space_group_IT_number       1

loop_
  _space_group_symop_operation_xyz
  'x, y, z'

loop_
  _atom_site_type_symbol
  _atom_site_label
  _atom_site_symmetry_multiplicity
  _atom_site_fract_x
  _atom_site_fract_y
  _atom_site_fract_z
  _atom_site_occupancy
  F   F1        1.0  0.88500  0.07280  0.23800  1.0000
  F   F2        1.0  0.11500  0.92700  0.76200  1.0000
  Fe  Fe1       1.0  0.00000  0.00000  0.00000  1.0000
  Fe  Fe2       1.0  0.00000  0.00000  0.50000  1.0000
  O   O1        1.0  0.25300  0.72000  0.07930  1.0000
  O   O2        1.0  0.34900  0.29800  0.16800  1.0000
  O   O3        1.0  0.15700  0.66100  0.37300  1.0000
  O   O4        1.0  0.64300  0.74200  0.40300  1.0000
  O   O5        1.0  0.35700  0.25800  0.59700  1.0000
  O   O6        1.0  0.84300  0.33900  0.62700  1.0000
  O   O7        1.0  0.65100  0.70200  0.83200  1.0000
  O   O8        1.0  0.74700  0.28000  0.92100  1.0000
  S   S1        1.0  0.35000  0.60900  0.25600  1.0000
  S   S2        1.0  0.65000  0.39100  0.74400  1.0000
