data_image0
_chemical_formula_structural       Pt6Sc4Si4
_chemical_formula_sum              "Pt6 Sc4 Si4"
_cell_length_a       6.402
_cell_length_b       8.73873
_cell_length_c       4.06395
_cell_angle_alpha    90
_cell_angle_beta     90
_cell_angle_gamma    90

_space_group_name_H-M_alt    "P 1"
_space_group_IT_number       1

loop_
  _space_group_symop_operation_xyz
  'x, y, z'

loop_
  _atom_site_type_symbol
  _atom_site_label
  _atom_site_symmetry_multiplicity
  _atom_site_fract_x
  _atom_site_fract_y
  _atom_site_fract_z
  _atom_site_occupancy
  Pt  Pt1       1.0  0.00000  0.00000  0.00000  1.0000
  Pt  Pt2       1.0  0.50000  0.50000  0.00000  1.0000
  Pt  Pt3       1.0  0.69100  0.08680  0.50000  1.0000
  Pt  Pt4       1.0  0.19100  0.41300  0.50000  1.0000
  Pt  Pt5       1.0  0.80900  0.58700  0.50000  1.0000
  Pt  Pt6       1.0  0.30900  0.91300  0.50000  1.0000
  Sc  Sc1       1.0  0.39100  0.17000  0.00000  1.0000
  Sc  Sc2       1.0  0.89100  0.33000  0.00000  1.0000
  Sc  Sc3       1.0  0.10900  0.67000  0.00000  1.0000
  Sc  Sc4       1.0  0.60900  0.83000  0.00000  1.0000
  Si  Si1       1.0  0.07550  0.15100  0.50000  1.0000
  Si  Si2       1.0  0.57600  0.34900  0.50000  1.0000
  Si  Si3       1.0  0.42400  0.65100  0.50000  1.0000
  Si  Si4       1.0  0.92400  0.84900  0.50000  1.0000
