data_image0
_chemical_formula_structural       Al2K6O6
_chemical_formula_sum              "Al2 K6 O6"
_cell_length_a       6.44671
_cell_length_b       6.48457
_cell_length_c       6.48457
_cell_angle_alpha    115.194
_cell_angle_beta     96.688
_cell_angle_gamma    96.688

_space_group_name_H-M_alt    "P 1"
_space_group_IT_number       1

loop_
  _space_group_symop_operation_xyz
  'x, y, z'

loop_
  _atom_site_type_symbol
  _atom_site_label
  _atom_site_symmetry_multiplicity
  _atom_site_fract_x
  _atom_site_fract_y
  _atom_site_fract_z
  _atom_site_occupancy
  Al  Al1       1.0  0.14600  0.16300  0.16300  1.0000
  Al  Al2       1.0  0.85400  0.83700  0.83700  1.0000
  K   K1        1.0  0.50000  0.80500  0.19500  1.0000
  K   K2        1.0  0.00000  0.73300  0.26700  1.0000
  K   K3        1.0  0.64800  0.37100  0.37100  1.0000
  K   K4        1.0  0.35200  0.62900  0.62900  1.0000
  K   K5        1.0  0.00000  0.26700  0.73300  1.0000
  K   K6        1.0  0.50000  0.19500  0.80500  1.0000
  O   O1        1.0  0.85400  0.10200  0.10200  1.0000
  O   O2        1.0  0.26400  0.41600  0.15100  1.0000
  O   O3        1.0  0.26400  0.15100  0.41600  1.0000
  O   O4        1.0  0.73600  0.84900  0.58400  1.0000
  O   O5        1.0  0.73600  0.58400  0.84900  1.0000
  O   O6        1.0  0.14600  0.89800  0.89800  1.0000
