data_image0
_chemical_formula_structural       Au4Mg4Yb4
_chemical_formula_sum              "Au4 Mg4 Yb4"
_cell_length_a       7.35217
_cell_length_b       4.35837
_cell_length_c       8.67426
_cell_angle_alpha    90
_cell_angle_beta     90
_cell_angle_gamma    90

_space_group_name_H-M_alt    "P 1"
_space_group_IT_number       1

loop_
  _space_group_symop_operation_xyz
  'x, y, z'

loop_
  _atom_site_type_symbol
  _atom_site_label
  _atom_site_symmetry_multiplicity
  _atom_site_fract_x
  _atom_site_fract_y
  _atom_site_fract_z
  _atom_site_occupancy
  Au  Au1       1.0  0.76100  0.25000  0.12900  1.0000
  Au  Au2       1.0  0.26100  0.25000  0.37100  1.0000
  Au  Au3       1.0  0.73900  0.75000  0.62900  1.0000
  Au  Au4       1.0  0.23900  0.75000  0.87100  1.0000
  Mg  Mg1       1.0  0.13800  0.25000  0.06100  1.0000
  Mg  Mg2       1.0  0.63800  0.25000  0.43900  1.0000
  Mg  Mg3       1.0  0.36200  0.75000  0.56100  1.0000
  Mg  Mg4       1.0  0.86200  0.75000  0.93900  1.0000
  Yb  Yb1       1.0  0.46500  0.75000  0.17400  1.0000
  Yb  Yb2       1.0  0.96500  0.75000  0.32600  1.0000
  Yb  Yb3       1.0  0.03490  0.25000  0.67400  1.0000
  Yb  Yb4       1.0  0.53500  0.25000  0.82600  1.0000
