data_image0
_chemical_formula_structural       Dy2Fe8Ge4
_chemical_formula_sum              "Dy2 Fe8 Ge4"
_cell_length_a       3.83817
_cell_length_b       7.29155
_cell_length_c       7.29155
_cell_angle_alpha    89.967
_cell_angle_beta     90
_cell_angle_gamma    90

_space_group_name_H-M_alt    "P 1"
_space_group_IT_number       1

loop_
  _space_group_symop_operation_xyz
  'x, y, z'

loop_
  _atom_site_type_symbol
  _atom_site_label
  _atom_site_symmetry_multiplicity
  _atom_site_fract_x
  _atom_site_fract_y
  _atom_site_fract_z
  _atom_site_occupancy
  Dy  Dy1       1.0  0.50000  0.00000  0.00000  1.0000
  Dy  Dy2       1.0  0.00000  0.50000  0.50000  1.0000
  Fe  Fe1       1.0  0.00000  0.64400  0.08940  1.0000
  Fe  Fe2       1.0  0.50000  0.41100  0.14500  1.0000
  Fe  Fe3       1.0  0.00000  0.91100  0.35600  1.0000
  Fe  Fe4       1.0  0.50000  0.14500  0.41100  1.0000
  Fe  Fe5       1.0  0.50000  0.85500  0.58900  1.0000
  Fe  Fe6       1.0  0.00000  0.08940  0.64400  1.0000
  Fe  Fe7       1.0  0.50000  0.58900  0.85500  1.0000
  Fe  Fe8       1.0  0.00000  0.35600  0.91100  1.0000
  Ge  Ge1       1.0  0.00000  0.21600  0.21600  1.0000
  Ge  Ge2       1.0  0.50000  0.71600  0.28400  1.0000
  Ge  Ge3       1.0  0.50000  0.28400  0.71600  1.0000
  Ge  Ge4       1.0  0.00000  0.78400  0.78400  1.0000
