data_image0
_chemical_formula_structural       Ni16Sn16
_chemical_formula_sum              "Ni16 Sn16"
_cell_length_a       24.6196
_cell_length_b       5.20198
_cell_length_c       4.09627
_cell_angle_alpha    90
_cell_angle_beta     90
_cell_angle_gamma    90

_space_group_name_H-M_alt    "P 1"
_space_group_IT_number       1

loop_
  _space_group_symop_operation_xyz
  'x, y, z'

loop_
  _atom_site_type_symbol
  _atom_site_label
  _atom_site_symmetry_multiplicity
  _atom_site_fract_x
  _atom_site_fract_y
  _atom_site_fract_z
  _atom_site_occupancy
  Ni  Ni1       1.0  0.85600  0.50100  0.50000  1.0000
  Ni  Ni2       1.0  0.64400  0.00084  0.50000  1.0000
  Ni  Ni3       1.0  0.35600  0.99900  0.50000  1.0000
  Ni  Ni4       1.0  0.14400  0.49900  0.50000  1.0000
  Ni  Ni5       1.0  0.24500  0.71900  0.50000  1.0000
  Ni  Ni6       1.0  0.75500  0.28100  0.50000  1.0000
  Ni  Ni7       1.0  0.74500  0.78100  0.50000  1.0000
  Ni  Ni8       1.0  0.25500  0.21900  0.50000  1.0000
  Ni  Ni9       1.0  0.60600  0.28000  0.00000  1.0000
  Ni  Ni10      1.0  0.89400  0.78000  0.00000  1.0000
  Ni  Ni11      1.0  0.10600  0.22000  0.00000  1.0000
  Ni  Ni12      1.0  0.50000  0.00000  0.00000  1.0000
  Ni  Ni13      1.0  0.00000  0.50000  0.00000  1.0000
  Ni  Ni14      1.0  0.50000  0.50000  0.00000  1.0000
  Ni  Ni15      1.0  0.00000  0.00000  0.00000  1.0000
  Ni  Ni16      1.0  0.39400  0.72000  0.00000  1.0000
  Sn  Sn1       1.0  0.40900  0.22400  0.00000  1.0000
  Sn  Sn2       1.0  0.59100  0.77600  0.00000  1.0000
  Sn  Sn3       1.0  0.90900  0.27600  0.00000  1.0000
  Sn  Sn4       1.0  0.09080  0.72400  0.00000  1.0000
  Sn  Sn5       1.0  0.34000  0.50200  0.50000  1.0000
  Sn  Sn6       1.0  0.66000  0.49800  0.50000  1.0000
  Sn  Sn7       1.0  0.84000  0.99800  0.50000  1.0000
  Sn  Sn8       1.0  0.16000  0.00221  0.50000  1.0000
  Sn  Sn9       1.0  0.28800  0.95100  0.00000  1.0000
  Sn  Sn10      1.0  0.71200  0.04930  0.00000  1.0000
  Sn  Sn11      1.0  0.78800  0.54900  0.00000  1.0000
  Sn  Sn12      1.0  0.21200  0.45100  0.00000  1.0000
  Sn  Sn13      1.0  0.46200  0.75600  0.50000  1.0000
  Sn  Sn14      1.0  0.53800  0.24400  0.50000  1.0000
  Sn  Sn15      1.0  0.96200  0.74400  0.50000  1.0000
  Sn  Sn16      1.0  0.03800  0.25600  0.50000  1.0000
