data_image0
_chemical_formula_structural       B2Ba2Bi2S8
_chemical_formula_sum              "B2 Ba2 Bi2 S8"
_cell_length_a       6.26471
_cell_length_b       7.72385
_cell_length_c       8.20723
_cell_angle_alpha    99.869
_cell_angle_beta     112.436
_cell_angle_gamma    90

_space_group_name_H-M_alt    "P 1"
_space_group_IT_number       1

loop_
  _space_group_symop_operation_xyz
  'x, y, z'

loop_
  _atom_site_type_symbol
  _atom_site_label
  _atom_site_symmetry_multiplicity
  _atom_site_fract_x
  _atom_site_fract_y
  _atom_site_fract_z
  _atom_site_occupancy
  B   B1        1.0  0.10400  0.15500  0.20800  1.0000
  B   B2        1.0  0.89600  0.84500  0.79200  1.0000
  Ba  Ba1       1.0  0.18100  0.68900  0.36300  1.0000
  Ba  Ba2       1.0  0.81900  0.31100  0.63700  1.0000
  Bi  Bi1       1.0  0.54600  0.25900  0.09200  1.0000
  Bi  Bi2       1.0  0.45400  0.74100  0.90800  1.0000
  S   S1        1.0  0.03480  0.32000  0.06970  1.0000
  S   S2        1.0  0.38800  0.06980  0.27900  1.0000
  S   S3        1.0  0.89100  0.06980  0.27900  1.0000
  S   S4        1.0  0.65800  0.54700  0.31500  1.0000
  S   S5        1.0  0.34200  0.45300  0.68500  1.0000
  S   S6        1.0  0.10900  0.93000  0.72100  1.0000
  S   S7        1.0  0.61200  0.93000  0.72100  1.0000
  S   S8        1.0  0.96500  0.68000  0.93000  1.0000
