data_image0
_chemical_formula_structural       Fe8Si4Tm2
_chemical_formula_sum              "Fe8 Si4 Tm2"
_cell_length_a       7.01324
_cell_length_b       7.01324
_cell_length_c       3.7307
_cell_angle_alpha    90
_cell_angle_beta     90
_cell_angle_gamma    90

_space_group_name_H-M_alt    "P 1"
_space_group_IT_number       1

loop_
  _space_group_symop_operation_xyz
  'x, y, z'

loop_
  _atom_site_type_symbol
  _atom_site_label
  _atom_site_symmetry_multiplicity
  _atom_site_fract_x
  _atom_site_fract_y
  _atom_site_fract_z
  _atom_site_occupancy
  Fe  Fe1       1.0  0.58600  0.14700  0.00000  1.0000
  Fe  Fe2       1.0  0.85300  0.41400  0.00000  1.0000
  Fe  Fe3       1.0  0.14700  0.58600  0.00000  1.0000
  Fe  Fe4       1.0  0.41400  0.85300  0.00000  1.0000
  Fe  Fe5       1.0  0.35300  0.08570  0.50000  1.0000
  Fe  Fe6       1.0  0.08570  0.35300  0.50000  1.0000
  Fe  Fe7       1.0  0.91400  0.64700  0.50000  1.0000
  Fe  Fe8       1.0  0.64700  0.91400  0.50000  1.0000
  Si  Si1       1.0  0.28100  0.28100  0.00000  1.0000
  Si  Si2       1.0  0.71900  0.71900  0.00000  1.0000
  Si  Si3       1.0  0.78100  0.21900  0.50000  1.0000
  Si  Si4       1.0  0.21900  0.78100  0.50000  1.0000
  Tm  Tm1       1.0  0.00000  0.00000  0.00000  1.0000
  Tm  Tm2       1.0  0.50000  0.50000  0.50000  1.0000
