data_image0
_chemical_formula_structural       C4HgN4S4Zn
_chemical_formula_sum              "C4 Hg1 N4 S4 Zn1"
_cell_length_a       4.45099
_cell_length_b       8.18602
_cell_length_c       8.18602
_cell_angle_alpha    94.2386
_cell_angle_beta     74.2247
_cell_angle_gamma    105.775

_space_group_name_H-M_alt    "P 1"
_space_group_IT_number       1

loop_
  _space_group_symop_operation_xyz
  'x, y, z'

loop_
  _atom_site_type_symbol
  _atom_site_label
  _atom_site_symmetry_multiplicity
  _atom_site_fract_x
  _atom_site_fract_y
  _atom_site_fract_z
  _atom_site_occupancy
  C   C1        1.0  0.19700  0.35300  0.19400  1.0000
  C   C2        1.0  0.60900  0.80600  0.35300  1.0000
  C   C3        1.0  0.15600  0.19400  0.64700  1.0000
  C   C4        1.0  0.03780  0.64700  0.80600  1.0000
  Hg  Hg1       1.0  0.00000  0.00000  0.00000  1.0000
  N   N1        1.0  0.03780  0.40900  0.31200  1.0000
  N   N2        1.0  0.65100  0.68800  0.40900  1.0000
  N   N3        1.0  0.37100  0.31200  0.59100  1.0000
  N   N4        1.0  0.94000  0.59100  0.68800  1.0000
  S   S1        1.0  0.42800  0.28000  0.02980  1.0000
  S   S2        1.0  0.54200  0.97000  0.28000  1.0000
  S   S3        1.0  0.85200  0.02980  0.72000  1.0000
  S   S4        1.0  0.17800  0.72000  0.97000  1.0000
  Zn  Zn1       1.0  0.75000  0.50000  0.50000  1.0000
