data_image0
_chemical_formula_structural       Ga2N6Sr6
_chemical_formula_sum              "Ga2 N6 Sr6"
_cell_length_a       7.55524
_cell_length_b       7.55525
_cell_length_c       5.39408
_cell_angle_alpha    90
_cell_angle_beta     90
_cell_angle_gamma    120

_space_group_name_H-M_alt    "P 1"
_space_group_IT_number       1

loop_
  _space_group_symop_operation_xyz
  'x, y, z'

loop_
  _atom_site_type_symbol
  _atom_site_label
  _atom_site_symmetry_multiplicity
  _atom_site_fract_x
  _atom_site_fract_y
  _atom_site_fract_z
  _atom_site_occupancy
  Ga  Ga1       1.0  0.33300  0.66700  0.25000  1.0000
  Ga  Ga2       1.0  0.66700  0.33300  0.75000  1.0000
  N   N1        1.0  0.09300  0.40000  0.25000  1.0000
  N   N2        1.0  0.60000  0.69300  0.25000  1.0000
  N   N3        1.0  0.30700  0.90700  0.25000  1.0000
  N   N4        1.0  0.69300  0.09300  0.75000  1.0000
  N   N5        1.0  0.40000  0.30700  0.75000  1.0000
  N   N6        1.0  0.90700  0.60000  0.75000  1.0000
  Sr  Sr1       1.0  0.71600  0.07300  0.25000  1.0000
  Sr  Sr2       1.0  0.35700  0.28400  0.25000  1.0000
  Sr  Sr3       1.0  0.92700  0.64300  0.25000  1.0000
  Sr  Sr4       1.0  0.07300  0.35700  0.75000  1.0000
  Sr  Sr5       1.0  0.64300  0.71600  0.75000  1.0000
  Sr  Sr6       1.0  0.28400  0.92700  0.75000  1.0000
