data_image0
_chemical_formula_structural       Cd6Cl6P2
_chemical_formula_sum              "Cd6 Cl6 P2"
_cell_length_a       7.70721
_cell_length_b       7.70728
_cell_length_c       7.17114
_cell_angle_alpha    89.9999
_cell_angle_beta     89.9997
_cell_angle_gamma    120.001

_space_group_name_H-M_alt    "P 1"
_space_group_IT_number       1

loop_
  _space_group_symop_operation_xyz
  'x, y, z'

loop_
  _atom_site_type_symbol
  _atom_site_label
  _atom_site_symmetry_multiplicity
  _atom_site_fract_x
  _atom_site_fract_y
  _atom_site_fract_z
  _atom_site_occupancy
  Cd  Cd1       1.0  0.50000  0.50000  0.00000  1.0000
  Cd  Cd2       1.0  0.00000  0.50000  0.00000  1.0000
  Cd  Cd3       1.0  0.50000  0.00000  0.00000  1.0000
  Cd  Cd4       1.0  0.66700  0.33300  0.49000  1.0000
  Cd  Cd5       1.0  0.00000  0.00000  0.50000  1.0000
  Cd  Cd6       1.0  0.33300  0.66700  0.51000  1.0000
  Cl  Cl1       1.0  0.65900  0.83000  0.30400  1.0000
  Cl  Cl2       1.0  0.17100  0.34100  0.30400  1.0000
  Cl  Cl3       1.0  0.17000  0.82900  0.30400  1.0000
  Cl  Cl4       1.0  0.83000  0.17100  0.69600  1.0000
  Cl  Cl5       1.0  0.82900  0.65900  0.69600  1.0000
  Cl  Cl6       1.0  0.34100  0.17000  0.69600  1.0000
  P   P1        1.0  0.66700  0.33300  0.14600  1.0000
  P   P2        1.0  0.33300  0.66700  0.85400  1.0000
