data_image0
_chemical_formula_structural       Cd2Er4S8
_chemical_formula_sum              "Cd2 Er4 S8"
_cell_length_a       7.91264
_cell_length_b       7.91264
_cell_length_c       7.91264
_cell_angle_alpha    120
_cell_angle_beta     90
_cell_angle_gamma    120

_space_group_name_H-M_alt    "P 1"
_space_group_IT_number       1

loop_
  _space_group_symop_operation_xyz
  'x, y, z'

loop_
  _atom_site_type_symbol
  _atom_site_label
  _atom_site_symmetry_multiplicity
  _atom_site_fract_x
  _atom_site_fract_y
  _atom_site_fract_z
  _atom_site_occupancy
  Cd  Cd1       1.0  0.87500  0.75000  0.12500  1.0000
  Cd  Cd2       1.0  0.12500  0.25000  0.87500  1.0000
  Er  Er1       1.0  0.50000  0.00000  0.00000  1.0000
  Er  Er2       1.0  0.50000  0.00000  0.50000  1.0000
  Er  Er3       1.0  0.00000  0.50000  0.50000  1.0000
  Er  Er4       1.0  0.50000  0.50000  0.50000  1.0000
  S   S1        1.0  0.27400  0.01570  0.25800  1.0000
  S   S2        1.0  0.74200  0.01570  0.25800  1.0000
  S   S3        1.0  0.74200  0.48400  0.25800  1.0000
  S   S4        1.0  0.25800  0.51600  0.27400  1.0000
  S   S5        1.0  0.74200  0.48400  0.72600  1.0000
  S   S6        1.0  0.25800  0.51600  0.74200  1.0000
  S   S7        1.0  0.25800  0.98400  0.74200  1.0000
  S   S8        1.0  0.72600  0.98400  0.74200  1.0000
