data_image0
_chemical_formula_structural       C4O8Zn2
_chemical_formula_sum              "C4 O8 Zn2"
_cell_length_a       5.75366
_cell_length_b       5.02868
_cell_length_c       5.37363
_cell_angle_alpha    90
_cell_angle_beta     114.02
_cell_angle_gamma    90

_space_group_name_H-M_alt    "P 1"
_space_group_IT_number       1

loop_
  _space_group_symop_operation_xyz
  'x, y, z'

loop_
  _atom_site_type_symbol
  _atom_site_label
  _atom_site_symmetry_multiplicity
  _atom_site_fract_x
  _atom_site_fract_y
  _atom_site_fract_z
  _atom_site_occupancy
  C   C1        1.0  0.40700  0.61800  0.95300  1.0000
  C   C2        1.0  0.59300  0.38200  0.04680  1.0000
  C   C3        1.0  0.90700  0.88200  0.45300  1.0000
  C   C4        1.0  0.09280  0.11800  0.54700  1.0000
  O   O1        1.0  0.31500  0.70300  0.11700  1.0000
  O   O2        1.0  0.86100  0.78500  0.22100  1.0000
  O   O3        1.0  0.63900  0.28500  0.27900  1.0000
  O   O4        1.0  0.18500  0.20300  0.38300  1.0000
  O   O5        1.0  0.81500  0.79700  0.61700  1.0000
  O   O6        1.0  0.36100  0.71500  0.72100  1.0000
  O   O7        1.0  0.13900  0.21500  0.77900  1.0000
  O   O8        1.0  0.68500  0.29700  0.88300  1.0000
  Zn  Zn1       1.0  0.00000  0.00000  0.00000  1.0000
  Zn  Zn2       1.0  0.50000  0.50000  0.50000  1.0000
