data_image0
_chemical_formula_structural       As2Fe2O5Sc2Sr3
_chemical_formula_sum              "As2 Fe2 O5 Sc2 Sr3"
_cell_length_a       4.11522
_cell_length_b       4.11522
_cell_length_c       13.9404
_cell_angle_alpha    98.4879
_cell_angle_beta     98.4879
_cell_angle_gamma    90

_space_group_name_H-M_alt    "P 1"
_space_group_IT_number       1

loop_
  _space_group_symop_operation_xyz
  'x, y, z'

loop_
  _atom_site_type_symbol
  _atom_site_label
  _atom_site_symmetry_multiplicity
  _atom_site_fract_x
  _atom_site_fract_y
  _atom_site_fract_z
  _atom_site_occupancy
  As  As1       1.0  0.69300  0.69300  0.38500  1.0000
  As  As2       1.0  0.30700  0.30700  0.61500  1.0000
  Fe  Fe1       1.0  0.75000  0.25000  0.50000  1.0000
  Fe  Fe2       1.0  0.25000  0.75000  0.50000  1.0000
  O   O1        1.0  0.50000  0.50000  0.00000  1.0000
  O   O2        1.0  0.58100  0.08100  0.16200  1.0000
  O   O3        1.0  0.08100  0.58100  0.16200  1.0000
  O   O4        1.0  0.91900  0.41900  0.83800  1.0000
  O   O5        1.0  0.41900  0.91900  0.83800  1.0000
  Sc  Sc1       1.0  0.57200  0.57200  0.14500  1.0000
  Sc  Sc2       1.0  0.42800  0.42800  0.85500  1.0000
  Sr  Sr1       1.0  0.00000  0.00000  0.00000  1.0000
  Sr  Sr2       1.0  0.13500  0.13500  0.27100  1.0000
  Sr  Sr3       1.0  0.86500  0.86500  0.72900  1.0000
