data_image0
_chemical_formula_structural       Mo2O10P2
_chemical_formula_sum              "Mo2 O10 P2"
_cell_length_a       6.18205
_cell_length_b       6.18205
_cell_length_c       4.18362
_cell_angle_alpha    90
_cell_angle_beta     90
_cell_angle_gamma    90

_space_group_name_H-M_alt    "P 1"
_space_group_IT_number       1

loop_
  _space_group_symop_operation_xyz
  'x, y, z'

loop_
  _atom_site_type_symbol
  _atom_site_label
  _atom_site_symmetry_multiplicity
  _atom_site_fract_x
  _atom_site_fract_y
  _atom_site_fract_z
  _atom_site_occupancy
  Mo  Mo1       1.0  0.00000  0.50000  0.19400  1.0000
  Mo  Mo2       1.0  0.50000  0.00000  0.80600  1.0000
  O   O1        1.0  0.50000  0.00000  0.21500  1.0000
  O   O2        1.0  0.06610  0.19200  0.28700  1.0000
  O   O3        1.0  0.69200  0.43400  0.28700  1.0000
  O   O4        1.0  0.30800  0.56600  0.28700  1.0000
  O   O5        1.0  0.93400  0.80800  0.28700  1.0000
  O   O6        1.0  0.80800  0.06610  0.71300  1.0000
  O   O7        1.0  0.43400  0.30800  0.71300  1.0000
  O   O8        1.0  0.56600  0.69200  0.71300  1.0000
  O   O9        1.0  0.19200  0.93400  0.71300  1.0000
  O   O10       1.0  0.00000  0.50000  0.78500  1.0000
  P   P1        1.0  0.00000  0.00000  0.50000  1.0000
  P   P2        1.0  0.50000  0.50000  0.50000  1.0000
