data_image0
_chemical_formula_structural       In3K3O6
_chemical_formula_sum              "In3 K3 O6"
_cell_length_a       3.32225
_cell_length_b       3.32232
_cell_length_c       18.2663
_cell_angle_alpha    90
_cell_angle_beta     89.9957
_cell_angle_gamma    120.001

_space_group_name_H-M_alt    "P 1"
_space_group_IT_number       1

loop_
  _space_group_symop_operation_xyz
  'x, y, z'

loop_
  _atom_site_type_symbol
  _atom_site_label
  _atom_site_symmetry_multiplicity
  _atom_site_fract_x
  _atom_site_fract_y
  _atom_site_fract_z
  _atom_site_occupancy
  In  In1       1.0  0.00000  0.00000  1.00000  1.0000
  In  In2       1.0  0.66700  0.33300  0.33300  1.0000
  In  In3       1.0  0.33300  0.66700  0.66700  1.0000
  K   K1        1.0  0.33300  0.66700  0.16700  1.0000
  K   K2        1.0  0.00003  0.00001  0.50000  1.0000
  K   K3        1.0  0.66700  0.33300  0.83300  1.0000
  O   O1        1.0  0.66700  0.33300  0.06320  1.0000
  O   O2        1.0  0.00002  0.00001  0.27000  1.0000
  O   O3        1.0  0.33300  0.66700  0.39700  1.0000
  O   O4        1.0  0.66700  0.33300  0.60300  1.0000
  O   O5        1.0  0.00001  0.00000  0.73000  1.0000
  O   O6        1.0  0.33300  0.66700  0.93700  1.0000
