data_image0
_chemical_formula_structural       Al4Ce6I4
_chemical_formula_sum              "Al4 Ce6 I4"
_cell_length_a       4.32837
_cell_length_b       10.1148
_cell_length_c       11.3824
_cell_angle_alpha    104.58
_cell_angle_beta     100.961
_cell_angle_gamma    102.355

_space_group_name_H-M_alt    "P 1"
_space_group_IT_number       1

loop_
  _space_group_symop_operation_xyz
  'x, y, z'

loop_
  _atom_site_type_symbol
  _atom_site_label
  _atom_site_symmetry_multiplicity
  _atom_site_fract_x
  _atom_site_fract_y
  _atom_site_fract_z
  _atom_site_occupancy
  Al  Al1       1.0  0.07610  0.73600  0.41600  1.0000
  Al  Al2       1.0  0.54100  0.61400  0.46800  1.0000
  Al  Al3       1.0  0.45900  0.38600  0.53200  1.0000
  Al  Al4       1.0  0.92400  0.26400  0.58400  1.0000
  Ce  Ce1       1.0  0.44500  0.68900  0.20100  1.0000
  Ce  Ce2       1.0  0.84500  0.37900  0.31000  1.0000
  Ce  Ce3       1.0  0.22200  0.05330  0.39000  1.0000
  Ce  Ce4       1.0  0.77800  0.94700  0.61000  1.0000
  Ce  Ce5       1.0  0.15500  0.62100  0.69000  1.0000
  Ce  Ce6       1.0  0.55500  0.31100  0.79900  1.0000
  I   I1        1.0  0.20200  0.34400  0.06030  1.0000
  I   I2        1.0  0.59300  0.01710  0.16900  1.0000
  I   I3        1.0  0.40700  0.98300  0.83100  1.0000
  I   I4        1.0  0.79800  0.65600  0.94000  1.0000
