data_image0
_chemical_formula_structural       Cd6Cl4O4
_chemical_formula_sum              "Cd6 Cl4 O4"
_cell_length_a       6.45139
_cell_length_b       6.76841
_cell_length_c       6.69808
_cell_angle_alpha    90
_cell_angle_beta     115.95
_cell_angle_gamma    90

_space_group_name_H-M_alt    "P 1"
_space_group_IT_number       1

loop_
  _space_group_symop_operation_xyz
  'x, y, z'

loop_
  _atom_site_type_symbol
  _atom_site_label
  _atom_site_symmetry_multiplicity
  _atom_site_fract_x
  _atom_site_fract_y
  _atom_site_fract_z
  _atom_site_occupancy
  Cd  Cd1       1.0  0.00000  0.00000  0.00000  1.0000
  Cd  Cd2       1.0  0.59100  0.87500  0.23400  1.0000
  Cd  Cd3       1.0  0.40900  0.37500  0.26600  1.0000
  Cd  Cd4       1.0  0.00000  0.50000  0.50000  1.0000
  Cd  Cd5       1.0  0.59100  0.62500  0.73400  1.0000
  Cd  Cd6       1.0  0.40900  0.12500  0.76600  1.0000
  Cl  Cl1       1.0  0.81100  0.36400  0.06720  1.0000
  Cl  Cl2       1.0  0.18900  0.86400  0.43300  1.0000
  Cl  Cl3       1.0  0.81100  0.13600  0.56700  1.0000
  Cl  Cl4       1.0  0.18900  0.63600  0.93300  1.0000
  O   O1        1.0  0.33200  0.11300  0.06230  1.0000
  O   O2        1.0  0.66800  0.61300  0.43800  1.0000
  O   O3        1.0  0.33200  0.38700  0.56200  1.0000
  O   O4        1.0  0.66800  0.88700  0.93800  1.0000
