data_image0
_chemical_formula_structural       Eu4S8Si2
_chemical_formula_sum              "Eu4 S8 Si2"
_cell_length_a       6.46357
_cell_length_b       6.53133
_cell_length_c       8.03487
_cell_angle_alpha    90
_cell_angle_beta     108.193
_cell_angle_gamma    90

_space_group_name_H-M_alt    "P 1"
_space_group_IT_number       1

loop_
  _space_group_symop_operation_xyz
  'x, y, z'

loop_
  _atom_site_type_symbol
  _atom_site_label
  _atom_site_symmetry_multiplicity
  _atom_site_fract_x
  _atom_site_fract_y
  _atom_site_fract_z
  _atom_site_occupancy
  Eu  Eu1       1.0  0.71600  0.25000  0.04910  1.0000
  Eu  Eu2       1.0  0.23200  0.75000  0.43100  1.0000
  Eu  Eu3       1.0  0.76800  0.25000  0.56900  1.0000
  Eu  Eu4       1.0  0.28400  0.75000  0.95100  1.0000
  S   S1        1.0  0.89500  0.75000  0.07110  1.0000
  S   S2        1.0  0.49500  0.50200  0.26300  1.0000
  S   S3        1.0  0.49500  0.99800  0.26300  1.0000
  S   S4        1.0  0.07810  0.25000  0.37000  1.0000
  S   S5        1.0  0.92200  0.75000  0.63000  1.0000
  S   S6        1.0  0.50500  0.00186  0.73700  1.0000
  S   S7        1.0  0.50500  0.49800  0.73700  1.0000
  S   S8        1.0  0.10500  0.25000  0.92900  1.0000
  Si  Si1       1.0  0.27500  0.25000  0.20200  1.0000
  Si  Si2       1.0  0.72500  0.75000  0.79800  1.0000
