data_image0
_chemical_formula_structural       B2Na6S6
_chemical_formula_sum              "B2 Na6 S6"
_cell_length_a       6.68244
_cell_length_b       6.81629
_cell_length_c       8.39707
_cell_angle_alpha    90.5832
_cell_angle_beta     113.447
_cell_angle_gamma    119.353

_space_group_name_H-M_alt    "P 1"
_space_group_IT_number       1

loop_
  _space_group_symop_operation_xyz
  'x, y, z'

loop_
  _atom_site_type_symbol
  _atom_site_label
  _atom_site_symmetry_multiplicity
  _atom_site_fract_x
  _atom_site_fract_y
  _atom_site_fract_z
  _atom_site_occupancy
  B   B1        1.0  0.17200  0.25000  0.25000  1.0000
  B   B2        1.0  0.82800  0.75000  0.75000  1.0000
  Na  Na1       1.0  0.00000  0.50000  0.00000  1.0000
  Na  Na2       1.0  0.62100  0.81000  0.00434  1.0000
  Na  Na3       1.0  0.30700  0.69000  0.49600  1.0000
  Na  Na4       1.0  0.00000  0.00000  0.50000  1.0000
  Na  Na5       1.0  0.69300  0.31000  0.50400  1.0000
  Na  Na6       1.0  0.37900  0.19000  0.99600  1.0000
  S   S1        1.0  0.44000  0.51800  0.24700  1.0000
  S   S2        1.0  0.89300  0.25000  0.25000  1.0000
  S   S3        1.0  0.17600  0.98200  0.25300  1.0000
  S   S4        1.0  0.82400  0.01760  0.74700  1.0000
  S   S5        1.0  0.10700  0.75000  0.75000  1.0000
  S   S6        1.0  0.56000  0.48200  0.75300  1.0000
