data_image0
_chemical_formula_structural       Ir4Si4Sm6
_chemical_formula_sum              "Ir4 Si4 Sm6"
_cell_length_a       4.1308
_cell_length_b       5.70678
_cell_length_c       13.4183
_cell_angle_alpha    90
_cell_angle_beta     90
_cell_angle_gamma    68.7818

_space_group_name_H-M_alt    "P 1"
_space_group_IT_number       1

loop_
  _space_group_symop_operation_xyz
  'x, y, z'

loop_
  _atom_site_type_symbol
  _atom_site_label
  _atom_site_symmetry_multiplicity
  _atom_site_fract_x
  _atom_site_fract_y
  _atom_site_fract_z
  _atom_site_occupancy
  Ir  Ir1       1.0  0.50000  0.00000  0.00000  1.0000
  Ir  Ir2       1.0  0.81500  0.37100  0.25000  1.0000
  Ir  Ir3       1.0  0.50000  0.00000  0.50000  1.0000
  Ir  Ir4       1.0  0.18500  0.62900  0.75000  1.0000
  Si  Si1       1.0  0.93900  0.12200  0.08880  1.0000
  Si  Si2       1.0  0.93900  0.12200  0.41100  1.0000
  Si  Si3       1.0  0.06100  0.87800  0.58900  1.0000
  Si  Si4       1.0  0.06100  0.87800  0.91100  1.0000
  Sm  Sm1       1.0  0.22700  0.54700  0.10400  1.0000
  Sm  Sm2       1.0  0.51700  0.96500  0.25000  1.0000
  Sm  Sm3       1.0  0.22700  0.54700  0.39600  1.0000
  Sm  Sm4       1.0  0.77300  0.45300  0.60400  1.0000
  Sm  Sm5       1.0  0.48300  0.03460  0.75000  1.0000
  Sm  Sm6       1.0  0.77300  0.45300  0.89600  1.0000
