data_image0
_chemical_formula_structural       La6O6Sb2
_chemical_formula_sum              "La6 O6 Sb2"
_cell_length_a       4.09994
_cell_length_b       7.2069
_cell_length_c       11.0467
_cell_angle_alpha    92.0521
_cell_angle_beta     100.695
_cell_angle_gamma    106.526

_space_group_name_H-M_alt    "P 1"
_space_group_IT_number       1

loop_
  _space_group_symop_operation_xyz
  'x, y, z'

loop_
  _atom_site_type_symbol
  _atom_site_label
  _atom_site_symmetry_multiplicity
  _atom_site_fract_x
  _atom_site_fract_y
  _atom_site_fract_z
  _atom_site_occupancy
  La  La1       1.0  0.72900  0.35700  0.10100  1.0000
  La  La2       1.0  0.05250  0.89800  0.20700  1.0000
  La  La3       1.0  0.82600  0.20800  0.44500  1.0000
  La  La4       1.0  0.17400  0.79200  0.55500  1.0000
  La  La5       1.0  0.94700  0.10200  0.79300  1.0000
  La  La6       1.0  0.27100  0.64300  0.89900  1.0000
  O   O1        1.0  0.85100  0.69000  0.01190  1.0000
  O   O2        1.0  0.63700  0.07310  0.20200  1.0000
  O   O3        1.0  0.22200  0.03210  0.41100  1.0000
  O   O4        1.0  0.77800  0.96800  0.58900  1.0000
  O   O5        1.0  0.36300  0.92700  0.79800  1.0000
  O   O6        1.0  0.14900  0.31000  0.98800  1.0000
  Sb  Sb1       1.0  0.44000  0.56200  0.31900  1.0000
  Sb  Sb2       1.0  0.56000  0.43800  0.68100  1.0000
