data_image0
_chemical_formula_structural       Ni2U12
_chemical_formula_sum              "Ni2 U12"
_cell_length_a       5.10608
_cell_length_b       7.70966
_cell_length_c       7.70966
_cell_angle_alpha    96.2957
_cell_angle_beta     70.6615
_cell_angle_gamma    109.339

_space_group_name_H-M_alt    "P 1"
_space_group_IT_number       1

loop_
  _space_group_symop_operation_xyz
  'x, y, z'

loop_
  _atom_site_type_symbol
  _atom_site_label
  _atom_site_symmetry_multiplicity
  _atom_site_fract_x
  _atom_site_fract_y
  _atom_site_fract_z
  _atom_site_occupancy
  Ni  Ni1       1.0  0.25000  0.00000  0.00000  1.0000
  Ni  Ni2       1.0  0.75000  0.00000  0.00000  1.0000
  U   U1        1.0  0.60700  0.32500  0.11200  1.0000
  U   U2        1.0  0.78200  0.67500  0.11200  1.0000
  U   U3        1.0  0.09440  0.50000  0.31100  1.0000
  U   U4        1.0  0.89300  0.11200  0.32500  1.0000
  U   U5        1.0  0.28200  0.88800  0.32500  1.0000
  U   U6        1.0  0.40600  0.31100  0.50000  1.0000
  U   U7        1.0  0.59400  0.68900  0.50000  1.0000
  U   U8        1.0  0.71800  0.11200  0.67500  1.0000
  U   U9        1.0  0.10700  0.88800  0.67500  1.0000
  U   U10       1.0  0.90600  0.50000  0.68900  1.0000
  U   U11       1.0  0.21800  0.32500  0.88800  1.0000
  U   U12       1.0  0.39300  0.67500  0.88800  1.0000
