data_image0
_chemical_formula_structural       Au6Eu2In6
_chemical_formula_sum              "Au6 Eu2 In6"
_cell_length_a       4.56659
_cell_length_b       7.75612
_cell_length_c       9.23168
_cell_angle_alpha    90
_cell_angle_beta     90
_cell_angle_gamma    90

_space_group_name_H-M_alt    "P 1"
_space_group_IT_number       1

loop_
  _space_group_symop_operation_xyz
  'x, y, z'

loop_
  _atom_site_type_symbol
  _atom_site_label
  _atom_site_symmetry_multiplicity
  _atom_site_fract_x
  _atom_site_fract_y
  _atom_site_fract_z
  _atom_site_occupancy
  Au  Au1       1.0  0.25000  0.25000  0.04930  1.0000
  Au  Au2       1.0  0.75000  0.00893  0.40800  1.0000
  Au  Au3       1.0  0.75000  0.49100  0.40800  1.0000
  Au  Au4       1.0  0.25000  0.50900  0.59200  1.0000
  Au  Au5       1.0  0.25000  0.99100  0.59200  1.0000
  Au  Au6       1.0  0.75000  0.75000  0.95100  1.0000
  Eu  Eu1       1.0  0.25000  0.75000  0.28300  1.0000
  Eu  Eu2       1.0  0.75000  0.25000  0.71700  1.0000
  In  In1       1.0  0.75000  0.04820  0.11600  1.0000
  In  In2       1.0  0.75000  0.45200  0.11600  1.0000
  In  In3       1.0  0.25000  0.25000  0.36500  1.0000
  In  In4       1.0  0.75000  0.75000  0.63500  1.0000
  In  In5       1.0  0.25000  0.54800  0.88400  1.0000
  In  In6       1.0  0.25000  0.95200  0.88400  1.0000
