data_image0
_chemical_formula_structural       Cd2Ho4S8
_chemical_formula_sum              "Cd2 Ho4 S8"
_cell_length_a       7.94007
_cell_length_b       7.94007
_cell_length_c       7.94007
_cell_angle_alpha    120
_cell_angle_beta     90
_cell_angle_gamma    120

_space_group_name_H-M_alt    "P 1"
_space_group_IT_number       1

loop_
  _space_group_symop_operation_xyz
  'x, y, z'

loop_
  _atom_site_type_symbol
  _atom_site_label
  _atom_site_symmetry_multiplicity
  _atom_site_fract_x
  _atom_site_fract_y
  _atom_site_fract_z
  _atom_site_occupancy
  Cd  Cd1       1.0  0.87500  0.75000  0.12500  1.0000
  Cd  Cd2       1.0  0.12500  0.25000  0.87500  1.0000
  Ho  Ho1       1.0  0.50000  0.00000  0.00000  1.0000
  Ho  Ho2       1.0  0.50000  0.00000  0.50000  1.0000
  Ho  Ho3       1.0  0.00000  0.50000  0.50000  1.0000
  Ho  Ho4       1.0  0.50000  0.50000  0.50000  1.0000
  S   S1        1.0  0.74300  0.01500  0.25700  1.0000
  S   S2        1.0  0.27200  0.01500  0.25700  1.0000
  S   S3        1.0  0.74300  0.48500  0.25700  1.0000
  S   S4        1.0  0.25700  0.51500  0.27200  1.0000
  S   S5        1.0  0.74300  0.48500  0.72800  1.0000
  S   S6        1.0  0.25700  0.51500  0.74300  1.0000
  S   S7        1.0  0.25700  0.98500  0.74300  1.0000
  S   S8        1.0  0.72800  0.98500  0.74300  1.0000
