data_image0
_chemical_formula_structural       C4O8Pb2
_chemical_formula_sum              "C4 O8 Pb2"
_cell_length_a       5.4882
_cell_length_b       6.89805
_cell_length_c       5.52184
_cell_angle_alpha    109.392
_cell_angle_beta     113.219
_cell_angle_gamma    89.549

_space_group_name_H-M_alt    "P 1"
_space_group_IT_number       1

loop_
  _space_group_symop_operation_xyz
  'x, y, z'

loop_
  _atom_site_type_symbol
  _atom_site_label
  _atom_site_symmetry_multiplicity
  _atom_site_fract_x
  _atom_site_fract_y
  _atom_site_fract_z
  _atom_site_occupancy
  C   C1        1.0  0.87500  0.50100  0.37300  1.0000
  C   C2        1.0  0.35400  0.95300  0.45400  1.0000
  C   C3        1.0  0.64600  0.04700  0.54600  1.0000
  C   C4        1.0  0.12500  0.49900  0.62700  1.0000
  O   O1        1.0  0.87000  0.42000  0.13000  1.0000
  O   O2        1.0  0.17600  0.98500  0.24400  1.0000
  O   O3        1.0  0.69000  0.14600  0.40900  1.0000
  O   O4        1.0  0.68200  0.58400  0.41900  1.0000
  O   O5        1.0  0.31800  0.41600  0.58100  1.0000
  O   O6        1.0  0.31000  0.85400  0.59100  1.0000
  O   O7        1.0  0.82400  0.01490  0.75600  1.0000
  O   O8        1.0  0.13000  0.58000  0.87000  1.0000
  Pb  Pb1       1.0  0.27000  0.26000  0.08630  1.0000
  Pb  Pb2       1.0  0.73000  0.74000  0.91400  1.0000
