data_image0
_chemical_formula_structural       Ca8In4
_chemical_formula_sum              "Ca8 In4"
_cell_length_a       7.23949
_cell_length_b       5.35257
_cell_length_c       9.95981
_cell_angle_alpha    90
_cell_angle_beta     90
_cell_angle_gamma    90

_space_group_name_H-M_alt    "P 1"
_space_group_IT_number       1

loop_
  _space_group_symop_operation_xyz
  'x, y, z'

loop_
  _atom_site_type_symbol
  _atom_site_label
  _atom_site_symmetry_multiplicity
  _atom_site_fract_x
  _atom_site_fract_y
  _atom_site_fract_z
  _atom_site_occupancy
  Ca  Ca1       1.0  0.17400  0.25000  0.06480  1.0000
  Ca  Ca2       1.0  0.46600  0.75000  0.20200  1.0000
  Ca  Ca3       1.0  0.96600  0.75000  0.29800  1.0000
  Ca  Ca4       1.0  0.67400  0.25000  0.43500  1.0000
  Ca  Ca5       1.0  0.32600  0.75000  0.56500  1.0000
  Ca  Ca6       1.0  0.03440  0.25000  0.70200  1.0000
  Ca  Ca7       1.0  0.53400  0.25000  0.79800  1.0000
  Ca  Ca8       1.0  0.82600  0.75000  0.93500  1.0000
  In  In1       1.0  0.72400  0.25000  0.11300  1.0000
  In  In2       1.0  0.22400  0.25000  0.38700  1.0000
  In  In3       1.0  0.77600  0.75000  0.61300  1.0000
  In  In4       1.0  0.27600  0.75000  0.88700  1.0000
