data_image0
_chemical_formula_structural       Gd6O6Sb2
_chemical_formula_sum              "Gd6 O6 Sb2"
_cell_length_a       3.89804
_cell_length_b       6.8795
_cell_length_c       10.6048
_cell_angle_alpha    92.0125
_cell_angle_beta     100.59
_cell_angle_gamma    106.458

_space_group_name_H-M_alt    "P 1"
_space_group_IT_number       1

loop_
  _space_group_symop_operation_xyz
  'x, y, z'

loop_
  _atom_site_type_symbol
  _atom_site_label
  _atom_site_symmetry_multiplicity
  _atom_site_fract_x
  _atom_site_fract_y
  _atom_site_fract_z
  _atom_site_occupancy
  Gd  Gd1       1.0  0.22900  0.35700  0.10000  1.0000
  Gd  Gd2       1.0  0.55100  0.89400  0.20700  1.0000
  Gd  Gd3       1.0  0.32300  0.20400  0.44200  1.0000
  Gd  Gd4       1.0  0.67700  0.79600  0.55800  1.0000
  Gd  Gd5       1.0  0.44900  0.10600  0.79300  1.0000
  Gd  Gd6       1.0  0.77100  0.64300  0.90000  1.0000
  O   O1        1.0  0.35100  0.68900  0.01310  1.0000
  O   O2        1.0  0.13200  0.06800  0.19600  1.0000
  O   O3        1.0  0.72000  0.03100  0.41000  1.0000
  O   O4        1.0  0.28000  0.96900  0.59000  1.0000
  O   O5        1.0  0.86800  0.93200  0.80400  1.0000
  O   O6        1.0  0.64900  0.31100  0.98700  1.0000
  Sb  Sb1       1.0  0.93900  0.55800  0.32100  1.0000
  Sb  Sb2       1.0  0.06070  0.44200  0.67900  1.0000
