data_image0
_chemical_formula_structural       Au5Cs7O2
_chemical_formula_sum              "Au5 Cs7 O2"
_cell_length_a       6.07764
_cell_length_b       9.74987
_cell_length_c       10.4336
_cell_angle_alpha    117.855
_cell_angle_beta     106.933
_cell_angle_gamma    90

_space_group_name_H-M_alt    "P 1"
_space_group_IT_number       1

loop_
  _space_group_symop_operation_xyz
  'x, y, z'

loop_
  _atom_site_type_symbol
  _atom_site_label
  _atom_site_symmetry_multiplicity
  _atom_site_fract_x
  _atom_site_fract_y
  _atom_site_fract_z
  _atom_site_occupancy
  Au  Au1       1.0  0.00000  0.00000  0.00000  1.0000
  Au  Au2       1.0  0.64700  0.64700  0.29400  1.0000
  Au  Au3       1.0  0.68700  0.18700  0.37500  1.0000
  Au  Au4       1.0  0.31300  0.81300  0.62500  1.0000
  Au  Au5       1.0  0.35300  0.35300  0.70600  1.0000
  Cs  Cs1       1.0  0.50000  0.21000  0.00000  1.0000
  Cs  Cs2       1.0  0.00000  0.50000  0.00000  1.0000
  Cs  Cs3       1.0  0.50000  0.79000  0.00000  1.0000
  Cs  Cs4       1.0  0.16900  0.38800  0.33700  1.0000
  Cs  Cs5       1.0  0.16900  0.94900  0.33700  1.0000
  Cs  Cs6       1.0  0.83100  0.05100  0.66300  1.0000
  Cs  Cs7       1.0  0.83100  0.61200  0.66300  1.0000
  O   O1        1.0  0.00000  0.20900  0.00000  1.0000
  O   O2        1.0  0.00000  0.79100  0.00000  1.0000
