data_image0
_chemical_formula_structural       Ge2K2Se8Sm2
_chemical_formula_sum              "Ge2 K2 Se8 Sm2"
_cell_length_a       6.89207
_cell_length_b       7.06379
_cell_length_c       9.13202
_cell_angle_alpha    90
_cell_angle_beta     108.018
_cell_angle_gamma    90

_space_group_name_H-M_alt    "P 1"
_space_group_IT_number       1

loop_
  _space_group_symop_operation_xyz
  'x, y, z'

loop_
  _atom_site_type_symbol
  _atom_site_label
  _atom_site_symmetry_multiplicity
  _atom_site_fract_x
  _atom_site_fract_y
  _atom_site_fract_z
  _atom_site_occupancy
  Ge  Ge1       1.0  0.72000  0.26300  0.32300  1.0000
  Ge  Ge2       1.0  0.28000  0.76300  0.67700  1.0000
  K   K1        1.0  0.75300  0.78800  0.06190  1.0000
  K   K2        1.0  0.24700  0.28800  0.93800  1.0000
  Se  Se1       1.0  0.92100  0.26000  0.15700  1.0000
  Se  Se2       1.0  0.46400  0.02170  0.27500  1.0000
  Se  Se3       1.0  0.50900  0.53900  0.29100  1.0000
  Se  Se4       1.0  0.06790  0.69600  0.42200  1.0000
  Se  Se5       1.0  0.93200  0.19600  0.57800  1.0000
  Se  Se6       1.0  0.49100  0.03900  0.70900  1.0000
  Se  Se7       1.0  0.53600  0.52200  0.72500  1.0000
  Se  Se8       1.0  0.07870  0.76000  0.84300  1.0000
  Sm  Sm1       1.0  0.26900  0.29600  0.44700  1.0000
  Sm  Sm2       1.0  0.73100  0.79600  0.55300  1.0000
