data_image0
_chemical_formula_structural       O6Sb2Sm6
_chemical_formula_sum              "O6 Sb2 Sm6"
_cell_length_a       3.95248
_cell_length_b       6.97503
_cell_length_c       10.7341
_cell_angle_alpha    92.0456
_cell_angle_beta     100.609
_cell_angle_gamma    106.459

_space_group_name_H-M_alt    "P 1"
_space_group_IT_number       1

loop_
  _space_group_symop_operation_xyz
  'x, y, z'

loop_
  _atom_site_type_symbol
  _atom_site_label
  _atom_site_symmetry_multiplicity
  _atom_site_fract_x
  _atom_site_fract_y
  _atom_site_fract_z
  _atom_site_occupancy
  O   O1        1.0  0.35000  0.68800  0.01220  1.0000
  O   O2        1.0  0.13300  0.06820  0.19700  1.0000
  O   O3        1.0  0.72100  0.03150  0.41000  1.0000
  O   O4        1.0  0.27900  0.96800  0.59000  1.0000
  O   O5        1.0  0.86700  0.93200  0.80300  1.0000
  O   O6        1.0  0.65000  0.31200  0.98800  1.0000
  Sb  Sb1       1.0  0.94000  0.55900  0.32100  1.0000
  Sb  Sb2       1.0  0.06010  0.44100  0.67900  1.0000
  Sm  Sm1       1.0  0.22900  0.35700  0.10100  1.0000
  Sm  Sm2       1.0  0.55000  0.89400  0.20700  1.0000
  Sm  Sm3       1.0  0.32300  0.20500  0.44200  1.0000
  Sm  Sm4       1.0  0.67700  0.79500  0.55800  1.0000
  Sm  Sm5       1.0  0.45000  0.10600  0.79300  1.0000
  Sm  Sm6       1.0  0.77100  0.64300  0.89900  1.0000
