data_image0
_chemical_formula_structural       K2S8Si2Yb2
_chemical_formula_sum              "K2 S8 Si2 Yb2"
_cell_length_a       6.78847
_cell_length_b       5.71121
_cell_length_c       9.0328
_cell_angle_alpha    90
_cell_angle_beta     106.041
_cell_angle_gamma    90

_space_group_name_H-M_alt    "P 1"
_space_group_IT_number       1

loop_
  _space_group_symop_operation_xyz
  'x, y, z'

loop_
  _atom_site_type_symbol
  _atom_site_label
  _atom_site_symmetry_multiplicity
  _atom_site_fract_x
  _atom_site_fract_y
  _atom_site_fract_z
  _atom_site_occupancy
  K   K1        1.0  0.26700  0.20000  0.05020  1.0000
  K   K2        1.0  0.73300  0.70000  0.95000  1.0000
  S   S1        1.0  0.42500  0.70000  0.17300  1.0000
  S   S2        1.0  0.99700  0.44100  0.27400  1.0000
  S   S3        1.0  0.99700  0.95900  0.27500  1.0000
  S   S4        1.0  0.60700  0.19900  0.44000  1.0000
  S   S5        1.0  0.39300  0.69900  0.56000  1.0000
  S   S6        1.0  0.00338  0.45900  0.72500  1.0000
  S   S7        1.0  0.00341  0.94100  0.72600  1.0000
  S   S8        1.0  0.57500  0.20000  0.82700  1.0000
  Si  Si1       1.0  0.24100  0.69900  0.32400  1.0000
  Si  Si2       1.0  0.75900  0.19900  0.67600  1.0000
  Yb  Yb1       1.0  0.75000  0.69900  0.44500  1.0000
  Yb  Yb2       1.0  0.25000  0.19900  0.55500  1.0000
