data_image0
_chemical_formula_structural       C4CdHgN4Se4
_chemical_formula_sum              "C4 Cd1 Hg1 N4 Se4"
_cell_length_a       4.53249
_cell_length_b       8.60739
_cell_length_c       8.60739
_cell_angle_alpha    93.975
_cell_angle_beta     74.7346
_cell_angle_gamma    105.265

_space_group_name_H-M_alt    "P 1"
_space_group_IT_number       1

loop_
  _space_group_symop_operation_xyz
  'x, y, z'

loop_
  _atom_site_type_symbol
  _atom_site_label
  _atom_site_symmetry_multiplicity
  _atom_site_fract_x
  _atom_site_fract_y
  _atom_site_fract_z
  _atom_site_occupancy
  C   C1        1.0  0.59900  0.64500  0.18600  1.0000
  C   C2        1.0  0.04620  0.18600  0.35500  1.0000
  C   C3        1.0  0.21500  0.81400  0.64500  1.0000
  C   C4        1.0  0.14000  0.35500  0.81400  1.0000
  Cd  Cd1       1.0  0.75000  0.50000  0.50000  1.0000
  Hg  Hg1       1.0  0.00000  0.00000  0.00000  1.0000
  N   N1        1.0  0.63100  0.59000  0.30000  1.0000
  N   N2        1.0  0.95900  0.30000  0.41000  1.0000
  N   N3        1.0  0.06910  0.70000  0.59000  1.0000
  N   N4        1.0  0.34100  0.41000  0.70000  1.0000
  Se  Se1       1.0  0.53300  0.72600  0.01390  1.0000
  Se  Se2       1.0  0.19300  0.01390  0.27400  1.0000
  Se  Se3       1.0  0.45300  0.98600  0.72600  1.0000
  Se  Se4       1.0  0.82100  0.27400  0.98600  1.0000
