data_image0
_chemical_formula_structural       As2Cl10
_chemical_formula_sum              "As2 Cl10"
_cell_length_a       7.13131
_cell_length_b       7.65593
_cell_length_c       6.29081
_cell_angle_alpha    90
_cell_angle_beta     90
_cell_angle_gamma    90

_space_group_name_H-M_alt    "P 1"
_space_group_IT_number       1

loop_
  _space_group_symop_operation_xyz
  'x, y, z'

loop_
  _atom_site_type_symbol
  _atom_site_label
  _atom_site_symmetry_multiplicity
  _atom_site_fract_x
  _atom_site_fract_y
  _atom_site_fract_z
  _atom_site_occupancy
  As  As1       1.0  0.75000  0.25000  0.17400  1.0000
  As  As2       1.0  0.25000  0.75000  0.82600  1.0000
  Cl  Cl1       1.0  0.25000  0.75000  0.17000  1.0000
  Cl  Cl2       1.0  0.75000  0.54500  0.17400  1.0000
  Cl  Cl3       1.0  0.75000  0.95500  0.17400  1.0000
  Cl  Cl4       1.0  0.01070  0.25000  0.35300  1.0000
  Cl  Cl5       1.0  0.48900  0.25000  0.35300  1.0000
  Cl  Cl6       1.0  0.51100  0.75000  0.64700  1.0000
  Cl  Cl7       1.0  0.98900  0.75000  0.64700  1.0000
  Cl  Cl8       1.0  0.25000  0.04490  0.82600  1.0000
  Cl  Cl9       1.0  0.25000  0.45500  0.82600  1.0000
  Cl  Cl10      1.0  0.75000  0.25000  0.83000  1.0000
