data_image0
_chemical_formula_structural       Ge2K2S8Tb2
_chemical_formula_sum              "Ge2 K2 S8 Tb2"
_cell_length_a       6.52931
_cell_length_b       6.67695
_cell_length_c       8.72382
_cell_angle_alpha    90
_cell_angle_beta     107.729
_cell_angle_gamma    90

_space_group_name_H-M_alt    "P 1"
_space_group_IT_number       1

loop_
  _space_group_symop_operation_xyz
  'x, y, z'

loop_
  _atom_site_type_symbol
  _atom_site_label
  _atom_site_symmetry_multiplicity
  _atom_site_fract_x
  _atom_site_fract_y
  _atom_site_fract_z
  _atom_site_occupancy
  Ge  Ge1       1.0  0.22300  0.60300  0.32500  1.0000
  Ge  Ge2       1.0  0.77700  0.10300  0.67500  1.0000
  K   K1        1.0  0.26700  0.11800  0.06390  1.0000
  K   K2        1.0  0.73300  0.61800  0.93600  1.0000
  S   S1        1.0  0.42600  0.60100  0.16500  1.0000
  S   S2        1.0  0.97200  0.36400  0.28100  1.0000
  S   S3        1.0  0.01460  0.87500  0.29800  1.0000
  S   S4        1.0  0.56600  0.03520  0.42700  1.0000
  S   S5        1.0  0.43400  0.53500  0.57300  1.0000
  S   S6        1.0  0.98500  0.37500  0.70200  1.0000
  S   S7        1.0  0.02840  0.86400  0.71900  1.0000
  S   S8        1.0  0.57400  0.10100  0.83500  1.0000
  Tb  Tb1       1.0  0.77100  0.63700  0.44900  1.0000
  Tb  Tb2       1.0  0.22900  0.13700  0.55100  1.0000
