data_image0
_chemical_formula_structural       Gd3P4Pd7
_chemical_formula_sum              "Gd3 P4 Pd7"
_cell_length_a       4.03251
_cell_length_b       8.21648
_cell_length_c       7.99879
_cell_angle_alpha    101.556
_cell_angle_beta     104.6
_cell_angle_gamma    104.205

_space_group_name_H-M_alt    "P 1"
_space_group_IT_number       1

loop_
  _space_group_symop_operation_xyz
  'x, y, z'

loop_
  _atom_site_type_symbol
  _atom_site_label
  _atom_site_symmetry_multiplicity
  _atom_site_fract_x
  _atom_site_fract_y
  _atom_site_fract_z
  _atom_site_occupancy
  Gd  Gd1       1.0  0.00000  0.00000  0.00000  1.0000
  Gd  Gd2       1.0  0.99700  0.67800  0.31600  1.0000
  Gd  Gd3       1.0  0.00295  0.32200  0.68400  1.0000
  P   P1        1.0  0.40500  0.74500  0.06420  1.0000
  P   P2        1.0  0.28600  0.18000  0.39100  1.0000
  P   P3        1.0  0.71400  0.82000  0.60900  1.0000
  P   P4        1.0  0.59500  0.25500  0.93600  1.0000
  Pd  Pd1       1.0  0.25300  0.42000  0.08580  1.0000
  Pd  Pd2       1.0  0.77300  0.28300  0.26400  1.0000
  Pd  Pd3       1.0  0.66500  0.97100  0.36000  1.0000
  Pd  Pd4       1.0  0.50000  0.50000  0.50000  1.0000
  Pd  Pd5       1.0  0.33500  0.02940  0.64000  1.0000
  Pd  Pd6       1.0  0.22700  0.71700  0.73600  1.0000
  Pd  Pd7       1.0  0.74700  0.58000  0.91400  1.0000
