data_image0
_chemical_formula_structural       Ba2Cl10Gd2
_chemical_formula_sum              "Ba2 Cl10 Gd2"
_cell_length_a       5.5353
_cell_length_b       6.87032
_cell_length_c       10.0576
_cell_angle_alpha    90.8631
_cell_angle_beta     74.0273
_cell_angle_gamma    93.1379

_space_group_name_H-M_alt    "P 1"
_space_group_IT_number       1

loop_
  _space_group_symop_operation_xyz
  'x, y, z'

loop_
  _atom_site_type_symbol
  _atom_site_label
  _atom_site_symmetry_multiplicity
  _atom_site_fract_x
  _atom_site_fract_y
  _atom_site_fract_z
  _atom_site_occupancy
  Ba  Ba1       1.0  0.32800  0.25000  0.34400  1.0000
  Ba  Ba2       1.0  0.67200  0.75000  0.65600  1.0000
  Cl  Cl1       1.0  0.21000  0.09670  0.06430  1.0000
  Cl  Cl2       1.0  0.72500  0.40300  0.06430  1.0000
  Cl  Cl3       1.0  0.37200  0.75000  0.25500  1.0000
  Cl  Cl4       1.0  0.80400  0.00186  0.37600  1.0000
  Cl  Cl5       1.0  0.81900  0.49800  0.37600  1.0000
  Cl  Cl6       1.0  0.18100  0.50200  0.62400  1.0000
  Cl  Cl7       1.0  0.19600  0.99800  0.62400  1.0000
  Cl  Cl8       1.0  0.62800  0.25000  0.74500  1.0000
  Cl  Cl9       1.0  0.27500  0.59700  0.93600  1.0000
  Cl  Cl10      1.0  0.79000  0.90300  0.93600  1.0000
  Gd  Gd1       1.0  0.92300  0.75000  0.15400  1.0000
  Gd  Gd2       1.0  0.07690  0.25000  0.84600  1.0000
