data_image0
_chemical_formula_structural       Eu2Li2P2Se8
_chemical_formula_sum              "Eu2 Li2 P2 Se8"
_cell_length_a       6.1489
_cell_length_b       6.1489
_cell_length_c       9.84834
_cell_angle_alpha    90
_cell_angle_beta     90
_cell_angle_gamma    72.4402

_space_group_name_H-M_alt    "P 1"
_space_group_IT_number       1

loop_
  _space_group_symop_operation_xyz
  'x, y, z'

loop_
  _atom_site_type_symbol
  _atom_site_label
  _atom_site_symmetry_multiplicity
  _atom_site_fract_x
  _atom_site_fract_y
  _atom_site_fract_z
  _atom_site_occupancy
  Eu  Eu1       1.0  0.88200  0.11800  0.00000  1.0000
  Eu  Eu2       1.0  0.88200  0.11800  0.50000  1.0000
  Li  Li1       1.0  0.36100  0.63900  0.00000  1.0000
  Li  Li2       1.0  0.36100  0.63900  0.50000  1.0000
  P   P1        1.0  0.16300  0.41300  0.25000  1.0000
  P   P2        1.0  0.58700  0.83700  0.75000  1.0000
  Se  Se1       1.0  0.33100  0.24600  0.05900  1.0000
  Se  Se2       1.0  0.80100  0.41300  0.25000  1.0000
  Se  Se3       1.0  0.17300  0.77600  0.25000  1.0000
  Se  Se4       1.0  0.33100  0.24600  0.44100  1.0000
  Se  Se5       1.0  0.75400  0.66900  0.55900  1.0000
  Se  Se6       1.0  0.58700  0.19900  0.75000  1.0000
  Se  Se7       1.0  0.22400  0.82700  0.75000  1.0000
  Se  Se8       1.0  0.75400  0.66900  0.94100  1.0000
