data_image0
_chemical_formula_structural       Pt8Yb6
_chemical_formula_sum              "Pt8 Yb6"
_cell_length_a       5.77092
_cell_length_b       7.53987
_cell_length_c       7.53987
_cell_angle_alpha    113.726
_cell_angle_beta     104.781
_cell_angle_gamma    104.781

_space_group_name_H-M_alt    "P 1"
_space_group_IT_number       1

loop_
  _space_group_symop_operation_xyz
  'x, y, z'

loop_
  _atom_site_type_symbol
  _atom_site_label
  _atom_site_symmetry_multiplicity
  _atom_site_fract_x
  _atom_site_fract_y
  _atom_site_fract_z
  _atom_site_occupancy
  Pt  Pt1       1.0  0.00000  0.00000  0.00000  1.0000
  Pt  Pt2       1.0  0.50000  0.00000  0.00000  1.0000
  Pt  Pt3       1.0  0.85700  0.42600  0.14200  1.0000
  Pt  Pt4       1.0  0.71500  0.85800  0.28400  1.0000
  Pt  Pt5       1.0  0.56800  0.28400  0.42600  1.0000
  Pt  Pt6       1.0  0.43200  0.71600  0.57400  1.0000
  Pt  Pt7       1.0  0.28500  0.14200  0.71600  1.0000
  Pt  Pt8       1.0  0.14300  0.57400  0.85800  1.0000
  Yb  Yb1       1.0  0.36300  0.41800  0.14000  1.0000
  Yb  Yb2       1.0  0.22400  0.86000  0.27800  1.0000
  Yb  Yb3       1.0  0.05400  0.27800  0.41800  1.0000
  Yb  Yb4       1.0  0.94600  0.72200  0.58200  1.0000
  Yb  Yb5       1.0  0.77600  0.14000  0.72200  1.0000
  Yb  Yb6       1.0  0.63700  0.58200  0.86000  1.0000
