data_image0
_chemical_formula_structural       Au8In4Rb2
_chemical_formula_sum              "Au8 In4 Rb2"
_cell_length_a       7.59695
_cell_length_b       7.59695
_cell_length_c       7.59695
_cell_angle_alpha    112.549
_cell_angle_beta     107.955
_cell_angle_gamma    107.955

_space_group_name_H-M_alt    "P 1"
_space_group_IT_number       1

loop_
  _space_group_symop_operation_xyz
  'x, y, z'

loop_
  _atom_site_type_symbol
  _atom_site_label
  _atom_site_symmetry_multiplicity
  _atom_site_fract_x
  _atom_site_fract_y
  _atom_site_fract_z
  _atom_site_occupancy
  Au  Au1       1.0  0.19600  0.51400  0.01350  1.0000
  Au  Au2       1.0  0.50000  0.98600  0.18200  1.0000
  Au  Au3       1.0  0.80400  0.81800  0.31800  1.0000
  Au  Au4       1.0  0.50000  0.68200  0.48600  1.0000
  Au  Au5       1.0  0.50000  0.31800  0.51400  1.0000
  Au  Au6       1.0  0.19600  0.18200  0.68200  1.0000
  Au  Au7       1.0  0.50000  0.01350  0.81800  1.0000
  Au  Au8       1.0  0.80400  0.48600  0.98600  1.0000
  In  In1       1.0  0.50000  0.35900  0.14100  1.0000
  In  In2       1.0  0.21800  0.85900  0.35900  1.0000
  In  In3       1.0  0.78200  0.14100  0.64100  1.0000
  In  In4       1.0  0.50000  0.64100  0.85900  1.0000
  Rb  Rb1       1.0  0.00000  0.25000  0.25000  1.0000
  Rb  Rb2       1.0  0.00000  0.75000  0.75000  1.0000
