data_image0
_chemical_formula_structural       P4Pd7Tb3
_chemical_formula_sum              "P4 Pd7 Tb3"
_cell_length_a       4.02102
_cell_length_b       8.20177
_cell_length_c       7.97329
_cell_angle_alpha    101.55
_cell_angle_beta     104.605
_cell_angle_gamma    104.19

_space_group_name_H-M_alt    "P 1"
_space_group_IT_number       1

loop_
  _space_group_symop_operation_xyz
  'x, y, z'

loop_
  _atom_site_type_symbol
  _atom_site_label
  _atom_site_symmetry_multiplicity
  _atom_site_fract_x
  _atom_site_fract_y
  _atom_site_fract_z
  _atom_site_occupancy
  P   P1        1.0  0.40600  0.74600  0.06480  1.0000
  P   P2        1.0  0.28600  0.18000  0.39100  1.0000
  P   P3        1.0  0.71400  0.82000  0.60900  1.0000
  P   P4        1.0  0.59400  0.25400  0.93500  1.0000
  Pd  Pd1       1.0  0.25300  0.42100  0.08550  1.0000
  Pd  Pd2       1.0  0.77400  0.28300  0.26400  1.0000
  Pd  Pd3       1.0  0.66500  0.97100  0.36000  1.0000
  Pd  Pd4       1.0  0.50000  0.50000  0.50000  1.0000
  Pd  Pd5       1.0  0.33500  0.02940  0.64000  1.0000
  Pd  Pd6       1.0  0.22600  0.71700  0.73600  1.0000
  Pd  Pd7       1.0  0.74700  0.57900  0.91400  1.0000
  Tb  Tb1       1.0  0.00000  0.00000  0.00000  1.0000
  Tb  Tb2       1.0  0.99700  0.67800  0.31600  1.0000
  Tb  Tb3       1.0  0.00301  0.32200  0.68400  1.0000
