data_image0
_chemical_formula_structural       CsK2O8P2Yb
_chemical_formula_sum              "Cs1 K2 O8 P2 Yb1"
_cell_length_a       5.69181
_cell_length_b       5.69008
_cell_length_c       7.75945
_cell_angle_alpha    90
_cell_angle_beta     89.9908
_cell_angle_gamma    119.99

_space_group_name_H-M_alt    "P 1"
_space_group_IT_number       1

loop_
  _space_group_symop_operation_xyz
  'x, y, z'

loop_
  _atom_site_type_symbol
  _atom_site_label
  _atom_site_symmetry_multiplicity
  _atom_site_fract_x
  _atom_site_fract_y
  _atom_site_fract_z
  _atom_site_occupancy
  Cs  Cs1       1.0  0.00000  0.00000  0.50000  1.0000
  K   K1        1.0  0.33300  0.66700  0.20800  1.0000
  K   K2        1.0  0.66700  0.33300  0.79200  1.0000
  O   O1        1.0  0.81400  0.62800  0.17100  1.0000
  O   O2        1.0  0.81400  0.18600  0.17100  1.0000
  O   O3        1.0  0.37200  0.18600  0.17100  1.0000
  O   O4        1.0  0.66700  0.33300  0.43900  1.0000
  O   O5        1.0  0.33300  0.66700  0.56100  1.0000
  O   O6        1.0  0.62800  0.81400  0.82900  1.0000
  O   O7        1.0  0.18600  0.37200  0.82900  1.0000
  O   O8        1.0  0.18600  0.81400  0.82900  1.0000
  P   P1        1.0  0.66700  0.33300  0.24000  1.0000
  P   P2        1.0  0.33300  0.66700  0.76000  1.0000
  Yb  Yb1       1.0  0.00000  0.00000  0.00000  1.0000
