data_image0
_chemical_formula_structural       B2Br3C3Ce6
_chemical_formula_sum              "B2 Br3 C3 Ce6"
_cell_length_a       8.74134
_cell_length_b       3.89561
_cell_length_c       10.3738
_cell_angle_alpha    90
_cell_angle_beta     112.831
_cell_angle_gamma    90

_space_group_name_H-M_alt    "P 1"
_space_group_IT_number       1

loop_
  _space_group_symop_operation_xyz
  'x, y, z'

loop_
  _atom_site_type_symbol
  _atom_site_label
  _atom_site_symmetry_multiplicity
  _atom_site_fract_x
  _atom_site_fract_y
  _atom_site_fract_z
  _atom_site_occupancy
  B   B1        1.0  0.09000  0.00000  0.06680  1.0000
  B   B2        1.0  0.91000  0.00000  0.93300  1.0000
  Br  Br1       1.0  0.65000  0.00000  0.18600  1.0000
  Br  Br2       1.0  0.00000  0.50000  0.50000  1.0000
  Br  Br3       1.0  0.35000  0.00000  0.81400  1.0000
  C   C1        1.0  0.16800  0.00000  0.22500  1.0000
  C   C2        1.0  0.50000  0.50000  0.50000  1.0000
  C   C3        1.0  0.83200  0.00000  0.77500  1.0000
  Ce  Ce1       1.0  0.94600  0.50000  0.16300  1.0000
  Ce  Ce2       1.0  0.37400  0.50000  0.22500  1.0000
  Ce  Ce3       1.0  0.28800  0.00000  0.48300  1.0000
  Ce  Ce4       1.0  0.71200  0.00000  0.51700  1.0000
  Ce  Ce5       1.0  0.62600  0.50000  0.77500  1.0000
  Ce  Ce6       1.0  0.05370  0.50000  0.83700  1.0000
