data_image0
_chemical_formula_structural       Hf4In10
_chemical_formula_sum              "Hf4 In10"
_cell_length_a       10.3299
_cell_length_b       10.3299
_cell_length_c       3.06569
_cell_angle_alpha    90
_cell_angle_beta     90
_cell_angle_gamma    90

_space_group_name_H-M_alt    "P 1"
_space_group_IT_number       1

loop_
  _space_group_symop_operation_xyz
  'x, y, z'

loop_
  _atom_site_type_symbol
  _atom_site_label
  _atom_site_symmetry_multiplicity
  _atom_site_fract_x
  _atom_site_fract_y
  _atom_site_fract_z
  _atom_site_occupancy
  Hf  Hf1       1.0  0.32000  0.18000  0.50000  1.0000
  Hf  Hf2       1.0  0.82000  0.32000  0.50000  1.0000
  Hf  Hf3       1.0  0.18000  0.68000  0.50000  1.0000
  Hf  Hf4       1.0  0.68000  0.82000  0.50000  1.0000
  In  In1       1.0  0.50000  0.00000  0.00000  1.0000
  In  In2       1.0  0.79200  0.06130  0.00000  1.0000
  In  In3       1.0  0.06130  0.20800  0.00000  1.0000
  In  In4       1.0  0.56100  0.29200  0.00000  1.0000
  In  In5       1.0  0.29200  0.43900  0.00000  1.0000
  In  In6       1.0  0.00000  0.50000  0.00000  1.0000
  In  In7       1.0  0.70800  0.56100  0.00000  1.0000
  In  In8       1.0  0.43900  0.70800  0.00000  1.0000
  In  In9       1.0  0.93900  0.79200  0.00000  1.0000
  In  In10      1.0  0.20800  0.93900  0.00000  1.0000
