data_image0
_chemical_formula_structural       Ni8Ti6
_chemical_formula_sum              "Ni8 Ti6"
_cell_length_a       5.02525
_cell_length_b       6.67848
_cell_length_c       6.67848
_cell_angle_alpha    113.931
_cell_angle_beta     104.526
_cell_angle_gamma    104.526

_space_group_name_H-M_alt    "P 1"
_space_group_IT_number       1

loop_
  _space_group_symop_operation_xyz
  'x, y, z'

loop_
  _atom_site_type_symbol
  _atom_site_label
  _atom_site_symmetry_multiplicity
  _atom_site_fract_x
  _atom_site_fract_y
  _atom_site_fract_z
  _atom_site_occupancy
  Ni  Ni1       1.0  0.00000  0.00000  0.00000  1.0000
  Ni  Ni2       1.0  0.50000  0.00000  0.00000  1.0000
  Ni  Ni3       1.0  0.74300  0.68300  0.15900  1.0000
  Ni  Ni4       1.0  0.06010  0.47600  0.31700  1.0000
  Ni  Ni5       1.0  0.41600  0.15900  0.47600  1.0000
  Ni  Ni6       1.0  0.58400  0.84100  0.52400  1.0000
  Ni  Ni7       1.0  0.94000  0.52400  0.68300  1.0000
  Ni  Ni8       1.0  0.25700  0.31700  0.84100  1.0000
  Ti  Ti1       1.0  0.24100  0.73700  0.13400  1.0000
  Ti  Ti2       1.0  0.50400  0.39700  0.26300  1.0000
  Ti  Ti3       1.0  0.89300  0.13400  0.39700  1.0000
  Ti  Ti4       1.0  0.10700  0.86600  0.60300  1.0000
  Ti  Ti5       1.0  0.49600  0.60300  0.73700  1.0000
  Ti  Ti6       1.0  0.75900  0.26300  0.86600  1.0000
