data_image0
_chemical_formula_structural       B2C6Lu6
_chemical_formula_sum              "B2 C6 Lu6"
_cell_length_a       3.52561
_cell_length_b       3.52561
_cell_length_c       15.6908
_cell_angle_alpha    90
_cell_angle_beta     90
_cell_angle_gamma    90.3979

_space_group_name_H-M_alt    "P 1"
_space_group_IT_number       1

loop_
  _space_group_symop_operation_xyz
  'x, y, z'

loop_
  _atom_site_type_symbol
  _atom_site_label
  _atom_site_symmetry_multiplicity
  _atom_site_fract_x
  _atom_site_fract_y
  _atom_site_fract_z
  _atom_site_occupancy
  B   B1        1.0  0.00000  0.00000  0.00000  1.0000
  B   B2        1.0  0.00000  0.00000  0.50000  1.0000
  C   C1        1.0  0.09640  0.90400  0.08770  1.0000
  C   C2        1.0  0.59600  0.40400  0.25000  1.0000
  C   C3        1.0  0.09640  0.90400  0.41200  1.0000
  C   C4        1.0  0.90400  0.09640  0.58800  1.0000
  C   C5        1.0  0.40400  0.59600  0.75000  1.0000
  C   C6        1.0  0.90400  0.09640  0.91200  1.0000
  Lu  Lu1       1.0  0.58500  0.41500  0.10400  1.0000
  Lu  Lu2       1.0  0.09140  0.90900  0.25000  1.0000
  Lu  Lu3       1.0  0.58500  0.41500  0.39600  1.0000
  Lu  Lu4       1.0  0.41500  0.58500  0.60400  1.0000
  Lu  Lu5       1.0  0.90900  0.09140  0.75000  1.0000
  Lu  Lu6       1.0  0.41500  0.58500  0.89600  1.0000
