data_image0
_chemical_formula_structural       In10Ti4
_chemical_formula_sum              "In10 Ti4"
_cell_length_a       10.0487
_cell_length_b       10.0487
_cell_length_c       2.99904
_cell_angle_alpha    90
_cell_angle_beta     90
_cell_angle_gamma    90

_space_group_name_H-M_alt    "P 1"
_space_group_IT_number       1

loop_
  _space_group_symop_operation_xyz
  'x, y, z'

loop_
  _atom_site_type_symbol
  _atom_site_label
  _atom_site_symmetry_multiplicity
  _atom_site_fract_x
  _atom_site_fract_y
  _atom_site_fract_z
  _atom_site_occupancy
  In  In1       1.0  0.50000  0.00000  0.00000  1.0000
  In  In2       1.0  0.79300  0.06360  0.00000  1.0000
  In  In3       1.0  0.06360  0.20700  0.00000  1.0000
  In  In4       1.0  0.56400  0.29300  0.00000  1.0000
  In  In5       1.0  0.29300  0.43600  0.00000  1.0000
  In  In6       1.0  0.00000  0.50000  0.00000  1.0000
  In  In7       1.0  0.70700  0.56400  0.00000  1.0000
  In  In8       1.0  0.43600  0.70700  0.00000  1.0000
  In  In9       1.0  0.93600  0.79300  0.00000  1.0000
  In  In10      1.0  0.20700  0.93600  0.00000  1.0000
  Ti  Ti1       1.0  0.32100  0.17900  0.50000  1.0000
  Ti  Ti2       1.0  0.82100  0.32100  0.50000  1.0000
  Ti  Ti3       1.0  0.17900  0.67900  0.50000  1.0000
  Ti  Ti4       1.0  0.67900  0.82100  0.50000  1.0000
