data_image0
_chemical_formula_structural       Cs4Ge2S8
_chemical_formula_sum              "Cs4 Ge2 S8"
_cell_length_a       7.4642
_cell_length_b       8.33109
_cell_length_c       9.44069
_cell_angle_alpha    91.322
_cell_angle_beta     113.286
_cell_angle_gamma    116.614

_space_group_name_H-M_alt    "P 1"
_space_group_IT_number       1

loop_
  _space_group_symop_operation_xyz
  'x, y, z'

loop_
  _atom_site_type_symbol
  _atom_site_label
  _atom_site_symmetry_multiplicity
  _atom_site_fract_x
  _atom_site_fract_y
  _atom_site_fract_z
  _atom_site_occupancy
  Cs  Cs1       1.0  0.73400  0.31900  0.14800  1.0000
  Cs  Cs2       1.0  0.12500  0.96200  0.28800  1.0000
  Cs  Cs3       1.0  0.87500  0.03790  0.71200  1.0000
  Cs  Cs4       1.0  0.26600  0.68100  0.85200  1.0000
  Ge  Ge1       1.0  0.45300  0.61000  0.29600  1.0000
  Ge  Ge2       1.0  0.54700  0.39000  0.70400  1.0000
  S   S1        1.0  0.23300  0.35800  0.10900  1.0000
  S   S2        1.0  0.57700  0.89000  0.26500  1.0000
  S   S3        1.0  0.30500  0.62600  0.46800  1.0000
  S   S4        1.0  0.79000  0.62600  0.46800  1.0000
  S   S5        1.0  0.21000  0.37400  0.53200  1.0000
  S   S6        1.0  0.69500  0.37400  0.53200  1.0000
  S   S7        1.0  0.42300  0.11000  0.73500  1.0000
  S   S8        1.0  0.76700  0.64200  0.89100  1.0000
