data_image0
_chemical_formula_structural       Br2C4N4Ni2Rb2
_chemical_formula_sum              "Br2 C4 N4 Ni2 Rb2"
_cell_length_a       7.06644
_cell_length_b       7.06644
_cell_length_c       7.5862
_cell_angle_alpha    117.758
_cell_angle_beta     117.758
_cell_angle_gamma    90

_space_group_name_H-M_alt    "P 1"
_space_group_IT_number       1

loop_
  _space_group_symop_operation_xyz
  'x, y, z'

loop_
  _atom_site_type_symbol
  _atom_site_label
  _atom_site_symmetry_multiplicity
  _atom_site_fract_x
  _atom_site_fract_y
  _atom_site_fract_z
  _atom_site_occupancy
  Br  Br1       1.0  0.72900  0.72900  0.45800  1.0000
  Br  Br2       1.0  0.27100  0.27100  0.54200  1.0000
  C   C1        1.0  0.18300  0.18300  0.00000  1.0000
  C   C2        1.0  0.81700  0.18300  0.00000  1.0000
  C   C3        1.0  0.18300  0.81700  0.00000  1.0000
  C   C4        1.0  0.81700  0.81700  0.00000  1.0000
  N   N1        1.0  0.30100  0.30100  0.00000  1.0000
  N   N2        1.0  0.69900  0.30100  0.00000  1.0000
  N   N3        1.0  0.30100  0.69900  0.00000  1.0000
  N   N4        1.0  0.69900  0.69900  0.00000  1.0000
  Ni  Ni1       1.0  0.00000  0.00000  0.00000  1.0000
  Ni  Ni2       1.0  0.50000  0.50000  0.00000  1.0000
  Rb  Rb1       1.0  0.75000  0.25000  0.50000  1.0000
  Rb  Rb2       1.0  0.25000  0.75000  0.50000  1.0000
