data_image0
_chemical_formula_structural       Ho6O6Sb2
_chemical_formula_sum              "Ho6 O6 Sb2"
_cell_length_a       3.82468
_cell_length_b       6.75659
_cell_length_c       10.4564
_cell_angle_alpha    92.2276
_cell_angle_beta     100.538
_cell_angle_gamma    106.441

_space_group_name_H-M_alt    "P 1"
_space_group_IT_number       1

loop_
  _space_group_symop_operation_xyz
  'x, y, z'

loop_
  _atom_site_type_symbol
  _atom_site_label
  _atom_site_symmetry_multiplicity
  _atom_site_fract_x
  _atom_site_fract_y
  _atom_site_fract_z
  _atom_site_occupancy
  Ho  Ho1       1.0  0.22700  0.35500  0.09910  1.0000
  Ho  Ho2       1.0  0.55000  0.89300  0.20700  1.0000
  Ho  Ho3       1.0  0.32300  0.20300  0.44300  1.0000
  Ho  Ho4       1.0  0.67700  0.79700  0.55700  1.0000
  Ho  Ho5       1.0  0.45000  0.10700  0.79300  1.0000
  Ho  Ho6       1.0  0.77300  0.64500  0.90100  1.0000
  O   O1        1.0  0.35100  0.68800  0.01400  1.0000
  O   O2        1.0  0.12800  0.06450  0.19100  1.0000
  O   O3        1.0  0.72000  0.03020  0.40900  1.0000
  O   O4        1.0  0.28000  0.97000  0.59100  1.0000
  O   O5        1.0  0.87200  0.93600  0.80900  1.0000
  O   O6        1.0  0.64900  0.31200  0.98600  1.0000
  Sb  Sb1       1.0  0.93800  0.55500  0.32100  1.0000
  Sb  Sb2       1.0  0.06190  0.44500  0.67900  1.0000
