data_image0
_chemical_formula_structural       Pt7Sb4Sm3
_chemical_formula_sum              "Pt7 Sb4 Sm3"
_cell_length_a       4.30141
_cell_length_b       8.55495
_cell_length_c       8.59331
_cell_angle_alpha    97.4073
_cell_angle_beta     104.494
_cell_angle_gamma    104.56

_space_group_name_H-M_alt    "P 1"
_space_group_IT_number       1

loop_
  _space_group_symop_operation_xyz
  'x, y, z'

loop_
  _atom_site_type_symbol
  _atom_site_label
  _atom_site_symmetry_multiplicity
  _atom_site_fract_x
  _atom_site_fract_y
  _atom_site_fract_z
  _atom_site_occupancy
  Pt  Pt1       1.0  0.77800  0.40200  0.15500  1.0000
  Pt  Pt2       1.0  0.10100  0.93200  0.27000  1.0000
  Pt  Pt3       1.0  0.31000  0.29400  0.32600  1.0000
  Pt  Pt4       1.0  0.00000  0.50000  0.50000  1.0000
  Pt  Pt5       1.0  0.69000  0.70600  0.67400  1.0000
  Pt  Pt6       1.0  0.89900  0.06800  0.73000  1.0000
  Pt  Pt7       1.0  0.22200  0.59800  0.84500  1.0000
  Sb  Sb1       1.0  0.85400  0.68300  0.02460  1.0000
  Sb  Sb2       1.0  0.76900  0.12900  0.41000  1.0000
  Sb  Sb3       1.0  0.23100  0.87100  0.59000  1.0000
  Sb  Sb4       1.0  0.14600  0.31700  0.97500  1.0000
  Sm  Sm1       1.0  0.50000  0.00000  0.00000  1.0000
  Sm  Sm2       1.0  0.48700  0.66000  0.31400  1.0000
  Sm  Sm3       1.0  0.51300  0.34000  0.68600  1.0000
