data_image0
_chemical_formula_structural       I6La6Ru2
_chemical_formula_sum              "I6 La6 Ru2"
_cell_length_a       9.52062
_cell_length_b       4.3771
_cell_length_c       12.5757
_cell_angle_alpha    90
_cell_angle_beta     93.4893
_cell_angle_gamma    90

_space_group_name_H-M_alt    "P 1"
_space_group_IT_number       1

loop_
  _space_group_symop_operation_xyz
  'x, y, z'

loop_
  _atom_site_type_symbol
  _atom_site_label
  _atom_site_symmetry_multiplicity
  _atom_site_fract_x
  _atom_site_fract_y
  _atom_site_fract_z
  _atom_site_occupancy
  I   I1        1.0  0.60800  0.25000  0.13600  1.0000
  I   I2        1.0  0.86600  0.75000  0.38100  1.0000
  I   I3        1.0  0.37200  0.75000  0.38100  1.0000
  I   I4        1.0  0.62800  0.25000  0.61900  1.0000
  I   I5        1.0  0.13400  0.25000  0.61900  1.0000
  I   I6        1.0  0.39200  0.75000  0.86400  1.0000
  La  La1       1.0  0.90500  0.75000  0.10500  1.0000
  La  La2       1.0  0.31600  0.75000  0.12100  1.0000
  La  La3       1.0  0.11800  0.25000  0.33400  1.0000
  La  La4       1.0  0.88200  0.75000  0.66600  1.0000
  La  La5       1.0  0.68400  0.25000  0.87900  1.0000
  La  La6       1.0  0.09490  0.25000  0.89500  1.0000
  Ru  Ru1       1.0  0.11500  0.25000  0.12900  1.0000
  Ru  Ru2       1.0  0.88500  0.75000  0.87100  1.0000
