data_image0
_chemical_formula_structural       C4K3N4O2Tc
_chemical_formula_sum              "C4 K3 N4 O2 Tc1"
_cell_length_a       6.21301
_cell_length_b       6.88482
_cell_length_c       7.38255
_cell_angle_alpha    108.498
_cell_angle_beta     109.885
_cell_angle_gamma    104.007

_space_group_name_H-M_alt    "P 1"
_space_group_IT_number       1

loop_
  _space_group_symop_operation_xyz
  'x, y, z'

loop_
  _atom_site_type_symbol
  _atom_site_label
  _atom_site_symmetry_multiplicity
  _atom_site_fract_x
  _atom_site_fract_y
  _atom_site_fract_z
  _atom_site_occupancy
  C   C1        1.0  0.40100  0.60100  0.25000  1.0000
  C   C2        1.0  0.17200  0.20400  0.32500  1.0000
  C   C3        1.0  0.82800  0.79600  0.67500  1.0000
  C   C4        1.0  0.59900  0.39900  0.75000  1.0000
  K   K1        1.0  0.50000  0.00000  0.00000  1.0000
  K   K2        1.0  0.95700  0.66600  0.30000  1.0000
  K   K3        1.0  0.04330  0.33400  0.70000  1.0000
  N   N1        1.0  0.34600  0.66300  0.11700  1.0000
  N   N2        1.0  0.98600  0.04670  0.24800  1.0000
  N   N3        1.0  0.01390  0.95300  0.75200  1.0000
  N   N4        1.0  0.65400  0.33700  0.88300  1.0000
  O   O1        1.0  0.66500  0.36100  0.38800  1.0000
  O   O2        1.0  0.33500  0.63900  0.61200  1.0000
  Tc  Tc1       1.0  0.50000  0.50000  0.50000  1.0000
