data_image0
_chemical_formula_structural       Na4Sn8Sr2
_chemical_formula_sum              "Na4 Sn8 Sr2"
_cell_length_a       6.60373
_cell_length_b       6.72929
_cell_length_c       10.1306
_cell_angle_alpha    109.398
_cell_angle_beta     93.8657
_cell_angle_gamma    90

_space_group_name_H-M_alt    "P 1"
_space_group_IT_number       1

loop_
  _space_group_symop_operation_xyz
  'x, y, z'

loop_
  _atom_site_type_symbol
  _atom_site_label
  _atom_site_symmetry_multiplicity
  _atom_site_fract_x
  _atom_site_fract_y
  _atom_site_fract_z
  _atom_site_occupancy
  Na  Na1       1.0  0.70000  0.80000  0.40400  1.0000
  Na  Na2       1.0  0.20000  0.60300  0.40400  1.0000
  Na  Na3       1.0  0.80000  0.39700  0.59600  1.0000
  Na  Na4       1.0  0.30000  0.20000  0.59600  1.0000
  Sn  Sn1       1.0  0.77300  0.37600  0.15600  1.0000
  Sn  Sn2       1.0  0.27300  0.77900  0.15600  1.0000
  Sn  Sn3       1.0  0.51300  0.17500  0.30700  1.0000
  Sn  Sn4       1.0  0.01350  0.13200  0.30700  1.0000
  Sn  Sn5       1.0  0.98700  0.86800  0.69300  1.0000
  Sn  Sn6       1.0  0.48700  0.82500  0.69300  1.0000
  Sn  Sn7       1.0  0.72700  0.22100  0.84400  1.0000
  Sn  Sn8       1.0  0.22700  0.62400  0.84400  1.0000
  Sr  Sr1       1.0  0.75000  0.77900  1.00000  1.0000
  Sr  Sr2       1.0  0.25000  0.22100  0.00000  1.0000
