data_image0
_chemical_formula_structural       Hg2O8Se2
_chemical_formula_sum              "Hg2 O8 Se2"
_cell_length_a       6.76996
_cell_length_b       4.9128
_cell_length_c       4.99555
_cell_angle_alpha    90
_cell_angle_beta     90
_cell_angle_gamma    90

_space_group_name_H-M_alt    "P 1"
_space_group_IT_number       1

loop_
  _space_group_symop_operation_xyz
  'x, y, z'

loop_
  _atom_site_type_symbol
  _atom_site_label
  _atom_site_symmetry_multiplicity
  _atom_site_fract_x
  _atom_site_fract_y
  _atom_site_fract_z
  _atom_site_occupancy
  Hg  Hg1       1.0  0.00000  0.85100  0.00000  1.0000
  Hg  Hg2       1.0  0.50000  0.14900  0.50000  1.0000
  O   O1        1.0  0.50000  0.69600  0.31200  1.0000
  O   O2        1.0  0.19300  0.19000  0.32700  1.0000
  O   O3        1.0  0.80700  0.19000  0.32700  1.0000
  O   O4        1.0  0.00000  0.67700  0.42600  1.0000
  O   O5        1.0  0.00000  0.30400  0.81200  1.0000
  O   O6        1.0  0.30700  0.81000  0.82700  1.0000
  O   O7        1.0  0.69300  0.81000  0.82700  1.0000
  O   O8        1.0  0.50000  0.32300  0.92600  1.0000
  Se  Se1       1.0  0.00000  0.34100  0.48100  1.0000
  Se  Se2       1.0  0.50000  0.65900  0.98100  1.0000
