data_image0
_chemical_formula_structural       C7Lu5Re2
_chemical_formula_sum              "C7 Lu5 Re2"
_cell_length_a       3.33419
_cell_length_b       7.93559
_cell_length_c       8.13371
_cell_angle_alpha    60.8025
_cell_angle_beta     90
_cell_angle_gamma    90

_space_group_name_H-M_alt    "P 1"
_space_group_IT_number       1

loop_
  _space_group_symop_operation_xyz
  'x, y, z'

loop_
  _atom_site_type_symbol
  _atom_site_label
  _atom_site_symmetry_multiplicity
  _atom_site_fract_x
  _atom_site_fract_y
  _atom_site_fract_z
  _atom_site_occupancy
  C   C1        1.0  0.00000  0.00000  0.00000  1.0000
  C   C2        1.0  0.00000  0.17100  0.00000  1.0000
  C   C3        1.0  0.00000  0.82900  0.00000  1.0000
  C   C4        1.0  0.50000  0.37700  0.24600  1.0000
  C   C5        1.0  0.00000  0.00000  0.50000  1.0000
  C   C6        1.0  0.00000  0.50000  0.50000  1.0000
  C   C7        1.0  0.50000  0.62300  0.75400  1.0000
  Lu  Lu1       1.0  0.00000  0.50000  0.00000  1.0000
  Lu  Lu2       1.0  0.50000  0.07790  0.25900  1.0000
  Lu  Lu3       1.0  0.50000  0.66300  0.25900  1.0000
  Lu  Lu4       1.0  0.50000  0.33700  0.74100  1.0000
  Lu  Lu5       1.0  0.50000  0.92200  0.74100  1.0000
  Re  Re1       1.0  0.00000  0.28400  0.43200  1.0000
  Re  Re2       1.0  0.00000  0.71600  0.56800  1.0000
