data_image0
_chemical_formula_structural       Ag2BaMnO8V2
_chemical_formula_sum              "Ag2 Ba1 Mn1 O8 V2"
_cell_length_a       5.56085
_cell_length_b       5.56088
_cell_length_c       7.2415
_cell_angle_alpha    90.0007
_cell_angle_beta     89.9996
_cell_angle_gamma    120.002

_space_group_name_H-M_alt    "P 1"
_space_group_IT_number       1

loop_
  _space_group_symop_operation_xyz
  'x, y, z'

loop_
  _atom_site_type_symbol
  _atom_site_label
  _atom_site_symmetry_multiplicity
  _atom_site_fract_x
  _atom_site_fract_y
  _atom_site_fract_z
  _atom_site_occupancy
  Ag  Ag1       1.0  0.33300  0.66700  0.32300  1.0000
  Ag  Ag2       1.0  0.66700  0.33300  0.67700  1.0000
  Ba  Ba1       1.0  0.00000  0.00000  0.00000  1.0000
  Mn  Mn1       1.0  0.00000  0.00000  0.50000  1.0000
  O   O1        1.0  0.66700  0.33300  0.00903  1.0000
  O   O2        1.0  0.91700  0.25000  0.31700  1.0000
  O   O3        1.0  0.75000  0.66800  0.31700  1.0000
  O   O4        1.0  0.33200  0.08280  0.31700  1.0000
  O   O5        1.0  0.66800  0.91700  0.68300  1.0000
  O   O6        1.0  0.25000  0.33200  0.68300  1.0000
  O   O7        1.0  0.08280  0.75000  0.68300  1.0000
  O   O8        1.0  0.33300  0.66700  0.99100  1.0000
  V   V1        1.0  0.66700  0.33300  0.24400  1.0000
  V   V2        1.0  0.33300  0.66700  0.75600  1.0000
