data_image0
_chemical_formula_structural       O5Ta2
_chemical_formula_sum              "O5 Ta2"
_cell_length_a       3.68389
_cell_length_b       3.68389
_cell_length_c       5.76062
_cell_angle_alpha    107.741
_cell_angle_beta     72.2587
_cell_angle_gamma    103.132

_space_group_name_H-M_alt    "P 1"
_space_group_IT_number       1

loop_
  _space_group_symop_operation_xyz
  'x, y, z'

loop_
  _atom_site_type_symbol
  _atom_site_label
  _atom_site_symmetry_multiplicity
  _atom_site_fract_x
  _atom_site_fract_y
  _atom_site_fract_z
  _atom_site_occupancy
  O   O1        1.0  0.02160  0.69600  0.06660  1.0000
  O   O2        1.0  0.26600  0.40400  0.33700  1.0000
  O   O3        1.0  0.78300  0.78300  0.50000  1.0000
  O   O4        1.0  0.40400  0.26600  0.66300  1.0000
  O   O5        1.0  0.69600  0.02160  0.93300  1.0000
  Ta  Ta1       1.0  0.76300  0.17500  0.27800  1.0000
  Ta  Ta2       1.0  0.17500  0.76300  0.72200  1.0000
