data_image0
_chemical_formula_structural       Ce3Zn11
_chemical_formula_sum              "Ce3 Zn11"
_cell_length_a       4.51133
_cell_length_b       8.39107
_cell_length_c       8.39107
_cell_angle_alpha    106.924
_cell_angle_beta     105.594
_cell_angle_gamma    105.594

_space_group_name_H-M_alt    "P 1"
_space_group_IT_number       1

loop_
  _space_group_symop_operation_xyz
  'x, y, z'

loop_
  _atom_site_type_symbol
  _atom_site_label
  _atom_site_symmetry_multiplicity
  _atom_site_fract_x
  _atom_site_fract_y
  _atom_site_fract_z
  _atom_site_occupancy
  Ce  Ce1       1.0  0.00000  0.00000  0.00000  1.0000
  Ce  Ce2       1.0  0.00000  0.70400  0.29600  1.0000
  Ce  Ce3       1.0  0.00000  0.29600  0.70400  1.0000
  Zn  Zn1       1.0  0.35800  0.70200  0.01430  1.0000
  Zn  Zn2       1.0  0.28200  0.42200  0.14300  1.0000
  Zn  Zn3       1.0  0.64200  0.98600  0.29800  1.0000
  Zn  Zn4       1.0  0.81700  0.31700  0.31700  1.0000
  Zn  Zn5       1.0  0.28200  0.14300  0.42200  1.0000
  Zn  Zn6       1.0  0.50000  0.50000  0.50000  1.0000
  Zn  Zn7       1.0  0.71800  0.85700  0.57800  1.0000
  Zn  Zn8       1.0  0.18300  0.68300  0.68300  1.0000
  Zn  Zn9       1.0  0.35800  0.01430  0.70200  1.0000
  Zn  Zn10      1.0  0.71800  0.57800  0.85700  1.0000
  Zn  Zn11      1.0  0.64200  0.29800  0.98600  1.0000
