data_image0
_chemical_formula_structural       C4HgMnN4Se4
_chemical_formula_sum              "C4 Hg1 Mn1 N4 Se4"
_cell_length_a       4.57341
_cell_length_b       8.40612
_cell_length_c       8.40612
_cell_angle_alpha    94.2437
_cell_angle_beta     74.215
_cell_angle_gamma    105.785

_space_group_name_H-M_alt    "P 1"
_space_group_IT_number       1

loop_
  _space_group_symop_operation_xyz
  'x, y, z'

loop_
  _atom_site_type_symbol
  _atom_site_label
  _atom_site_symmetry_multiplicity
  _atom_site_fract_x
  _atom_site_fract_y
  _atom_site_fract_z
  _atom_site_occupancy
  C   C1        1.0  0.60300  0.64300  0.19700  1.0000
  C   C2        1.0  0.04040  0.19700  0.35700  1.0000
  C   C3        1.0  0.20000  0.80300  0.64300  1.0000
  C   C4        1.0  0.15700  0.35700  0.80300  1.0000
  Hg  Hg1       1.0  0.00000  0.00000  0.00000  1.0000
  Mn  Mn1       1.0  0.75000  0.50000  0.50000  1.0000
  N   N1        1.0  0.64700  0.58900  0.31200  1.0000
  N   N2        1.0  0.94200  0.31200  0.41100  1.0000
  N   N3        1.0  0.04090  0.68800  0.58900  1.0000
  N   N4        1.0  0.37000  0.41100  0.68800  1.0000
  Se  Se1       1.0  0.52600  0.72100  0.02300  1.0000
  Se  Se2       1.0  0.19600  0.02300  0.27900  1.0000
  Se  Se3       1.0  0.45100  0.97700  0.72100  1.0000
  Se  Se4       1.0  0.82700  0.27900  0.97700  1.0000
