data_image0
_chemical_formula_structural       Cl2Mo2O8Y2
_chemical_formula_sum              "Cl2 Mo2 O8 Y2"
_cell_length_a       6.24956
_cell_length_b       6.24956
_cell_length_c       6.81921
_cell_angle_alpha    104.044
_cell_angle_beta     104.044
_cell_angle_gamma    70.8531

_space_group_name_H-M_alt    "P 1"
_space_group_IT_number       1

loop_
  _space_group_symop_operation_xyz
  'x, y, z'

loop_
  _atom_site_type_symbol
  _atom_site_label
  _atom_site_symmetry_multiplicity
  _atom_site_fract_x
  _atom_site_fract_y
  _atom_site_fract_z
  _atom_site_occupancy
  Cl  Cl1       1.0  0.99100  0.99100  0.24000  1.0000
  Cl  Cl2       1.0  0.00943  0.00943  0.76000  1.0000
  Mo  Mo1       1.0  0.63700  0.63700  0.26900  1.0000
  Mo  Mo2       1.0  0.36300  0.36300  0.73100  1.0000
  O   O1        1.0  0.89100  0.50900  0.15300  1.0000
  O   O2        1.0  0.50900  0.89100  0.15300  1.0000
  O   O3        1.0  0.45600  0.45600  0.20200  1.0000
  O   O4        1.0  0.29300  0.29300  0.46200  1.0000
  O   O5        1.0  0.70700  0.70700  0.53800  1.0000
  O   O6        1.0  0.54400  0.54400  0.79800  1.0000
  O   O7        1.0  0.49100  0.10900  0.84700  1.0000
  O   O8        1.0  0.10900  0.49100  0.84700  1.0000
  Y   Y1        1.0  0.21900  0.21900  0.10700  1.0000
  Y   Y2        1.0  0.78100  0.78100  0.89300  1.0000
