data_image0
_chemical_formula_structural       Au2Na4O4Rb2
_chemical_formula_sum              "Au2 Na4 O4 Rb2"
_cell_length_a       9.96627
_cell_length_b       5.59543
_cell_length_c       4.06539
_cell_angle_alpha    90
_cell_angle_beta     90
_cell_angle_gamma    90

_space_group_name_H-M_alt    "P 1"
_space_group_IT_number       1

loop_
  _space_group_symop_operation_xyz
  'x, y, z'

loop_
  _atom_site_type_symbol
  _atom_site_label
  _atom_site_symmetry_multiplicity
  _atom_site_fract_x
  _atom_site_fract_y
  _atom_site_fract_z
  _atom_site_occupancy
  Au  Au1       1.0  0.00000  0.00000  0.00000  1.0000
  Au  Au2       1.0  0.50000  0.50000  0.50000  1.0000
  Na  Na1       1.0  0.73000  0.42200  0.00000  1.0000
  Na  Na2       1.0  0.27000  0.57800  0.00000  1.0000
  Na  Na3       1.0  0.23000  0.07800  0.50000  1.0000
  Na  Na4       1.0  0.77000  0.92200  0.50000  1.0000
  O   O1        1.0  0.15800  0.22900  0.00000  1.0000
  O   O2        1.0  0.84200  0.77100  0.00000  1.0000
  O   O3        1.0  0.65800  0.27100  0.50000  1.0000
  O   O4        1.0  0.34200  0.72900  0.50000  1.0000
  Rb  Rb1       1.0  0.50000  0.00000  0.00000  1.0000
  Rb  Rb2       1.0  0.00000  0.50000  0.50000  1.0000
