data_image0
_chemical_formula_structural       Pr6Pt8
_chemical_formula_sum              "Pr6 Pt8"
_cell_length_a       5.84634
_cell_length_b       8.158
_cell_length_c       8.158
_cell_angle_alpha    114.482
_cell_angle_beta     103.82
_cell_angle_gamma    103.82

_space_group_name_H-M_alt    "P 1"
_space_group_IT_number       1

loop_
  _space_group_symop_operation_xyz
  'x, y, z'

loop_
  _atom_site_type_symbol
  _atom_site_label
  _atom_site_symmetry_multiplicity
  _atom_site_fract_x
  _atom_site_fract_y
  _atom_site_fract_z
  _atom_site_occupancy
  Pr  Pr1       1.0  0.40600  0.37600  0.12400  1.0000
  Pr  Pr2       1.0  0.28200  0.87600  0.25200  1.0000
  Pr  Pr3       1.0  0.97000  0.25200  0.37600  1.0000
  Pr  Pr4       1.0  0.02950  0.74800  0.62400  1.0000
  Pr  Pr5       1.0  0.71800  0.12400  0.74800  1.0000
  Pr  Pr6       1.0  0.59400  0.62400  0.87600  1.0000
  Pt  Pt1       1.0  0.00000  0.00000  0.00000  1.0000
  Pt  Pt2       1.0  0.50000  0.00000  0.00000  1.0000
  Pt  Pt3       1.0  0.94200  0.49600  0.16400  1.0000
  Pt  Pt4       1.0  0.77800  0.83600  0.33200  1.0000
  Pt  Pt5       1.0  0.55400  0.33200  0.49600  1.0000
  Pt  Pt6       1.0  0.44600  0.66800  0.50400  1.0000
  Pt  Pt7       1.0  0.22200  0.16400  0.66800  1.0000
  Pt  Pt8       1.0  0.05840  0.50400  0.83600  1.0000
