data_image0
_chemical_formula_structural       Cd2Cu2O8V2
_chemical_formula_sum              "Cd2 Cu2 O8 V2"
_cell_length_a       5.39619
_cell_length_b       5.39619
_cell_length_c       6.55018
_cell_angle_alpha    90
_cell_angle_beta     90
_cell_angle_gamma    112.97

_space_group_name_H-M_alt    "P 1"
_space_group_IT_number       1

loop_
  _space_group_symop_operation_xyz
  'x, y, z'

loop_
  _atom_site_type_symbol
  _atom_site_label
  _atom_site_symmetry_multiplicity
  _atom_site_fract_x
  _atom_site_fract_y
  _atom_site_fract_z
  _atom_site_occupancy
  Cd  Cd1       1.0  0.00000  0.00000  0.00000  1.0000
  Cd  Cd2       1.0  0.00000  0.00000  0.50000  1.0000
  Cu  Cu1       1.0  0.31600  0.68400  0.25000  1.0000
  Cu  Cu2       1.0  0.68400  0.31600  0.75000  1.0000
  O   O1        1.0  0.74400  0.25600  0.03050  1.0000
  O   O2        1.0  0.28200  0.24800  0.25000  1.0000
  O   O3        1.0  0.75200  0.71800  0.25000  1.0000
  O   O4        1.0  0.74400  0.25600  0.47000  1.0000
  O   O5        1.0  0.25600  0.74400  0.53000  1.0000
  O   O6        1.0  0.24800  0.28200  0.75000  1.0000
  O   O7        1.0  0.71800  0.75200  0.75000  1.0000
  O   O8        1.0  0.25600  0.74400  0.97000  1.0000
  V   V1        1.0  0.63700  0.36300  0.25000  1.0000
  V   V2        1.0  0.36300  0.63700  0.75000  1.0000
