data_image0
_chemical_formula_structural       B4Ba2S8
_chemical_formula_sum              "B4 Ba2 S8"
_cell_length_a       6.06213
_cell_length_b       6.78441
_cell_length_c       8.66579
_cell_angle_alpha    66.9554
_cell_angle_beta     97.6966
_cell_angle_gamma    110.007

_space_group_name_H-M_alt    "P 1"
_space_group_IT_number       1

loop_
  _space_group_symop_operation_xyz
  'x, y, z'

loop_
  _atom_site_type_symbol
  _atom_site_label
  _atom_site_symmetry_multiplicity
  _atom_site_fract_x
  _atom_site_fract_y
  _atom_site_fract_z
  _atom_site_occupancy
  B   B1        1.0  0.56100  0.45800  0.03780  1.0000
  B   B2        1.0  0.37300  0.59900  0.26500  1.0000
  B   B3        1.0  0.87300  0.86400  0.73500  1.0000
  B   B4        1.0  0.06110  0.49500  0.96200  1.0000
  Ba  Ba1       1.0  0.95700  0.89400  0.30700  1.0000
  Ba  Ba2       1.0  0.45700  0.20000  0.69300  1.0000
  S   S1        1.0  0.74700  0.28900  0.02220  1.0000
  S   S2        1.0  0.16600  0.67800  0.10000  1.0000
  S   S3        1.0  0.56100  0.43800  0.26800  1.0000
  S   S4        1.0  0.41700  0.70500  0.43100  1.0000
  S   S5        1.0  0.91700  0.13600  0.56900  1.0000
  S   S6        1.0  0.06110  0.70600  0.73200  1.0000
  S   S7        1.0  0.66600  0.77800  0.90000  1.0000
  S   S8        1.0  0.24700  0.31100  0.97800  1.0000
