data_image0
_chemical_formula_structural       Ho2Ni8P4
_chemical_formula_sum              "Ho2 Ni8 P4"
_cell_length_a       7.0661
_cell_length_b       7.0661
_cell_length_c       3.60167
_cell_angle_alpha    90
_cell_angle_beta     90
_cell_angle_gamma    90

_space_group_name_H-M_alt    "P 1"
_space_group_IT_number       1

loop_
  _space_group_symop_operation_xyz
  'x, y, z'

loop_
  _atom_site_type_symbol
  _atom_site_label
  _atom_site_symmetry_multiplicity
  _atom_site_fract_x
  _atom_site_fract_y
  _atom_site_fract_z
  _atom_site_occupancy
  Ho  Ho1       1.0  0.50000  0.50000  0.00000  1.0000
  Ho  Ho2       1.0  0.00000  0.00000  0.50000  1.0000
  Ni  Ni1       1.0  0.33800  0.08630  0.00000  1.0000
  Ni  Ni2       1.0  0.08630  0.33800  0.00000  1.0000
  Ni  Ni3       1.0  0.91400  0.66200  0.00000  1.0000
  Ni  Ni4       1.0  0.66200  0.91400  0.00000  1.0000
  Ni  Ni5       1.0  0.58600  0.16200  0.50000  1.0000
  Ni  Ni6       1.0  0.83800  0.41400  0.50000  1.0000
  Ni  Ni7       1.0  0.16200  0.58600  0.50000  1.0000
  Ni  Ni8       1.0  0.41400  0.83800  0.50000  1.0000
  P   P1        1.0  0.78000  0.22000  0.00000  1.0000
  P   P2        1.0  0.22000  0.78000  0.00000  1.0000
  P   P3        1.0  0.28000  0.28000  0.50000  1.0000
  P   P4        1.0  0.72000  0.72000  0.50000  1.0000
