data_image0
_chemical_formula_structural       C2Cl2La4N6
_chemical_formula_sum              "C2 Cl2 La4 N6"
_cell_length_a       3.93598
_cell_length_b       8.22671
_cell_length_c       8.22671
_cell_angle_alpha    71.3641
_cell_angle_beta     90
_cell_angle_gamma    90

_space_group_name_H-M_alt    "P 1"
_space_group_IT_number       1

loop_
  _space_group_symop_operation_xyz
  'x, y, z'

loop_
  _atom_site_type_symbol
  _atom_site_label
  _atom_site_symmetry_multiplicity
  _atom_site_fract_x
  _atom_site_fract_y
  _atom_site_fract_z
  _atom_site_occupancy
  C   C1        1.0  0.50000  0.50000  0.00000  1.0000
  C   C2        1.0  0.50000  1.00000  0.50000  1.0000
  Cl  Cl1       1.0  0.00000  0.12200  0.12200  1.0000
  Cl  Cl2       1.0  0.00000  0.87800  0.87800  1.0000
  La  La1       1.0  0.50000  0.78800  0.21200  1.0000
  La  La2       1.0  0.00000  0.36200  0.36200  1.0000
  La  La3       1.0  0.00000  0.63800  0.63800  1.0000
  La  La4       1.0  0.50000  0.21200  0.78800  1.0000
  N   N1        1.0  0.50000  0.49400  0.15200  1.0000
  N   N2        1.0  0.00000  0.65600  0.34400  1.0000
  N   N3        1.0  0.50000  0.15200  0.49400  1.0000
  N   N4        1.0  0.50000  0.84800  0.50600  1.0000
  N   N5        1.0  0.00000  0.34400  0.65600  1.0000
  N   N6        1.0  0.50000  0.50600  0.84800  1.0000
