data_image0
_chemical_formula_structural       As4Ho2Ni8
_chemical_formula_sum              "As4 Ho2 Ni8"
_cell_length_a       7.22696
_cell_length_b       7.22696
_cell_length_c       3.76932
_cell_angle_alpha    90
_cell_angle_beta     90
_cell_angle_gamma    90

_space_group_name_H-M_alt    "P 1"
_space_group_IT_number       1

loop_
  _space_group_symop_operation_xyz
  'x, y, z'

loop_
  _atom_site_type_symbol
  _atom_site_label
  _atom_site_symmetry_multiplicity
  _atom_site_fract_x
  _atom_site_fract_y
  _atom_site_fract_z
  _atom_site_occupancy
  As  As1       1.0  0.78300  0.21700  0.00000  1.0000
  As  As2       1.0  0.21700  0.78300  0.00000  1.0000
  As  As3       1.0  0.28300  0.28300  0.50000  1.0000
  As  As4       1.0  0.71700  0.71700  0.50000  1.0000
  Ho  Ho1       1.0  0.50000  0.50000  0.00000  1.0000
  Ho  Ho2       1.0  0.00000  0.00000  0.50000  1.0000
  Ni  Ni1       1.0  0.34600  0.08960  0.00000  1.0000
  Ni  Ni2       1.0  0.08960  0.34600  0.00000  1.0000
  Ni  Ni3       1.0  0.91000  0.65400  0.00000  1.0000
  Ni  Ni4       1.0  0.65400  0.91000  0.00000  1.0000
  Ni  Ni5       1.0  0.59000  0.15400  0.50000  1.0000
  Ni  Ni6       1.0  0.84600  0.41000  0.50000  1.0000
  Ni  Ni7       1.0  0.15400  0.59000  0.50000  1.0000
  Ni  Ni8       1.0  0.41000  0.84600  0.50000  1.0000
