data_image0
_chemical_formula_structural       Ag4O8Se2
_chemical_formula_sum              "Ag4 O8 Se2"
_cell_length_a       5.98602
_cell_length_b       5.98602
_cell_length_c       7.1698
_cell_angle_alpha    102.233
_cell_angle_beta     102.233
_cell_angle_gamma    119.5

_space_group_name_H-M_alt    "P 1"
_space_group_IT_number       1

loop_
  _space_group_symop_operation_xyz
  'x, y, z'

loop_
  _atom_site_type_symbol
  _atom_site_label
  _atom_site_symmetry_multiplicity
  _atom_site_fract_x
  _atom_site_fract_y
  _atom_site_fract_z
  _atom_site_occupancy
  Ag  Ag1       1.0  0.80300  0.19700  0.25000  1.0000
  Ag  Ag2       1.0  0.44700  0.55300  0.25000  1.0000
  Ag  Ag3       1.0  0.55300  0.44700  0.75000  1.0000
  Ag  Ag4       1.0  0.19700  0.80300  0.75000  1.0000
  O   O1        1.0  0.79600  0.74000  0.10200  1.0000
  O   O2        1.0  0.30500  0.86100  0.10200  1.0000
  O   O3        1.0  0.26000  0.20400  0.39800  1.0000
  O   O4        1.0  0.13900  0.69500  0.39800  1.0000
  O   O5        1.0  0.86100  0.30500  0.60200  1.0000
  O   O6        1.0  0.74000  0.79600  0.60200  1.0000
  O   O7        1.0  0.69500  0.13900  0.89800  1.0000
  O   O8        1.0  0.20400  0.26000  0.89800  1.0000
  Se  Se1       1.0  0.12500  0.87500  0.25000  1.0000
  Se  Se2       1.0  0.87500  0.12500  0.75000  1.0000
