data_image0
_chemical_formula_structural       Eu4Ge2Se8
_chemical_formula_sum              "Eu4 Ge2 Se8"
_cell_length_a       6.93809
_cell_length_b       6.965
_cell_length_c       8.31282
_cell_angle_alpha    90
_cell_angle_beta     107.689
_cell_angle_gamma    90

_space_group_name_H-M_alt    "P 1"
_space_group_IT_number       1

loop_
  _space_group_symop_operation_xyz
  'x, y, z'

loop_
  _atom_site_type_symbol
  _atom_site_label
  _atom_site_symmetry_multiplicity
  _atom_site_fract_x
  _atom_site_fract_y
  _atom_site_fract_z
  _atom_site_occupancy
  Eu  Eu1       1.0  0.73000  0.25000  0.05840  1.0000
  Eu  Eu2       1.0  0.25800  0.75000  0.44000  1.0000
  Eu  Eu3       1.0  0.74200  0.25000  0.56000  1.0000
  Eu  Eu4       1.0  0.27000  0.75000  0.94200  1.0000
  Ge  Ge1       1.0  0.26700  0.25000  0.19500  1.0000
  Ge  Ge2       1.0  0.73300  0.75000  0.80500  1.0000
  Se  Se1       1.0  0.91800  0.75000  0.09580  1.0000
  Se  Se2       1.0  0.50100  0.50800  0.25500  1.0000
  Se  Se3       1.0  0.50100  0.99200  0.25500  1.0000
  Se  Se4       1.0  0.07940  0.25000  0.38900  1.0000
  Se  Se5       1.0  0.92100  0.75000  0.61100  1.0000
  Se  Se6       1.0  0.49900  0.00846  0.74500  1.0000
  Se  Se7       1.0  0.49900  0.49200  0.74500  1.0000
  Se  Se8       1.0  0.08240  0.25000  0.90400  1.0000
