data_image0
_chemical_formula_structural       Ge2Se8Sr4
_chemical_formula_sum              "Ge2 Se8 Sr4"
_cell_length_a       6.53412
_cell_length_b       6.53412
_cell_length_c       10.4216
_cell_angle_alpha    90
_cell_angle_beta     90
_cell_angle_gamma    110.031

_space_group_name_H-M_alt    "P 1"
_space_group_IT_number       1

loop_
  _space_group_symop_operation_xyz
  'x, y, z'

loop_
  _atom_site_type_symbol
  _atom_site_label
  _atom_site_symmetry_multiplicity
  _atom_site_fract_x
  _atom_site_fract_y
  _atom_site_fract_z
  _atom_site_occupancy
  Ge  Ge1       1.0  0.68800  0.23800  0.25000  1.0000
  Ge  Ge2       1.0  0.23800  0.68800  0.75000  1.0000
  Se  Se1       1.0  0.86400  0.42500  0.06130  1.0000
  Se  Se2       1.0  0.30100  0.16100  0.25000  1.0000
  Se  Se3       1.0  0.73600  0.88800  0.25000  1.0000
  Se  Se4       1.0  0.86400  0.42500  0.43900  1.0000
  Se  Se5       1.0  0.42500  0.86400  0.56100  1.0000
  Se  Se6       1.0  0.16100  0.30100  0.75000  1.0000
  Se  Se7       1.0  0.88800  0.73600  0.75000  1.0000
  Se  Se8       1.0  0.42500  0.86400  0.93900  1.0000
  Sr  Sr1       1.0  0.00100  0.00100  0.00000  1.0000
  Sr  Sr2       1.0  0.25300  0.63500  0.25000  1.0000
  Sr  Sr3       1.0  0.00100  0.00100  0.50000  1.0000
  Sr  Sr4       1.0  0.63500  0.25300  0.75000  1.0000
