data_image0
_chemical_formula_structural       C4Cl2Cs2N4Ni2
_chemical_formula_sum              "C4 Cl2 Cs2 N4 Ni2"
_cell_length_a       7.09767
_cell_length_b       7.09767
_cell_length_c       7.44428
_cell_angle_alpha    118.471
_cell_angle_beta     118.471
_cell_angle_gamma    90

_space_group_name_H-M_alt    "P 1"
_space_group_IT_number       1

loop_
  _space_group_symop_operation_xyz
  'x, y, z'

loop_
  _atom_site_type_symbol
  _atom_site_label
  _atom_site_symmetry_multiplicity
  _atom_site_fract_x
  _atom_site_fract_y
  _atom_site_fract_z
  _atom_site_occupancy
  C   C1        1.0  0.18200  0.18200  0.00000  1.0000
  C   C2        1.0  0.81800  0.18200  0.00000  1.0000
  C   C3        1.0  0.18200  0.81800  0.00000  1.0000
  C   C4        1.0  0.81800  0.81800  0.00000  1.0000
  Cl  Cl1       1.0  0.72400  0.72400  0.44700  1.0000
  Cl  Cl2       1.0  0.27600  0.27600  0.55300  1.0000
  Cs  Cs1       1.0  0.75000  0.25000  0.50000  1.0000
  Cs  Cs2       1.0  0.25000  0.75000  0.50000  1.0000
  N   N1        1.0  0.29900  0.29900  0.00000  1.0000
  N   N2        1.0  0.70100  0.29900  0.00000  1.0000
  N   N3        1.0  0.29900  0.70100  0.00000  1.0000
  N   N4        1.0  0.70100  0.70100  0.00000  1.0000
  Ni  Ni1       1.0  0.00000  0.00000  0.00000  1.0000
  Ni  Ni2       1.0  0.50000  0.50000  0.00000  1.0000
