data_image0
_chemical_formula_structural       Eu2Ge2K2S8
_chemical_formula_sum              "Eu2 Ge2 K2 S8"
_cell_length_a       6.98872
_cell_length_b       5.80848
_cell_length_c       9.10253
_cell_angle_alpha    90
_cell_angle_beta     106.275
_cell_angle_gamma    90

_space_group_name_H-M_alt    "P 1"
_space_group_IT_number       1

loop_
  _space_group_symop_operation_xyz
  'x, y, z'

loop_
  _atom_site_type_symbol
  _atom_site_label
  _atom_site_symmetry_multiplicity
  _atom_site_fract_x
  _atom_site_fract_y
  _atom_site_fract_z
  _atom_site_occupancy
  Eu  Eu1       1.0  0.74800  0.49400  0.05630  1.0000
  Eu  Eu2       1.0  0.25200  0.99400  0.94400  1.0000
  Ge  Ge1       1.0  0.25800  0.49600  0.18200  1.0000
  Ge  Ge2       1.0  0.74200  0.99600  0.81800  1.0000
  K   K1        1.0  0.23600  0.99500  0.45100  1.0000
  K   K2        1.0  0.76400  0.49500  0.54900  1.0000
  S   S1        1.0  0.89500  0.99500  0.06470  1.0000
  S   S2        1.0  0.50600  0.76400  0.23100  1.0000
  S   S3        1.0  0.50600  0.22900  0.23200  1.0000
  S   S4        1.0  0.07410  0.49500  0.33800  1.0000
  S   S5        1.0  0.92600  0.99500  0.66200  1.0000
  S   S6        1.0  0.49400  0.72900  0.76800  1.0000
  S   S7        1.0  0.49400  0.26400  0.76900  1.0000
  S   S8        1.0  0.10500  0.49500  0.93500  1.0000
