data_image0
_chemical_formula_structural       Mg4Pr4Rh4
_chemical_formula_sum              "Mg4 Pr4 Rh4"
_cell_length_a       7.27175
_cell_length_b       4.19847
_cell_length_c       8.73587
_cell_angle_alpha    90
_cell_angle_beta     90
_cell_angle_gamma    90

_space_group_name_H-M_alt    "P 1"
_space_group_IT_number       1

loop_
  _space_group_symop_operation_xyz
  'x, y, z'

loop_
  _atom_site_type_symbol
  _atom_site_label
  _atom_site_symmetry_multiplicity
  _atom_site_fract_x
  _atom_site_fract_y
  _atom_site_fract_z
  _atom_site_occupancy
  Mg  Mg1       1.0  0.13400  0.25000  0.05710  1.0000
  Mg  Mg2       1.0  0.63400  0.25000  0.44300  1.0000
  Mg  Mg3       1.0  0.36600  0.75000  0.55700  1.0000
  Mg  Mg4       1.0  0.86600  0.75000  0.94300  1.0000
  Pr  Pr1       1.0  0.46200  0.75000  0.17900  1.0000
  Pr  Pr2       1.0  0.96200  0.75000  0.32100  1.0000
  Pr  Pr3       1.0  0.03790  0.25000  0.67900  1.0000
  Pr  Pr4       1.0  0.53800  0.25000  0.82100  1.0000
  Rh  Rh1       1.0  0.75400  0.25000  0.12700  1.0000
  Rh  Rh2       1.0  0.25400  0.25000  0.37300  1.0000
  Rh  Rh3       1.0  0.74600  0.75000  0.62700  1.0000
  Rh  Rh4       1.0  0.24600  0.75000  0.87300  1.0000
