data_image0
_chemical_formula_structural       Cs4K8
_chemical_formula_sum              "Cs4 K8"
_cell_length_a       8.97342
_cell_length_b       8.97342
_cell_length_c       14.6817
_cell_angle_alpha    90
_cell_angle_beta     90
_cell_angle_gamma    120

_space_group_name_H-M_alt    "P 1"
_space_group_IT_number       1

loop_
  _space_group_symop_operation_xyz
  'x, y, z'

loop_
  _atom_site_type_symbol
  _atom_site_label
  _atom_site_symmetry_multiplicity
  _atom_site_fract_x
  _atom_site_fract_y
  _atom_site_fract_z
  _atom_site_occupancy
  Cs  Cs1       1.0  0.33300  0.66700  0.06350  1.0000
  Cs  Cs2       1.0  0.33300  0.66700  0.43700  1.0000
  Cs  Cs3       1.0  0.66700  0.33300  0.56300  1.0000
  Cs  Cs4       1.0  0.66700  0.33300  0.93700  1.0000
  K   K1        1.0  0.00000  0.00000  0.00000  1.0000
  K   K2        1.0  0.33900  0.17000  0.25000  1.0000
  K   K3        1.0  0.83000  0.17000  0.25000  1.0000
  K   K4        1.0  0.83000  0.66100  0.25000  1.0000
  K   K5        1.0  0.00000  0.00000  0.50000  1.0000
  K   K6        1.0  0.17000  0.33900  0.75000  1.0000
  K   K7        1.0  0.17000  0.83000  0.75000  1.0000
  K   K8        1.0  0.66100  0.83000  0.75000  1.0000
