data_image0
_chemical_formula_structural       S8Sn2Sr4
_chemical_formula_sum              "S8 Sn2 Sr4"
_cell_length_a       6.36519
_cell_length_b       6.36519
_cell_length_c       10.0525
_cell_angle_alpha    90
_cell_angle_beta     90
_cell_angle_gamma    109.916

_space_group_name_H-M_alt    "P 1"
_space_group_IT_number       1

loop_
  _space_group_symop_operation_xyz
  'x, y, z'

loop_
  _atom_site_type_symbol
  _atom_site_label
  _atom_site_symmetry_multiplicity
  _atom_site_fract_x
  _atom_site_fract_y
  _atom_site_fract_z
  _atom_site_occupancy
  S   S1        1.0  0.35300  0.89900  0.05520  1.0000
  S   S2        1.0  0.90800  0.04760  0.25000  1.0000
  S   S3        1.0  0.61700  0.49500  0.25000  1.0000
  S   S4        1.0  0.35300  0.89900  0.44500  1.0000
  S   S5        1.0  0.89900  0.35300  0.55500  1.0000
  S   S6        1.0  0.49500  0.61700  0.75000  1.0000
  S   S7        1.0  0.04760  0.90800  0.75000  1.0000
  S   S8        1.0  0.89900  0.35300  0.94500  1.0000
  Sn  Sn1       1.0  0.54300  0.09720  0.25000  1.0000
  Sn  Sn2       1.0  0.09720  0.54300  0.75000  1.0000
  Sr  Sr1       1.0  0.79100  0.79100  0.00000  1.0000
  Sr  Sr2       1.0  0.14300  0.52200  0.25000  1.0000
  Sr  Sr3       1.0  0.79100  0.79100  0.50000  1.0000
  Sr  Sr4       1.0  0.52200  0.14300  0.75000  1.0000
