data_image0
_chemical_formula_structural       Al2MnS4
_chemical_formula_sum              "Al2 Mn1 S4"
_cell_length_a       3.65246
_cell_length_b       3.65246
_cell_length_c       12.4696
_cell_angle_alpha    98.4215
_cell_angle_beta     81.5785
_cell_angle_gamma    120

_space_group_name_H-M_alt    "P 1"
_space_group_IT_number       1

loop_
  _space_group_symop_operation_xyz
  'x, y, z'

loop_
  _atom_site_type_symbol
  _atom_site_label
  _atom_site_symmetry_multiplicity
  _atom_site_fract_x
  _atom_site_fract_y
  _atom_site_fract_z
  _atom_site_occupancy
  Al  Al1       1.0  0.00000  0.00043  0.00130  1.0000
  Al  Al2       1.0  0.23500  0.76500  0.29400  1.0000
  Mn  Mn1       1.0  0.76500  0.23500  0.70400  1.0000
  S   S1        1.0  0.29600  0.70400  0.11300  1.0000
  S   S2        1.0  0.87700  0.12300  0.36900  1.0000
  S   S3        1.0  0.12500  0.87500  0.62600  1.0000
  S   S4        1.0  0.69800  0.30200  0.90500  1.0000
