data_image0
_chemical_formula_structural       Eu2Si12
_chemical_formula_sum              "Eu2 Si12"
_cell_length_a       4.46402
_cell_length_b       5.56279
_cell_length_c       11.5644
_cell_angle_alpha    90
_cell_angle_beta     90
_cell_angle_gamma    66.3443

_space_group_name_H-M_alt    "P 1"
_space_group_IT_number       1

loop_
  _space_group_symop_operation_xyz
  'x, y, z'

loop_
  _atom_site_type_symbol
  _atom_site_label
  _atom_site_symmetry_multiplicity
  _atom_site_fract_x
  _atom_site_fract_y
  _atom_site_fract_z
  _atom_site_occupancy
  Eu  Eu1       1.0  0.72700  0.54600  0.25000  1.0000
  Eu  Eu2       1.0  0.27300  0.45400  0.75000  1.0000
  Si  Si1       1.0  0.24700  0.50700  0.03790  1.0000
  Si  Si2       1.0  0.02270  0.95500  0.10300  1.0000
  Si  Si3       1.0  0.44300  0.11400  0.14700  1.0000
  Si  Si4       1.0  0.44300  0.11400  0.35300  1.0000
  Si  Si5       1.0  0.02270  0.95500  0.39700  1.0000
  Si  Si6       1.0  0.24700  0.50700  0.46200  1.0000
  Si  Si7       1.0  0.75300  0.49300  0.53800  1.0000
  Si  Si8       1.0  0.97700  0.04540  0.60300  1.0000
  Si  Si9       1.0  0.55700  0.88600  0.64700  1.0000
  Si  Si10      1.0  0.55700  0.88600  0.85300  1.0000
  Si  Si11      1.0  0.97700  0.04540  0.89700  1.0000
  Si  Si12      1.0  0.75300  0.49300  0.96200  1.0000
