data_image0
_chemical_formula_structural       Ba4Cd4Sb6
_chemical_formula_sum              "Ba4 Cd4 Sb6"
_cell_length_a       4.8787
_cell_length_b       9.45397
_cell_length_c       11.1794
_cell_angle_alpha    91.801
_cell_angle_beta     102.603
_cell_angle_gamma    104.953

_space_group_name_H-M_alt    "P 1"
_space_group_IT_number       1

loop_
  _space_group_symop_operation_xyz
  'x, y, z'

loop_
  _atom_site_type_symbol
  _atom_site_label
  _atom_site_symmetry_multiplicity
  _atom_site_fract_x
  _atom_site_fract_y
  _atom_site_fract_z
  _atom_site_occupancy
  Ba  Ba1       1.0  0.65700  0.25900  0.05520  1.0000
  Ba  Ba2       1.0  0.60100  0.86600  0.33700  1.0000
  Ba  Ba3       1.0  0.39900  0.13400  0.66300  1.0000
  Ba  Ba4       1.0  0.34300  0.74100  0.94500  1.0000
  Cd  Cd1       1.0  0.27000  0.22900  0.31100  1.0000
  Cd  Cd2       1.0  0.93700  0.52800  0.34600  1.0000
  Cd  Cd3       1.0  0.06260  0.47200  0.65400  1.0000
  Cd  Cd4       1.0  0.73000  0.77100  0.68900  1.0000
  Sb  Sb1       1.0  0.04480  0.96400  0.12600  1.0000
  Sb  Sb2       1.0  0.35100  0.50700  0.19500  1.0000
  Sb  Sb3       1.0  0.84500  0.23100  0.45800  1.0000
  Sb  Sb4       1.0  0.15500  0.76900  0.54200  1.0000
  Sb  Sb5       1.0  0.64900  0.49300  0.80500  1.0000
  Sb  Sb6       1.0  0.95500  0.03600  0.87400  1.0000
