data_image0
_chemical_formula_structural       B6Mo6Ni2
_chemical_formula_sum              "B6 Mo6 Ni2"
_cell_length_a       3.19405
_cell_length_b       4.52041
_cell_length_c       10.7858
_cell_angle_alpha    90
_cell_angle_beta     90
_cell_angle_gamma    69.3112

_space_group_name_H-M_alt    "P 1"
_space_group_IT_number       1

loop_
  _space_group_symop_operation_xyz
  'x, y, z'

loop_
  _atom_site_type_symbol
  _atom_site_label
  _atom_site_symmetry_multiplicity
  _atom_site_fract_x
  _atom_site_fract_y
  _atom_site_fract_z
  _atom_site_occupancy
  B   B1        1.0  0.91100  0.17800  0.10400  1.0000
  B   B2        1.0  0.79200  0.41600  0.25000  1.0000
  B   B3        1.0  0.91100  0.17800  0.39600  1.0000
  B   B4        1.0  0.08910  0.82200  0.60400  1.0000
  B   B5        1.0  0.20800  0.58400  0.75000  1.0000
  B   B6        1.0  0.08910  0.82200  0.89600  1.0000
  Mo  Mo1       1.0  0.21300  0.57500  0.10900  1.0000
  Mo  Mo2       1.0  0.49800  0.00344  0.25000  1.0000
  Mo  Mo3       1.0  0.21300  0.57500  0.39100  1.0000
  Mo  Mo4       1.0  0.78700  0.42500  0.60900  1.0000
  Mo  Mo5       1.0  0.50200  0.99700  0.75000  1.0000
  Mo  Mo6       1.0  0.78700  0.42500  0.89100  1.0000
  Ni  Ni1       1.0  0.50000  0.00000  0.00000  1.0000
  Ni  Ni2       1.0  0.50000  0.00000  0.50000  1.0000
