data_image0
_chemical_formula_structural       Si12Sr2
_chemical_formula_sum              "Si12 Sr2"
_cell_length_a       4.49503
_cell_length_b       5.60715
_cell_length_c       11.7187
_cell_angle_alpha    90
_cell_angle_beta     90
_cell_angle_gamma    66.3699

_space_group_name_H-M_alt    "P 1"
_space_group_IT_number       1

loop_
  _space_group_symop_operation_xyz
  'x, y, z'

loop_
  _atom_site_type_symbol
  _atom_site_label
  _atom_site_symmetry_multiplicity
  _atom_site_fract_x
  _atom_site_fract_y
  _atom_site_fract_z
  _atom_site_occupancy
  Si  Si1       1.0  0.24700  0.50600  0.03760  1.0000
  Si  Si2       1.0  0.02290  0.95400  0.10100  1.0000
  Si  Si3       1.0  0.44300  0.11400  0.14700  1.0000
  Si  Si4       1.0  0.44300  0.11400  0.35300  1.0000
  Si  Si5       1.0  0.02290  0.95400  0.39900  1.0000
  Si  Si6       1.0  0.24700  0.50600  0.46200  1.0000
  Si  Si7       1.0  0.75300  0.49400  0.53800  1.0000
  Si  Si8       1.0  0.97700  0.04580  0.60100  1.0000
  Si  Si9       1.0  0.55700  0.88600  0.64700  1.0000
  Si  Si10      1.0  0.55700  0.88600  0.85300  1.0000
  Si  Si11      1.0  0.97700  0.04580  0.89900  1.0000
  Si  Si12      1.0  0.75300  0.49400  0.96200  1.0000
  Sr  Sr1       1.0  0.72800  0.54500  0.25000  1.0000
  Sr  Sr2       1.0  0.27200  0.45500  0.75000  1.0000
