data_image0
_chemical_formula_structural       C3Cl5Gd6
_chemical_formula_sum              "C3 Cl5 Gd6"
_cell_length_a       3.70115
_cell_length_b       8.44026
_cell_length_c       10.3763
_cell_angle_alpha    94.3688
_cell_angle_beta     100.273
_cell_angle_gamma    77.3347

_space_group_name_H-M_alt    "P 1"
_space_group_IT_number       1

loop_
  _space_group_symop_operation_xyz
  'x, y, z'

loop_
  _atom_site_type_symbol
  _atom_site_label
  _atom_site_symmetry_multiplicity
  _atom_site_fract_x
  _atom_site_fract_y
  _atom_site_fract_z
  _atom_site_occupancy
  C   C1        1.0  0.12400  0.12500  0.37300  1.0000
  C   C2        1.0  0.50000  0.50000  0.50000  1.0000
  C   C3        1.0  0.87600  0.87500  0.62700  1.0000
  Cl  Cl1       1.0  0.00000  0.00000  0.00000  1.0000
  Cl  Cl2       1.0  0.37600  0.38000  0.13200  1.0000
  Cl  Cl3       1.0  0.74900  0.74800  0.24500  1.0000
  Cl  Cl4       1.0  0.25100  0.25200  0.75500  1.0000
  Cl  Cl5       1.0  0.62400  0.62000  0.86800  1.0000
  Gd  Gd1       1.0  0.57100  0.07560  0.21800  1.0000
  Gd  Gd2       1.0  0.95500  0.43100  0.34100  1.0000
  Gd  Gd3       1.0  0.31800  0.81900  0.45600  1.0000
  Gd  Gd4       1.0  0.68200  0.18100  0.54400  1.0000
  Gd  Gd5       1.0  0.04510  0.56900  0.65900  1.0000
  Gd  Gd6       1.0  0.42900  0.92400  0.78200  1.0000
