data_image0
_chemical_formula_structural       Cu8Sn4Sr2
_chemical_formula_sum              "Cu8 Sn4 Sr2"
_cell_length_a       6.99248
_cell_length_b       6.99248
_cell_length_c       6.99248
_cell_angle_alpha    111.909
_cell_angle_beta     108.266
_cell_angle_gamma    108.266

_space_group_name_H-M_alt    "P 1"
_space_group_IT_number       1

loop_
  _space_group_symop_operation_xyz
  'x, y, z'

loop_
  _atom_site_type_symbol
  _atom_site_label
  _atom_site_symmetry_multiplicity
  _atom_site_fract_x
  _atom_site_fract_y
  _atom_site_fract_z
  _atom_site_occupancy
  Cu  Cu1       1.0  0.50000  0.79800  0.02560  1.0000
  Cu  Cu2       1.0  0.22800  0.70200  0.20200  1.0000
  Cu  Cu3       1.0  0.50000  0.52600  0.29800  1.0000
  Cu  Cu4       1.0  0.77200  0.97400  0.47400  1.0000
  Cu  Cu5       1.0  0.22800  0.02560  0.52600  1.0000
  Cu  Cu6       1.0  0.50000  0.47400  0.70200  1.0000
  Cu  Cu7       1.0  0.77200  0.29800  0.79800  1.0000
  Cu  Cu8       1.0  0.50000  0.20200  0.97400  1.0000
  Sn  Sn1       1.0  0.82200  0.66100  0.16100  1.0000
  Sn  Sn2       1.0  0.50000  0.16100  0.33900  1.0000
  Sn  Sn3       1.0  0.50000  0.83900  0.66100  1.0000
  Sn  Sn4       1.0  0.17800  0.33900  0.83900  1.0000
  Sr  Sr1       1.0  0.00000  0.25000  0.25000  1.0000
  Sr  Sr2       1.0  0.00000  0.75000  0.75000  1.0000
