data_image0
_chemical_formula_structural       As4Ni8Yb2
_chemical_formula_sum              "As4 Ni8 Yb2"
_cell_length_a       7.25803
_cell_length_b       7.25803
_cell_length_c       3.72868
_cell_angle_alpha    90
_cell_angle_beta     90
_cell_angle_gamma    90

_space_group_name_H-M_alt    "P 1"
_space_group_IT_number       1

loop_
  _space_group_symop_operation_xyz
  'x, y, z'

loop_
  _atom_site_type_symbol
  _atom_site_label
  _atom_site_symmetry_multiplicity
  _atom_site_fract_x
  _atom_site_fract_y
  _atom_site_fract_z
  _atom_site_occupancy
  As  As1       1.0  0.78100  0.21900  0.00000  1.0000
  As  As2       1.0  0.21900  0.78100  0.00000  1.0000
  As  As3       1.0  0.28100  0.28100  0.50000  1.0000
  As  As4       1.0  0.71900  0.71900  0.50000  1.0000
  Ni  Ni1       1.0  0.34300  0.08610  0.00000  1.0000
  Ni  Ni2       1.0  0.08610  0.34300  0.00000  1.0000
  Ni  Ni3       1.0  0.91400  0.65700  0.00000  1.0000
  Ni  Ni4       1.0  0.65700  0.91400  0.00000  1.0000
  Ni  Ni5       1.0  0.58600  0.15700  0.50000  1.0000
  Ni  Ni6       1.0  0.84300  0.41400  0.50000  1.0000
  Ni  Ni7       1.0  0.15700  0.58600  0.50000  1.0000
  Ni  Ni8       1.0  0.41400  0.84300  0.50000  1.0000
  Yb  Yb1       1.0  0.50000  0.50000  0.00000  1.0000
  Yb  Yb2       1.0  0.00000  0.00000  0.50000  1.0000
