data_image0
_chemical_formula_structural       Ni8Sn4Sr2
_chemical_formula_sum              "Ni8 Sn4 Sr2"
_cell_length_a       6.79818
_cell_length_b       6.79818
_cell_length_c       6.79818
_cell_angle_alpha    110.227
_cell_angle_beta     109.095
_cell_angle_gamma    109.095

_space_group_name_H-M_alt    "P 1"
_space_group_IT_number       1

loop_
  _space_group_symop_operation_xyz
  'x, y, z'

loop_
  _atom_site_type_symbol
  _atom_site_label
  _atom_site_symmetry_multiplicity
  _atom_site_fract_x
  _atom_site_fract_y
  _atom_site_fract_z
  _atom_site_occupancy
  Ni  Ni1       1.0  0.22900  0.52600  0.02640  1.0000
  Ni  Ni2       1.0  0.50000  0.97400  0.20200  1.0000
  Ni  Ni3       1.0  0.77100  0.79800  0.29800  1.0000
  Ni  Ni4       1.0  0.50000  0.70200  0.47400  1.0000
  Ni  Ni5       1.0  0.50000  0.29800  0.52600  1.0000
  Ni  Ni6       1.0  0.22900  0.20200  0.70200  1.0000
  Ni  Ni7       1.0  0.50000  0.02640  0.79800  1.0000
  Ni  Ni8       1.0  0.77100  0.47400  0.97400  1.0000
  Sn  Sn1       1.0  0.50000  0.33900  0.16100  1.0000
  Sn  Sn2       1.0  0.17900  0.83900  0.33900  1.0000
  Sn  Sn3       1.0  0.82100  0.16100  0.66100  1.0000
  Sn  Sn4       1.0  0.50000  0.66100  0.83900  1.0000
  Sr  Sr1       1.0  0.00000  0.25000  0.25000  1.0000
  Sr  Sr2       1.0  0.00000  0.75000  0.75000  1.0000
