data_image0
_chemical_formula_structural       As2Eu2K2S8
_chemical_formula_sum              "As2 Eu2 K2 S8"
_cell_length_a       6.70811
_cell_length_b       6.70299
_cell_length_c       8.76554
_cell_angle_alpha    90
_cell_angle_beta     106.917
_cell_angle_gamma    90

_space_group_name_H-M_alt    "P 1"
_space_group_IT_number       1

loop_
  _space_group_symop_operation_xyz
  'x, y, z'

loop_
  _atom_site_type_symbol
  _atom_site_label
  _atom_site_symmetry_multiplicity
  _atom_site_fract_x
  _atom_site_fract_y
  _atom_site_fract_z
  _atom_site_occupancy
  As  As1       1.0  0.28800  0.25000  0.18800  1.0000
  As  As2       1.0  0.71200  0.75000  0.81200  1.0000
  Eu  Eu1       1.0  0.73100  0.25000  0.05070  1.0000
  Eu  Eu2       1.0  0.26900  0.75000  0.94900  1.0000
  K   K1        1.0  0.23000  0.75000  0.43400  1.0000
  K   K2        1.0  0.77000  0.25000  0.56600  1.0000
  S   S1        1.0  0.89100  0.75000  0.06330  1.0000
  S   S2        1.0  0.50000  0.50600  0.23100  1.0000
  S   S3        1.0  0.50000  0.99400  0.23100  1.0000
  S   S4        1.0  0.08760  0.25000  0.34300  1.0000
  S   S5        1.0  0.91200  0.75000  0.65700  1.0000
  S   S6        1.0  0.50000  0.00587  0.76900  1.0000
  S   S7        1.0  0.50000  0.49400  0.76900  1.0000
  S   S8        1.0  0.10900  0.25000  0.93700  1.0000
