data_image0
_chemical_formula_structural       B6Ni2W6
_chemical_formula_sum              "B6 Ni2 W6"
_cell_length_a       3.2073
_cell_length_b       4.52263
_cell_length_c       10.7907
_cell_angle_alpha    90
_cell_angle_beta     90
_cell_angle_gamma    69.2321

_space_group_name_H-M_alt    "P 1"
_space_group_IT_number       1

loop_
  _space_group_symop_operation_xyz
  'x, y, z'

loop_
  _atom_site_type_symbol
  _atom_site_label
  _atom_site_symmetry_multiplicity
  _atom_site_fract_x
  _atom_site_fract_y
  _atom_site_fract_z
  _atom_site_occupancy
  B   B1        1.0  0.91100  0.17700  0.10400  1.0000
  B   B2        1.0  0.79000  0.42000  0.25000  1.0000
  B   B3        1.0  0.91100  0.17700  0.39600  1.0000
  B   B4        1.0  0.08860  0.82300  0.60400  1.0000
  B   B5        1.0  0.21000  0.58000  0.75000  1.0000
  B   B6        1.0  0.08860  0.82300  0.89600  1.0000
  Ni  Ni1       1.0  0.50000  0.00000  0.00000  1.0000
  Ni  Ni2       1.0  0.50000  0.00000  0.50000  1.0000
  W   W1        1.0  0.21200  0.57600  0.10800  1.0000
  W   W2        1.0  0.49700  0.00528  0.25000  1.0000
  W   W3        1.0  0.21200  0.57600  0.39200  1.0000
  W   W4        1.0  0.78800  0.42400  0.60800  1.0000
  W   W5        1.0  0.50300  0.99500  0.75000  1.0000
  W   W6        1.0  0.78800  0.42400  0.89200  1.0000
