data_image0
_chemical_formula_structural       Au5Mn2
_chemical_formula_sum              "Au5 Mn2"
_cell_length_a       3.9293
_cell_length_b       5.04044
_cell_length_c       6.62383
_cell_angle_alpha    96.4188
_cell_angle_beta     90
_cell_angle_gamma    112.941

_space_group_name_H-M_alt    "P 1"
_space_group_IT_number       1

loop_
  _space_group_symop_operation_xyz
  'x, y, z'

loop_
  _atom_site_type_symbol
  _atom_site_label
  _atom_site_symmetry_multiplicity
  _atom_site_fract_x
  _atom_site_fract_y
  _atom_site_fract_z
  _atom_site_occupancy
  Au  Au1       1.0  0.00000  0.00000  0.00000  1.0000
  Au  Au2       1.0  0.71400  0.42800  0.14600  1.0000
  Au  Au3       1.0  0.13700  0.27400  0.43300  1.0000
  Au  Au4       1.0  0.86300  0.72600  0.56700  1.0000
  Au  Au5       1.0  0.28600  0.57200  0.85400  1.0000
  Mn  Mn1       1.0  0.42400  0.84800  0.28100  1.0000
  Mn  Mn2       1.0  0.57600  0.15200  0.71900  1.0000
