data_image0
_chemical_formula_structural       Er2Ni8P4
_chemical_formula_sum              "Er2 Ni8 P4"
_cell_length_a       7.06008
_cell_length_b       7.06008
_cell_length_c       3.60406
_cell_angle_alpha    90
_cell_angle_beta     90
_cell_angle_gamma    90

_space_group_name_H-M_alt    "P 1"
_space_group_IT_number       1

loop_
  _space_group_symop_operation_xyz
  'x, y, z'

loop_
  _atom_site_type_symbol
  _atom_site_label
  _atom_site_symmetry_multiplicity
  _atom_site_fract_x
  _atom_site_fract_y
  _atom_site_fract_z
  _atom_site_occupancy
  Er  Er1       1.0  0.50000  0.50000  0.00000  1.0000
  Er  Er2       1.0  0.00000  0.00000  0.50000  1.0000
  Ni  Ni1       1.0  0.33700  0.08610  0.00000  1.0000
  Ni  Ni2       1.0  0.08610  0.33700  0.00000  1.0000
  Ni  Ni3       1.0  0.91400  0.66300  0.00000  1.0000
  Ni  Ni4       1.0  0.66300  0.91400  0.00000  1.0000
  Ni  Ni5       1.0  0.58600  0.16300  0.50000  1.0000
  Ni  Ni6       1.0  0.83700  0.41400  0.50000  1.0000
  Ni  Ni7       1.0  0.16300  0.58600  0.50000  1.0000
  Ni  Ni8       1.0  0.41400  0.83700  0.50000  1.0000
  P   P1        1.0  0.78100  0.21900  0.00000  1.0000
  P   P2        1.0  0.21900  0.78100  0.00000  1.0000
  P   P3        1.0  0.28100  0.28100  0.50000  1.0000
  P   P4        1.0  0.71900  0.71900  0.50000  1.0000
