data_image0
_chemical_formula_structural       As6Ba4Cd4
_chemical_formula_sum              "As6 Ba4 Cd4"
_cell_length_a       4.59709
_cell_length_b       8.98315
_cell_length_c       10.6239
_cell_angle_alpha    92.0258
_cell_angle_beta     102.495
_cell_angle_gamma    104.825

_space_group_name_H-M_alt    "P 1"
_space_group_IT_number       1

loop_
  _space_group_symop_operation_xyz
  'x, y, z'

loop_
  _atom_site_type_symbol
  _atom_site_label
  _atom_site_symmetry_multiplicity
  _atom_site_fract_x
  _atom_site_fract_y
  _atom_site_fract_z
  _atom_site_occupancy
  As  As1       1.0  0.04520  0.97300  0.11800  1.0000
  As  As2       1.0  0.35200  0.50500  0.19900  1.0000
  As  As3       1.0  0.84500  0.22900  0.46100  1.0000
  As  As4       1.0  0.15500  0.77100  0.53900  1.0000
  As  As5       1.0  0.64800  0.49500  0.80100  1.0000
  As  As6       1.0  0.95500  0.02730  0.88200  1.0000
  Ba  Ba1       1.0  0.65500  0.26300  0.04760  1.0000
  Ba  Ba2       1.0  0.60100  0.87000  0.33200  1.0000
  Ba  Ba3       1.0  0.39900  0.13000  0.66800  1.0000
  Ba  Ba4       1.0  0.34500  0.73700  0.95200  1.0000
  Cd  Cd1       1.0  0.27400  0.23300  0.31500  1.0000
  Cd  Cd2       1.0  0.93800  0.52700  0.34800  1.0000
  Cd  Cd3       1.0  0.06220  0.47300  0.65200  1.0000
  Cd  Cd4       1.0  0.72600  0.76700  0.68500  1.0000
