data_image0
_chemical_formula_structural       La6Ni6Zn2
_chemical_formula_sum              "La6 Ni6 Zn2"
_cell_length_a       4.26251
_cell_length_b       5.55921
_cell_length_c       13.5943
_cell_angle_alpha    90
_cell_angle_beta     90
_cell_angle_gamma    67.4571

_space_group_name_H-M_alt    "P 1"
_space_group_IT_number       1

loop_
  _space_group_symop_operation_xyz
  'x, y, z'

loop_
  _atom_site_type_symbol
  _atom_site_label
  _atom_site_symmetry_multiplicity
  _atom_site_fract_x
  _atom_site_fract_y
  _atom_site_fract_z
  _atom_site_occupancy
  La  La1       1.0  0.71300  0.57400  0.10400  1.0000
  La  La2       1.0  0.99600  0.00882  0.25000  1.0000
  La  La3       1.0  0.71300  0.57400  0.39600  1.0000
  La  La4       1.0  0.28700  0.42600  0.60400  1.0000
  La  La5       1.0  0.00441  0.99100  0.75000  1.0000
  La  La6       1.0  0.28700  0.42600  0.89600  1.0000
  Ni  Ni1       1.0  0.42700  0.14500  0.08570  1.0000
  Ni  Ni2       1.0  0.29600  0.40800  0.25000  1.0000
  Ni  Ni3       1.0  0.42700  0.14500  0.41400  1.0000
  Ni  Ni4       1.0  0.57300  0.85500  0.58600  1.0000
  Ni  Ni5       1.0  0.70400  0.59200  0.75000  1.0000
  Ni  Ni6       1.0  0.57300  0.85500  0.91400  1.0000
  Zn  Zn1       1.0  0.00000  0.00000  0.00000  1.0000
  Zn  Zn2       1.0  0.00000  0.00000  0.50000  1.0000
