data_image0
_chemical_formula_structural       Ag2Bi4Cl2S6
_chemical_formula_sum              "Ag2 Bi4 Cl2 S6"
_cell_length_a       7.8212
_cell_length_b       4.0228
_cell_length_c       10.8791
_cell_angle_alpha    90
_cell_angle_beta     102.876
_cell_angle_gamma    90

_space_group_name_H-M_alt    "P 1"
_space_group_IT_number       1

loop_
  _space_group_symop_operation_xyz
  'x, y, z'

loop_
  _atom_site_type_symbol
  _atom_site_label
  _atom_site_symmetry_multiplicity
  _atom_site_fract_x
  _atom_site_fract_y
  _atom_site_fract_z
  _atom_site_occupancy
  Ag  Ag1       1.0  0.05870  0.25000  0.40600  1.0000
  Ag  Ag2       1.0  0.94100  0.75000  0.59400  1.0000
  Bi  Bi1       1.0  0.81300  0.75000  0.07360  1.0000
  Bi  Bi2       1.0  0.54100  0.25000  0.34500  1.0000
  Bi  Bi3       1.0  0.45900  0.75000  0.65500  1.0000
  Bi  Bi4       1.0  0.18700  0.25000  0.92600  1.0000
  Cl  Cl1       1.0  0.40500  0.75000  0.10200  1.0000
  Cl  Cl2       1.0  0.59500  0.25000  0.89800  1.0000
  S   S1        1.0  0.04080  0.25000  0.14600  1.0000
  S   S2        1.0  0.80000  0.75000  0.33800  1.0000
  S   S3        1.0  0.31700  0.75000  0.41400  1.0000
  S   S4        1.0  0.68300  0.25000  0.58600  1.0000
  S   S5        1.0  0.20000  0.25000  0.66200  1.0000
  S   S6        1.0  0.95900  0.75000  0.85400  1.0000
