data_image0
_chemical_formula_structural       Cu6Sn5Yb3
_chemical_formula_sum              "Cu6 Sn5 Yb3"
_cell_length_a       4.38323
_cell_length_b       8.36544
_cell_length_c       8.36544
_cell_angle_alpha    99.7548
_cell_angle_beta     105.188
_cell_angle_gamma    105.188

_space_group_name_H-M_alt    "P 1"
_space_group_IT_number       1

loop_
  _space_group_symop_operation_xyz
  'x, y, z'

loop_
  _atom_site_type_symbol
  _atom_site_label
  _atom_site_symmetry_multiplicity
  _atom_site_fract_x
  _atom_site_fract_y
  _atom_site_fract_z
  _atom_site_occupancy
  Cu  Cu1       1.0  0.28300  0.40300  0.16200  1.0000
  Cu  Cu2       1.0  0.80800  0.30800  0.30800  1.0000
  Cu  Cu3       1.0  0.28300  0.16200  0.40300  1.0000
  Cu  Cu4       1.0  0.71700  0.83800  0.59700  1.0000
  Cu  Cu5       1.0  0.19200  0.69200  0.69200  1.0000
  Cu  Cu6       1.0  0.71700  0.59700  0.83800  1.0000
  Sn  Sn1       1.0  0.34700  0.67700  0.01790  1.0000
  Sn  Sn2       1.0  0.65300  0.98200  0.32300  1.0000
  Sn  Sn3       1.0  0.50000  0.50000  0.50000  1.0000
  Sn  Sn4       1.0  0.34700  0.01790  0.67700  1.0000
  Sn  Sn5       1.0  0.65300  0.32300  0.98200  1.0000
  Yb  Yb1       1.0  0.00000  0.00000  0.00000  1.0000
  Yb  Yb2       1.0  0.00000  0.69000  0.31000  1.0000
  Yb  Yb3       1.0  0.00000  0.31000  0.69000  1.0000
