data_image0
_chemical_formula_structural       Cr5InSe8
_chemical_formula_sum              "Cr5 In1 Se8"
_cell_length_a       3.65866
_cell_length_b       8.95937
_cell_length_c       9.61182
_cell_angle_alpha    104.4
_cell_angle_beta     100.972
_cell_angle_gamma    90

_space_group_name_H-M_alt    "P 1"
_space_group_IT_number       1

loop_
  _space_group_symop_operation_xyz
  'x, y, z'

loop_
  _atom_site_type_symbol
  _atom_site_label
  _atom_site_symmetry_multiplicity
  _atom_site_fract_x
  _atom_site_fract_y
  _atom_site_fract_z
  _atom_site_occupancy
  Cr  Cr1       1.0  0.00000  0.50000  0.00000  1.0000
  Cr  Cr2       1.0  0.65700  0.47400  0.31400  1.0000
  Cr  Cr3       1.0  0.70400  0.83500  0.40700  1.0000
  Cr  Cr4       1.0  0.29600  0.16500  0.59300  1.0000
  Cr  Cr5       1.0  0.34300  0.52600  0.68600  1.0000
  In  In1       1.0  0.50000  0.00000  0.00000  1.0000
  Se  Se1       1.0  0.57500  0.65600  0.14900  1.0000
  Se  Se2       1.0  0.08400  0.31900  0.16800  1.0000
  Se  Se3       1.0  0.17000  0.99300  0.33900  1.0000
  Se  Se4       1.0  0.23800  0.65500  0.47500  1.0000
  Se  Se5       1.0  0.76200  0.34500  0.52500  1.0000
  Se  Se6       1.0  0.83000  0.00735  0.66100  1.0000
  Se  Se7       1.0  0.91600  0.68100  0.83200  1.0000
  Se  Se8       1.0  0.42500  0.34400  0.85100  1.0000
