data_image0
_chemical_formula_structural       N2O2Se4Tb6
_chemical_formula_sum              "N2 O2 Se4 Tb6"
_cell_length_a       3.913
_cell_length_b       8.01453
_cell_length_c       9.70795
_cell_angle_alpha    97.1109
_cell_angle_beta     90
_cell_angle_gamma    104.13

_space_group_name_H-M_alt    "P 1"
_space_group_IT_number       1

loop_
  _space_group_symop_operation_xyz
  'x, y, z'

loop_
  _atom_site_type_symbol
  _atom_site_label
  _atom_site_symmetry_multiplicity
  _atom_site_fract_x
  _atom_site_fract_y
  _atom_site_fract_z
  _atom_site_occupancy
  N   N1        1.0  0.90300  0.80500  0.18800  1.0000
  N   N2        1.0  0.09740  0.19500  0.81200  1.0000
  O   O1        1.0  0.53600  0.07140  0.13900  1.0000
  O   O2        1.0  0.46400  0.92900  0.86100  1.0000
  Se  Se1       1.0  0.21200  0.42400  0.15000  1.0000
  Se  Se2       1.0  0.62800  0.25600  0.47300  1.0000
  Se  Se3       1.0  0.37200  0.74400  0.52700  1.0000
  Se  Se4       1.0  0.78800  0.57600  0.85000  1.0000
  Tb  Tb1       1.0  0.39200  0.78300  0.05490  1.0000
  Tb  Tb2       1.0  0.04440  0.08880  0.26100  1.0000
  Tb  Tb3       1.0  0.80300  0.60500  0.32600  1.0000
  Tb  Tb4       1.0  0.19700  0.39500  0.67400  1.0000
  Tb  Tb5       1.0  0.95600  0.91100  0.73900  1.0000
  Tb  Tb6       1.0  0.60800  0.21700  0.94500  1.0000
