data_image0
_chemical_formula_structural       Au8Th6
_chemical_formula_sum              "Au8 Th6"
_cell_length_a       6.25989
_cell_length_b       8.28714
_cell_length_c       8.28714
_cell_angle_alpha    113.885
_cell_angle_beta     104.584
_cell_angle_gamma    104.584

_space_group_name_H-M_alt    "P 1"
_space_group_IT_number       1

loop_
  _space_group_symop_operation_xyz
  'x, y, z'

loop_
  _atom_site_type_symbol
  _atom_site_label
  _atom_site_symmetry_multiplicity
  _atom_site_fract_x
  _atom_site_fract_y
  _atom_site_fract_z
  _atom_site_occupancy
  Au  Au1       1.0  0.00000  0.00000  0.00000  1.0000
  Au  Au2       1.0  0.50000  0.00000  0.00000  1.0000
  Au  Au3       1.0  0.93300  0.49400  0.16100  1.0000
  Au  Au4       1.0  0.77100  0.83900  0.33300  1.0000
  Au  Au5       1.0  0.56200  0.33300  0.49400  1.0000
  Au  Au6       1.0  0.43800  0.66700  0.50600  1.0000
  Au  Au7       1.0  0.22900  0.16100  0.66700  1.0000
  Au  Au8       1.0  0.06740  0.50600  0.83900  1.0000
  Th  Th1       1.0  0.40400  0.37800  0.12100  1.0000
  Th  Th2       1.0  0.28300  0.87900  0.25700  1.0000
  Th  Th3       1.0  0.97400  0.25700  0.37800  1.0000
  Th  Th4       1.0  0.02610  0.74300  0.62200  1.0000
  Th  Th5       1.0  0.71700  0.12100  0.74300  1.0000
  Th  Th6       1.0  0.59600  0.62200  0.87900  1.0000
