data_image0
_chemical_formula_structural       Na4Se6Zr2
_chemical_formula_sum              "Na4 Se6 Zr2"
_cell_length_a       6.95822
_cell_length_b       6.96622
_cell_length_c       7.29142
_cell_angle_alpha    99.2676
_cell_angle_beta     108.812
_cell_angle_gamma    60.038

_space_group_name_H-M_alt    "P 1"
_space_group_IT_number       1

loop_
  _space_group_symop_operation_xyz
  'x, y, z'

loop_
  _atom_site_type_symbol
  _atom_site_label
  _atom_site_symmetry_multiplicity
  _atom_site_fract_x
  _atom_site_fract_y
  _atom_site_fract_z
  _atom_site_occupancy
  Na  Na1       1.0  0.00000  0.00000  0.00000  1.0000
  Na  Na2       1.0  0.50000  0.00000  0.50000  1.0000
  Na  Na3       1.0  0.15700  0.68600  0.50000  1.0000
  Na  Na4       1.0  0.84300  0.31400  0.50000  1.0000
  Se  Se1       1.0  0.71600  0.00000  0.22400  1.0000
  Se  Se2       1.0  0.07600  0.36000  0.22500  1.0000
  Se  Se3       1.0  0.43600  0.64000  0.22500  1.0000
  Se  Se4       1.0  0.56400  0.36000  0.77500  1.0000
  Se  Se5       1.0  0.92400  0.64000  0.77500  1.0000
  Se  Se6       1.0  0.28400  0.00000  0.77600  1.0000
  Zr  Zr1       1.0  0.66900  0.66300  0.00000  1.0000
  Zr  Zr2       1.0  0.33100  0.33700  0.00000  1.0000
