data_image0
_chemical_formula_structural       KSe8Ti5
_chemical_formula_sum              "K1 Se8 Ti5"
_cell_length_a       3.59421
_cell_length_b       9.24864
_cell_length_c       9.58084
_cell_angle_alpha    104.436
_cell_angle_beta     100.811
_cell_angle_gamma    90

_space_group_name_H-M_alt    "P 1"
_space_group_IT_number       1

loop_
  _space_group_symop_operation_xyz
  'x, y, z'

loop_
  _atom_site_type_symbol
  _atom_site_label
  _atom_site_symmetry_multiplicity
  _atom_site_fract_x
  _atom_site_fract_y
  _atom_site_fract_z
  _atom_site_occupancy
  K   K1        1.0  0.50000  0.50000  0.00000  1.0000
  Se  Se1       1.0  0.57400  0.17500  0.14800  1.0000
  Se  Se2       1.0  0.08660  0.82100  0.17300  1.0000
  Se  Se3       1.0  0.16000  0.49700  0.32100  1.0000
  Se  Se4       1.0  0.24300  0.16500  0.48700  1.0000
  Se  Se5       1.0  0.75700  0.83500  0.51300  1.0000
  Se  Se6       1.0  0.84000  0.50300  0.67900  1.0000
  Se  Se7       1.0  0.91300  0.17900  0.82700  1.0000
  Se  Se8       1.0  0.42600  0.82500  0.85200  1.0000
  Ti  Ti1       1.0  0.00000  0.00000  0.00000  1.0000
  Ti  Ti2       1.0  0.65500  0.99800  0.31100  1.0000
  Ti  Ti3       1.0  0.70900  0.34900  0.41800  1.0000
  Ti  Ti4       1.0  0.29100  0.65100  0.58200  1.0000
  Ti  Ti5       1.0  0.34500  0.00173  0.68900  1.0000
