data_image0
_chemical_formula_structural       Ca2In8Pd2
_chemical_formula_sum              "Ca2 In8 Pd2"
_cell_length_a       4.51016
_cell_length_b       7.6215
_cell_length_c       8.7125
_cell_angle_alpha    90
_cell_angle_beta     74.9992
_cell_angle_gamma    90

_space_group_name_H-M_alt    "P 1"
_space_group_IT_number       1

loop_
  _space_group_symop_operation_xyz
  'x, y, z'

loop_
  _atom_site_type_symbol
  _atom_site_label
  _atom_site_symmetry_multiplicity
  _atom_site_fract_x
  _atom_site_fract_y
  _atom_site_fract_z
  _atom_site_occupancy
  Ca  Ca1       1.0  0.87200  0.25000  0.25500  1.0000
  Ca  Ca2       1.0  0.12800  0.75000  0.74500  1.0000
  In  In1       1.0  0.50000  0.00000  0.00000  1.0000
  In  In2       1.0  0.50000  0.50000  0.00000  1.0000
  In  In3       1.0  0.93400  0.75000  0.13100  1.0000
  In  In4       1.0  0.31700  0.55000  0.36500  1.0000
  In  In5       1.0  0.31700  0.95000  0.36500  1.0000
  In  In6       1.0  0.68300  0.04950  0.63500  1.0000
  In  In7       1.0  0.68300  0.45000  0.63500  1.0000
  In  In8       1.0  0.06570  0.25000  0.86900  1.0000
  Pd  Pd1       1.0  0.77200  0.75000  0.45500  1.0000
  Pd  Pd2       1.0  0.22800  0.25000  0.54500  1.0000
