data_image0
_chemical_formula_structural       Ba2Mo6Se6
_chemical_formula_sum              "Ba2 Mo6 Se6"
_cell_length_a       9.01231
_cell_length_b       9.01568
_cell_length_c       4.50256
_cell_angle_alpha    90
_cell_angle_beta     90
_cell_angle_gamma    120.017

_space_group_name_H-M_alt    "P 1"
_space_group_IT_number       1

loop_
  _space_group_symop_operation_xyz
  'x, y, z'

loop_
  _atom_site_type_symbol
  _atom_site_label
  _atom_site_symmetry_multiplicity
  _atom_site_fract_x
  _atom_site_fract_y
  _atom_site_fract_z
  _atom_site_occupancy
  Ba  Ba1       1.0  0.33300  0.66700  0.25000  1.0000
  Ba  Ba2       1.0  0.66700  0.33300  0.75000  1.0000
  Mo  Mo1       1.0  0.81400  0.96300  0.25000  1.0000
  Mo  Mo2       1.0  0.15000  0.18600  0.25000  1.0000
  Mo  Mo3       1.0  0.03660  0.85000  0.25000  1.0000
  Mo  Mo4       1.0  0.18600  0.03660  0.75000  1.0000
  Mo  Mo5       1.0  0.96300  0.15000  0.75000  1.0000
  Mo  Mo6       1.0  0.85000  0.81400  0.75000  1.0000
  Se  Se1       1.0  0.37400  0.07280  0.25000  1.0000
  Se  Se2       1.0  0.92700  0.30100  0.25000  1.0000
  Se  Se3       1.0  0.69900  0.62600  0.25000  1.0000
  Se  Se4       1.0  0.62600  0.92700  0.75000  1.0000
  Se  Se5       1.0  0.30100  0.37400  0.75000  1.0000
  Se  Se6       1.0  0.07280  0.69900  0.75000  1.0000
