data_image0
_chemical_formula_structural       Al4Eu2Se8
_chemical_formula_sum              "Al4 Eu2 Se8"
_cell_length_a       6.23428
_cell_length_b       6.23428
_cell_length_c       10.8713
_cell_angle_alpha    90
_cell_angle_beta     90
_cell_angle_gamma    119.758

_space_group_name_H-M_alt    "P 1"
_space_group_IT_number       1

loop_
  _space_group_symop_operation_xyz
  'x, y, z'

loop_
  _atom_site_type_symbol
  _atom_site_label
  _atom_site_symmetry_multiplicity
  _atom_site_fract_x
  _atom_site_fract_y
  _atom_site_fract_z
  _atom_site_occupancy
  Al  Al1       1.0  0.75900  0.23800  0.00000  1.0000
  Al  Al2       1.0  0.24100  0.76200  0.00000  1.0000
  Al  Al3       1.0  0.76200  0.24100  0.50000  1.0000
  Al  Al4       1.0  0.23800  0.75900  0.50000  1.0000
  Eu  Eu1       1.0  0.50000  0.50000  0.25000  1.0000
  Eu  Eu2       1.0  0.50000  0.50000  0.75000  1.0000
  Se  Se1       1.0  0.18700  0.34700  0.00000  1.0000
  Se  Se2       1.0  0.81300  0.65300  0.00000  1.0000
  Se  Se3       1.0  0.50000  0.00000  0.17000  1.0000
  Se  Se4       1.0  0.00000  0.50000  0.33000  1.0000
  Se  Se5       1.0  0.34700  0.18700  0.50000  1.0000
  Se  Se6       1.0  0.65300  0.81300  0.50000  1.0000
  Se  Se7       1.0  0.00000  0.50000  0.67000  1.0000
  Se  Se8       1.0  0.50000  0.00000  0.83000  1.0000
