data_image0
_chemical_formula_structural       C8Dy4Fe2
_chemical_formula_sum              "C8 Dy4 Fe2"
_cell_length_a       5.02816
_cell_length_b       6.5806
_cell_length_c       6.5806
_cell_angle_alpha    69.1258
_cell_angle_beta     112.46
_cell_angle_gamma    112.46

_space_group_name_H-M_alt    "P 1"
_space_group_IT_number       1

loop_
  _space_group_symop_operation_xyz
  'x, y, z'

loop_
  _atom_site_type_symbol
  _atom_site_label
  _atom_site_symmetry_multiplicity
  _atom_site_fract_x
  _atom_site_fract_y
  _atom_site_fract_z
  _atom_site_occupancy
  C   C1        1.0  0.42200  0.75700  0.08710  1.0000
  C   C2        1.0  0.37200  0.53500  0.21000  1.0000
  C   C3        1.0  0.07790  0.91300  0.24300  1.0000
  C   C4        1.0  0.12800  0.79000  0.46500  1.0000
  C   C5        1.0  0.87200  0.21000  0.53500  1.0000
  C   C6        1.0  0.92200  0.08710  0.75700  1.0000
  C   C7        1.0  0.62800  0.46500  0.79000  1.0000
  C   C8        1.0  0.57800  0.24300  0.91300  1.0000
  Dy  Dy1       1.0  0.85500  0.51200  0.19800  1.0000
  Dy  Dy2       1.0  0.64500  0.80200  0.48800  1.0000
  Dy  Dy3       1.0  0.35500  0.19800  0.51200  1.0000
  Dy  Dy4       1.0  0.14500  0.48800  0.80200  1.0000
  Fe  Fe1       1.0  0.25000  0.00000  0.00000  1.0000
  Fe  Fe2       1.0  0.75000  0.00000  0.00000  1.0000
