data_image0
_chemical_formula_structural       CsSe8Ti5
_chemical_formula_sum              "Cs1 Se8 Ti5"
_cell_length_a       3.61906
_cell_length_b       9.36233
_cell_length_c       9.6482
_cell_angle_alpha    104.347
_cell_angle_beta     100.81
_cell_angle_gamma    90

_space_group_name_H-M_alt    "P 1"
_space_group_IT_number       1

loop_
  _space_group_symop_operation_xyz
  'x, y, z'

loop_
  _atom_site_type_symbol
  _atom_site_label
  _atom_site_symmetry_multiplicity
  _atom_site_fract_x
  _atom_site_fract_y
  _atom_site_fract_z
  _atom_site_occupancy
  Cs  Cs1       1.0  0.50000  0.50000  1.00000  1.0000
  Se  Se1       1.0  0.57500  0.17200  0.15000  1.0000
  Se  Se2       1.0  0.08930  0.83200  0.17900  1.0000
  Se  Se3       1.0  0.16300  0.49600  0.32600  1.0000
  Se  Se4       1.0  0.24500  0.16900  0.49000  1.0000
  Se  Se5       1.0  0.75500  0.83100  0.51000  1.0000
  Se  Se6       1.0  0.83700  0.50400  0.67400  1.0000
  Se  Se7       1.0  0.91100  0.16800  0.82100  1.0000
  Se  Se8       1.0  0.42500  0.82800  0.85000  1.0000
  Ti  Ti1       1.0  0.00000  0.00000  0.00000  1.0000
  Ti  Ti2       1.0  0.66000  0.00262  0.32100  1.0000
  Ti  Ti3       1.0  0.70800  0.34800  0.41700  1.0000
  Ti  Ti4       1.0  0.29200  0.65200  0.58300  1.0000
  Ti  Ti5       1.0  0.34000  0.99700  0.67900  1.0000
