data_image0
_chemical_formula_structural       Ag2Hg2O8V2
_chemical_formula_sum              "Ag2 Hg2 O8 V2"
_cell_length_a       5.46133
_cell_length_b       5.786
_cell_length_c       7.10912
_cell_angle_alpha    93.9561
_cell_angle_beta     90
_cell_angle_gamma    118.161

_space_group_name_H-M_alt    "P 1"
_space_group_IT_number       1

loop_
  _space_group_symop_operation_xyz
  'x, y, z'

loop_
  _atom_site_type_symbol
  _atom_site_label
  _atom_site_symmetry_multiplicity
  _atom_site_fract_x
  _atom_site_fract_y
  _atom_site_fract_z
  _atom_site_occupancy
  Ag  Ag1       1.0  0.36300  0.72100  0.24700  1.0000
  Ag  Ag2       1.0  0.64200  0.27900  0.75300  1.0000
  Hg  Hg1       1.0  0.98700  0.00000  0.00000  1.0000
  Hg  Hg2       1.0  0.98500  0.00000  0.50000  1.0000
  O   O1        1.0  0.47800  0.26600  0.05090  1.0000
  O   O2        1.0  0.95200  0.28100  0.23100  1.0000
  O   O3        1.0  0.81600  0.73300  0.26200  1.0000
  O   O4        1.0  0.50800  0.26000  0.44300  1.0000
  O   O5        1.0  0.24800  0.74000  0.55700  1.0000
  O   O6        1.0  0.08290  0.26700  0.73800  1.0000
  O   O7        1.0  0.67100  0.71900  0.76900  1.0000
  O   O8        1.0  0.21200  0.73400  0.94900  1.0000
  V   V1        1.0  0.69200  0.37800  0.24800  1.0000
  V   V2        1.0  0.31400  0.62100  0.75200  1.0000
