data_image0
_chemical_formula_structural       O10P2V2
_chemical_formula_sum              "O10 P2 V2"
_cell_length_a       6.16282
_cell_length_b       6.16282
_cell_length_c       4.05718
_cell_angle_alpha    90
_cell_angle_beta     90
_cell_angle_gamma    90

_space_group_name_H-M_alt    "P 1"
_space_group_IT_number       1

loop_
  _space_group_symop_operation_xyz
  'x, y, z'

loop_
  _atom_site_type_symbol
  _atom_site_label
  _atom_site_symmetry_multiplicity
  _atom_site_fract_x
  _atom_site_fract_y
  _atom_site_fract_z
  _atom_site_occupancy
  O   O1        1.0  0.00000  0.50000  0.23900  1.0000
  O   O2        1.0  0.80000  0.03810  0.27800  1.0000
  O   O3        1.0  0.46200  0.30000  0.27800  1.0000
  O   O4        1.0  0.53800  0.70000  0.27800  1.0000
  O   O5        1.0  0.20000  0.96200  0.27800  1.0000
  O   O6        1.0  0.03810  0.20000  0.72200  1.0000
  O   O7        1.0  0.70000  0.46200  0.72200  1.0000
  O   O8        1.0  0.30000  0.53800  0.72200  1.0000
  O   O9        1.0  0.96200  0.80000  0.72200  1.0000
  O   O10       1.0  0.50000  0.00000  0.76100  1.0000
  P   P1        1.0  0.00000  0.00000  0.50000  1.0000
  P   P2        1.0  0.50000  0.50000  0.50000  1.0000
  V   V1        1.0  0.50000  0.00000  0.36400  1.0000
  V   V2        1.0  0.00000  0.50000  0.63600  1.0000
