data_image0
_chemical_formula_structural       Cr5NaSe8
_chemical_formula_sum              "Cr5 Na1 Se8"
_cell_length_a       3.67016
_cell_length_b       8.87337
_cell_length_c       9.67345
_cell_angle_alpha    105.669
_cell_angle_beta     100.935
_cell_angle_gamma    90

_space_group_name_H-M_alt    "P 1"
_space_group_IT_number       1

loop_
  _space_group_symop_operation_xyz
  'x, y, z'

loop_
  _atom_site_type_symbol
  _atom_site_label
  _atom_site_symmetry_multiplicity
  _atom_site_fract_x
  _atom_site_fract_y
  _atom_site_fract_z
  _atom_site_occupancy
  Cr  Cr1       1.0  0.00000  0.00000  0.00000  1.0000
  Cr  Cr2       1.0  0.65500  0.96600  0.31100  1.0000
  Cr  Cr3       1.0  0.70300  0.33500  0.40700  1.0000
  Cr  Cr4       1.0  0.29700  0.66500  0.59300  1.0000
  Cr  Cr5       1.0  0.34500  0.03360  0.68900  1.0000
  Na  Na1       1.0  0.50000  0.50000  0.00000  1.0000
  Se  Se1       1.0  0.57600  0.15100  0.15200  1.0000
  Se  Se2       1.0  0.07960  0.80800  0.15900  1.0000
  Se  Se3       1.0  0.17000  0.49200  0.33900  1.0000
  Se  Se4       1.0  0.23600  0.15200  0.47200  1.0000
  Se  Se5       1.0  0.76400  0.84800  0.52800  1.0000
  Se  Se6       1.0  0.83000  0.50800  0.66100  1.0000
  Se  Se7       1.0  0.92000  0.19200  0.84100  1.0000
  Se  Se8       1.0  0.42400  0.84900  0.84800  1.0000
