data_image0
_chemical_formula_structural       K2S8Si2Y2
_chemical_formula_sum              "K2 S8 Si2 Y2"
_cell_length_a       6.41143
_cell_length_b       6.61194
_cell_length_c       8.68658
_cell_angle_alpha    90
_cell_angle_beta     108.029
_cell_angle_gamma    90

_space_group_name_H-M_alt    "P 1"
_space_group_IT_number       1

loop_
  _space_group_symop_operation_xyz
  'x, y, z'

loop_
  _atom_site_type_symbol
  _atom_site_label
  _atom_site_symmetry_multiplicity
  _atom_site_fract_x
  _atom_site_fract_y
  _atom_site_fract_z
  _atom_site_occupancy
  K   K1        1.0  0.27000  0.02190  0.06410  1.0000
  K   K2        1.0  0.73000  0.52200  0.93600  1.0000
  S   S1        1.0  0.41400  0.53600  0.17000  1.0000
  S   S2        1.0  0.97600  0.77100  0.27900  1.0000
  S   S3        1.0  0.01930  0.27200  0.29800  1.0000
  S   S4        1.0  0.57800  0.09300  0.43200  1.0000
  S   S5        1.0  0.42200  0.59300  0.56800  1.0000
  S   S6        1.0  0.98100  0.77200  0.70200  1.0000
  S   S7        1.0  0.02390  0.27100  0.72100  1.0000
  S   S8        1.0  0.58600  0.03640  0.83000  1.0000
  Si  Si1       1.0  0.21900  0.53800  0.32600  1.0000
  Si  Si2       1.0  0.78100  0.03780  0.67400  1.0000
  Y   Y1        1.0  0.76900  0.50100  0.45100  1.0000
  Y   Y2        1.0  0.23100  0.00098  0.54900  1.0000
