data_image0
_chemical_formula_structural       RbS8V5
_chemical_formula_sum              "Rb1 S8 V5"
_cell_length_a       3.31184
_cell_length_b       8.7623
_cell_length_c       8.91605
_cell_angle_alpha    103.319
_cell_angle_beta     100.703
_cell_angle_gamma    90

_space_group_name_H-M_alt    "P 1"
_space_group_IT_number       1

loop_
  _space_group_symop_operation_xyz
  'x, y, z'

loop_
  _atom_site_type_symbol
  _atom_site_label
  _atom_site_symmetry_multiplicity
  _atom_site_fract_x
  _atom_site_fract_y
  _atom_site_fract_z
  _atom_site_occupancy
  Rb  Rb1       1.0  0.50000  0.50000  0.00000  1.0000
  S   S1        1.0  0.57200  0.17100  0.14500  1.0000
  S   S2        1.0  0.08640  0.82200  0.17300  1.0000
  S   S3        1.0  0.16700  0.49500  0.33300  1.0000
  S   S4        1.0  0.23900  0.15000  0.47800  1.0000
  S   S5        1.0  0.76100  0.85000  0.52200  1.0000
  S   S6        1.0  0.83300  0.50500  0.66700  1.0000
  S   S7        1.0  0.91400  0.17800  0.82700  1.0000
  S   S8        1.0  0.42800  0.82900  0.85500  1.0000
  V   V1        1.0  0.00000  0.00000  0.00000  1.0000
  V   V2        1.0  0.64800  0.99300  0.29500  1.0000
  V   V3        1.0  0.70700  0.33500  0.41400  1.0000
  V   V4        1.0  0.29300  0.66500  0.58600  1.0000
  V   V5        1.0  0.35200  0.00729  0.70500  1.0000
