data_image0
_chemical_formula_structural       C3Cl3La6
_chemical_formula_sum              "C3 Cl3 La6"
_cell_length_a       3.8543
_cell_length_b       3.85431
_cell_length_c       22.0615
_cell_angle_alpha    90
_cell_angle_beta     89.9999
_cell_angle_gamma    120

_space_group_name_H-M_alt    "P 1"
_space_group_IT_number       1

loop_
  _space_group_symop_operation_xyz
  'x, y, z'

loop_
  _atom_site_type_symbol
  _atom_site_label
  _atom_site_symmetry_multiplicity
  _atom_site_fract_x
  _atom_site_fract_y
  _atom_site_fract_z
  _atom_site_occupancy
  C   C1        1.0  0.33300  0.66700  0.16700  1.0000
  C   C2        1.0  0.00000  0.00000  0.50000  1.0000
  C   C3        1.0  0.66700  0.33300  0.83300  1.0000
  Cl  Cl1       1.0  0.00004  0.00002  0.00001  1.0000
  Cl  Cl2       1.0  0.66700  0.33300  0.33300  1.0000
  Cl  Cl3       1.0  0.33300  0.66700  0.66700  1.0000
  La  La1       1.0  0.66700  0.33300  0.10200  1.0000
  La  La2       1.0  0.00000  0.00000  0.23100  1.0000
  La  La3       1.0  0.33300  0.66700  0.43600  1.0000
  La  La4       1.0  0.66700  0.33300  0.56400  1.0000
  La  La5       1.0  0.00001  0.00001  0.76900  1.0000
  La  La6       1.0  0.33300  0.66700  0.89800  1.0000
