data_image0
_chemical_formula_structural       Ce2Ni8Sn4
_chemical_formula_sum              "Ce2 Ni8 Sn4"
_cell_length_a       6.76072
_cell_length_b       6.76072
_cell_length_c       6.76072
_cell_angle_alpha    109.965
_cell_angle_beta     108.489
_cell_angle_gamma    109.965

_space_group_name_H-M_alt    "P 1"
_space_group_IT_number       1

loop_
  _space_group_symop_operation_xyz
  'x, y, z'

loop_
  _atom_site_type_symbol
  _atom_site_label
  _atom_site_symmetry_multiplicity
  _atom_site_fract_x
  _atom_site_fract_y
  _atom_site_fract_z
  _atom_site_occupancy
  Ce  Ce1       1.0  0.50000  0.50000  0.00000  1.0000
  Ce  Ce2       1.0  0.00000  0.50000  0.50000  1.0000
  Ni  Ni1       1.0  0.77700  0.00162  0.05130  1.0000
  Ni  Ni2       1.0  0.22500  0.27500  0.22300  1.0000
  Ni  Ni3       1.0  0.27700  0.72500  0.27500  1.0000
  Ni  Ni4       1.0  0.72500  0.00162  0.45000  1.0000
  Ni  Ni5       1.0  0.55000  0.27500  0.55100  1.0000
  Ni  Ni6       1.0  0.44900  0.99800  0.72300  1.0000
  Ni  Ni7       1.0  0.04970  0.99800  0.77500  1.0000
  Ni  Ni8       1.0  0.94900  0.72500  0.95000  1.0000
  Sn  Sn1       1.0  0.41000  0.00000  0.09020  1.0000
  Sn  Sn2       1.0  0.09020  0.00000  0.41000  1.0000
  Sn  Sn3       1.0  0.59000  0.68000  0.59000  1.0000
  Sn  Sn4       1.0  0.91000  0.32000  0.91000  1.0000
