data_image0
_chemical_formula_structural       C8Fe2Lu4
_chemical_formula_sum              "C8 Fe2 Lu4"
_cell_length_a       4.92817
_cell_length_b       6.42492
_cell_length_c       6.42492
_cell_angle_alpha    70.6351
_cell_angle_beta     112.552
_cell_angle_gamma    112.552

_space_group_name_H-M_alt    "P 1"
_space_group_IT_number       1

loop_
  _space_group_symop_operation_xyz
  'x, y, z'

loop_
  _atom_site_type_symbol
  _atom_site_label
  _atom_site_symmetry_multiplicity
  _atom_site_fract_x
  _atom_site_fract_y
  _atom_site_fract_z
  _atom_site_occupancy
  C   C1        1.0  0.42200  0.75300  0.09040  1.0000
  C   C2        1.0  0.37000  0.52800  0.21100  1.0000
  C   C3        1.0  0.07810  0.91000  0.24700  1.0000
  C   C4        1.0  0.13000  0.78900  0.47200  1.0000
  C   C5        1.0  0.87000  0.21100  0.52800  1.0000
  C   C6        1.0  0.92200  0.09040  0.75300  1.0000
  C   C7        1.0  0.63000  0.47200  0.78900  1.0000
  C   C8        1.0  0.57800  0.24700  0.91000  1.0000
  Fe  Fe1       1.0  0.25000  0.00000  0.00000  1.0000
  Fe  Fe2       1.0  0.75000  0.00000  0.00000  1.0000
  Lu  Lu1       1.0  0.85400  0.50800  0.20100  1.0000
  Lu  Lu2       1.0  0.64600  0.79900  0.49200  1.0000
  Lu  Lu3       1.0  0.35400  0.20100  0.50800  1.0000
  Lu  Lu4       1.0  0.14600  0.49200  0.79900  1.0000
