data_image0
_chemical_formula_structural       Cu8Eu2Sn4
_chemical_formula_sum              "Cu8 Eu2 Sn4"
_cell_length_a       6.91299
_cell_length_b       6.91299
_cell_length_c       6.91299
_cell_angle_alpha    111.182
_cell_angle_beta     108.623
_cell_angle_gamma    108.623

_space_group_name_H-M_alt    "P 1"
_space_group_IT_number       1

loop_
  _space_group_symop_operation_xyz
  'x, y, z'

loop_
  _atom_site_type_symbol
  _atom_site_label
  _atom_site_symmetry_multiplicity
  _atom_site_fract_x
  _atom_site_fract_y
  _atom_site_fract_z
  _atom_site_occupancy
  Cu  Cu1       1.0  0.50000  0.79900  0.02570  1.0000
  Cu  Cu2       1.0  0.22700  0.70100  0.20100  1.0000
  Cu  Cu3       1.0  0.50000  0.52600  0.29900  1.0000
  Cu  Cu4       1.0  0.77300  0.97400  0.47400  1.0000
  Cu  Cu5       1.0  0.22700  0.02570  0.52600  1.0000
  Cu  Cu6       1.0  0.50000  0.47400  0.70100  1.0000
  Cu  Cu7       1.0  0.77300  0.29900  0.79900  1.0000
  Cu  Cu8       1.0  0.50000  0.20100  0.97400  1.0000
  Eu  Eu1       1.0  0.00000  0.25000  0.25000  1.0000
  Eu  Eu2       1.0  0.00000  0.75000  0.75000  1.0000
  Sn  Sn1       1.0  0.82400  0.66200  0.16200  1.0000
  Sn  Sn2       1.0  0.50000  0.16200  0.33800  1.0000
  Sn  Sn3       1.0  0.50000  0.83800  0.66200  1.0000
  Sn  Sn4       1.0  0.17600  0.33800  0.83800  1.0000
