data_image0
_chemical_formula_structural       Ca10Pd4
_chemical_formula_sum              "Ca10 Pd4"
_cell_length_a       6.6654
_cell_length_b       7.6691
_cell_length_c       8.92427
_cell_angle_alpha    96.783
_cell_angle_beta     111.928
_cell_angle_gamma    90

_space_group_name_H-M_alt    "P 1"
_space_group_IT_number       1

loop_
  _space_group_symop_operation_xyz
  'x, y, z'

loop_
  _atom_site_type_symbol
  _atom_site_label
  _atom_site_symmetry_multiplicity
  _atom_site_fract_x
  _atom_site_fract_y
  _atom_site_fract_z
  _atom_site_occupancy
  Ca  Ca1       1.0  0.41500  0.75000  0.00000  1.0000
  Ca  Ca2       1.0  0.58500  0.25000  0.00000  1.0000
  Ca  Ca3       1.0  0.20100  0.42000  0.18400  1.0000
  Ca  Ca4       1.0  0.98200  0.92000  0.18400  1.0000
  Ca  Ca5       1.0  0.64000  0.81700  0.43700  1.0000
  Ca  Ca6       1.0  0.79800  0.31700  0.43700  1.0000
  Ca  Ca7       1.0  0.20200  0.68300  0.56300  1.0000
  Ca  Ca8       1.0  0.36000  0.18300  0.56300  1.0000
  Ca  Ca9       1.0  0.79900  0.58000  0.81600  1.0000
  Ca  Ca10      1.0  0.01760  0.07960  0.81600  1.0000
  Pd  Pd1       1.0  0.81400  0.57900  0.21800  1.0000
  Pd  Pd2       1.0  0.40400  0.07930  0.21800  1.0000
  Pd  Pd3       1.0  0.59600  0.92100  0.78200  1.0000
  Pd  Pd4       1.0  0.18600  0.42100  0.78200  1.0000
