data_image0
_chemical_formula_structural       Cd2S8Y4
_chemical_formula_sum              "Cd2 S8 Y4"
_cell_length_a       7.97348
_cell_length_b       7.97348
_cell_length_c       7.97348
_cell_angle_alpha    120
_cell_angle_beta     90
_cell_angle_gamma    120

_space_group_name_H-M_alt    "P 1"
_space_group_IT_number       1

loop_
  _space_group_symop_operation_xyz
  'x, y, z'

loop_
  _atom_site_type_symbol
  _atom_site_label
  _atom_site_symmetry_multiplicity
  _atom_site_fract_x
  _atom_site_fract_y
  _atom_site_fract_z
  _atom_site_occupancy
  Cd  Cd1       1.0  0.37500  0.75000  0.12500  1.0000
  Cd  Cd2       1.0  0.62500  0.25000  0.87500  1.0000
  S   S1        1.0  0.24300  0.01420  0.25700  1.0000
  S   S2        1.0  0.24300  0.48600  0.25700  1.0000
  S   S3        1.0  0.77100  0.01420  0.25700  1.0000
  S   S4        1.0  0.75700  0.51400  0.27100  1.0000
  S   S5        1.0  0.24300  0.48600  0.72900  1.0000
  S   S6        1.0  0.75700  0.51400  0.74300  1.0000
  S   S7        1.0  0.75700  0.98600  0.74300  1.0000
  S   S8        1.0  0.22900  0.98600  0.74300  1.0000
  Y   Y1        1.0  0.00000  0.00000  0.00000  1.0000
  Y   Y2        1.0  0.00000  0.00000  0.50000  1.0000
  Y   Y3        1.0  0.00000  0.50000  0.50000  1.0000
  Y   Y4        1.0  0.50000  0.50000  0.50000  1.0000
