data_image0
_chemical_formula_structural       Cr5KSe8
_chemical_formula_sum              "Cr5 K1 Se8"
_cell_length_a       3.69028
_cell_length_b       9.06041
_cell_length_c       9.69188
_cell_angle_alpha    105.005
_cell_angle_beta     100.975
_cell_angle_gamma    90

_space_group_name_H-M_alt    "P 1"
_space_group_IT_number       1

loop_
  _space_group_symop_operation_xyz
  'x, y, z'

loop_
  _atom_site_type_symbol
  _atom_site_label
  _atom_site_symmetry_multiplicity
  _atom_site_fract_x
  _atom_site_fract_y
  _atom_site_fract_z
  _atom_site_occupancy
  Cr  Cr1       1.0  0.00000  0.00000  0.00000  1.0000
  Cr  Cr2       1.0  0.65800  0.97500  0.31600  1.0000
  Cr  Cr3       1.0  0.70400  0.33300  0.40800  1.0000
  Cr  Cr4       1.0  0.29600  0.66700  0.59200  1.0000
  Cr  Cr5       1.0  0.34200  0.02490  0.68400  1.0000
  K   K1        1.0  0.50000  0.50000  0.00000  1.0000
  Se  Se1       1.0  0.57600  0.15200  0.15200  1.0000
  Se  Se2       1.0  0.08460  0.82400  0.16900  1.0000
  Se  Se3       1.0  0.17100  0.48900  0.34200  1.0000
  Se  Se4       1.0  0.23800  0.15600  0.47600  1.0000
  Se  Se5       1.0  0.76200  0.84400  0.52400  1.0000
  Se  Se6       1.0  0.82900  0.51100  0.65800  1.0000
  Se  Se7       1.0  0.91500  0.17600  0.83100  1.0000
  Se  Se8       1.0  0.42400  0.84800  0.84800  1.0000
