data_image0
_chemical_formula_structural       La6Sn8
_chemical_formula_sum              "La6 Sn8"
_cell_length_a       4.54214
_cell_length_b       6.39948
_cell_length_c       15.9505
_cell_angle_alpha    90
_cell_angle_beta     90
_cell_angle_gamma    69.2137

_space_group_name_H-M_alt    "P 1"
_space_group_IT_number       1

loop_
  _space_group_symop_operation_xyz
  'x, y, z'

loop_
  _atom_site_type_symbol
  _atom_site_label
  _atom_site_symmetry_multiplicity
  _atom_site_fract_x
  _atom_site_fract_y
  _atom_site_fract_z
  _atom_site_occupancy
  La  La1       1.0  0.67200  0.65700  0.09770  1.0000
  La  La2       1.0  0.95800  0.08480  0.25000  1.0000
  La  La3       1.0  0.67200  0.65700  0.40200  1.0000
  La  La4       1.0  0.32800  0.34300  0.59800  1.0000
  La  La5       1.0  0.04240  0.91500  0.75000  1.0000
  La  La6       1.0  0.32800  0.34300  0.90200  1.0000
  Sn  Sn1       1.0  0.00000  0.00000  0.00000  1.0000
  Sn  Sn2       1.0  0.38300  0.23300  0.10700  1.0000
  Sn  Sn3       1.0  0.22800  0.54500  0.25000  1.0000
  Sn  Sn4       1.0  0.38300  0.23300  0.39300  1.0000
  Sn  Sn5       1.0  0.00000  0.00000  0.50000  1.0000
  Sn  Sn6       1.0  0.61700  0.76700  0.60700  1.0000
  Sn  Sn7       1.0  0.77200  0.45500  0.75000  1.0000
  Sn  Sn8       1.0  0.61700  0.76700  0.89300  1.0000
