data_image0
_chemical_formula_structural       Cr5RbTe8
_chemical_formula_sum              "Cr5 Rb1 Te8"
_cell_length_a       3.99364
_cell_length_b       9.6151
_cell_length_c       10.4076
_cell_angle_alpha    104.034
_cell_angle_beta     101.061
_cell_angle_gamma    90

_space_group_name_H-M_alt    "P 1"
_space_group_IT_number       1

loop_
  _space_group_symop_operation_xyz
  'x, y, z'

loop_
  _atom_site_type_symbol
  _atom_site_label
  _atom_site_symmetry_multiplicity
  _atom_site_fract_x
  _atom_site_fract_y
  _atom_site_fract_z
  _atom_site_occupancy
  Cr  Cr1       1.0  0.00000  0.00000  0.00000  1.0000
  Cr  Cr2       1.0  0.65900  0.98700  0.31800  1.0000
  Cr  Cr3       1.0  0.70400  0.33100  0.40900  1.0000
  Cr  Cr4       1.0  0.29600  0.66900  0.59100  1.0000
  Cr  Cr5       1.0  0.34100  0.01290  0.68200  1.0000
  Rb  Rb1       1.0  0.50000  0.50000  1.00000  1.0000
  Te  Te1       1.0  0.57300  0.16200  0.14500  1.0000
  Te  Te2       1.0  0.08870  0.83000  0.17700  1.0000
  Te  Te3       1.0  0.17100  0.49200  0.34100  1.0000
  Te  Te4       1.0  0.24000  0.15800  0.47900  1.0000
  Te  Te5       1.0  0.76000  0.84200  0.52100  1.0000
  Te  Te6       1.0  0.82900  0.50800  0.65900  1.0000
  Te  Te7       1.0  0.91100  0.17000  0.82300  1.0000
  Te  Te8       1.0  0.42700  0.83800  0.85500  1.0000
