data_image0
_chemical_formula_structural       Al12Fe2
_chemical_formula_sum              "Al12 Fe2"
_cell_length_a       4.9234
_cell_length_b       4.9234
_cell_length_c       8.75378
_cell_angle_alpha    90
_cell_angle_beta     90
_cell_angle_gamma    82.1933

_space_group_name_H-M_alt    "P 1"
_space_group_IT_number       1

loop_
  _space_group_symop_operation_xyz
  'x, y, z'

loop_
  _atom_site_type_symbol
  _atom_site_label
  _atom_site_symmetry_multiplicity
  _atom_site_fract_x
  _atom_site_fract_y
  _atom_site_fract_z
  _atom_site_occupancy
  Al  Al1       1.0  0.32300  0.32200  0.00000  1.0000
  Al  Al2       1.0  0.67800  0.67700  0.00000  1.0000
  Al  Al3       1.0  0.85300  0.14700  0.09880  1.0000
  Al  Al4       1.0  0.02790  0.60900  0.25000  1.0000
  Al  Al5       1.0  0.39100  0.97200  0.25000  1.0000
  Al  Al6       1.0  0.85200  0.14800  0.40200  1.0000
  Al  Al7       1.0  0.32200  0.32300  0.50000  1.0000
  Al  Al8       1.0  0.67700  0.67800  0.50000  1.0000
  Al  Al9       1.0  0.14700  0.85300  0.59900  1.0000
  Al  Al10      1.0  0.60900  0.02790  0.75000  1.0000
  Al  Al11      1.0  0.97200  0.39100  0.75000  1.0000
  Al  Al12      1.0  0.14800  0.85200  0.90200  1.0000
  Fe  Fe1       1.0  0.53900  0.46100  0.25000  1.0000
  Fe  Fe2       1.0  0.46100  0.53900  0.75000  1.0000
