data_image0
_chemical_formula_structural       B4Ni2O8
_chemical_formula_sum              "B4 Ni2 O8"
_cell_length_a       4.42171
_cell_length_b       5.35504
_cell_length_c       5.35504
_cell_angle_alpha    61.8125
_cell_angle_beta     105.622
_cell_angle_gamma    105.622

_space_group_name_H-M_alt    "P 1"
_space_group_IT_number       1

loop_
  _space_group_symop_operation_xyz
  'x, y, z'

loop_
  _atom_site_type_symbol
  _atom_site_label
  _atom_site_symmetry_multiplicity
  _atom_site_fract_x
  _atom_site_fract_y
  _atom_site_fract_z
  _atom_site_occupancy
  B   B1        1.0  0.37000  0.29200  0.07660  1.0000
  B   B2        1.0  0.87000  0.07660  0.29200  1.0000
  B   B3        1.0  0.13000  0.92300  0.70800  1.0000
  B   B4        1.0  0.63000  0.70800  0.92300  1.0000
  Ni  Ni1       1.0  0.25000  0.65000  0.35000  1.0000
  Ni  Ni2       1.0  0.75000  0.35000  0.65000  1.0000
  O   O1        1.0  0.02750  0.22900  0.04370  1.0000
  O   O2        1.0  0.52000  0.50500  0.20800  1.0000
  O   O3        1.0  0.52700  0.04370  0.22900  1.0000
  O   O4        1.0  0.98000  0.79200  0.49500  1.0000
  O   O5        1.0  0.01970  0.20800  0.50500  1.0000
  O   O6        1.0  0.47300  0.95600  0.77100  1.0000
  O   O7        1.0  0.48000  0.49500  0.79200  1.0000
  O   O8        1.0  0.97300  0.77100  0.95600  1.0000
