data_image0
_chemical_formula_structural       K2La2Se8Si2
_chemical_formula_sum              "K2 La2 Se8 Si2"
_cell_length_a       6.88511
_cell_length_b       7.0332
_cell_length_c       9.17009
_cell_angle_alpha    90
_cell_angle_beta     108.109
_cell_angle_gamma    90

_space_group_name_H-M_alt    "P 1"
_space_group_IT_number       1

loop_
  _space_group_symop_operation_xyz
  'x, y, z'

loop_
  _atom_site_type_symbol
  _atom_site_label
  _atom_site_symmetry_multiplicity
  _atom_site_fract_x
  _atom_site_fract_y
  _atom_site_fract_z
  _atom_site_occupancy
  K   K1        1.0  0.26600  0.01280  0.06370  1.0000
  K   K2        1.0  0.73400  0.51300  0.93600  1.0000
  La  La1       1.0  0.76900  0.50000  0.44800  1.0000
  La  La2       1.0  0.23100  0.00000  0.55200  1.0000
  Se  Se1       1.0  0.40800  0.53100  0.15700  1.0000
  Se  Se2       1.0  0.97500  0.77000  0.26700  1.0000
  Se  Se3       1.0  0.01330  0.26200  0.28000  1.0000
  Se  Se4       1.0  0.59400  0.07140  0.43100  1.0000
  Se  Se5       1.0  0.40600  0.57100  0.56900  1.0000
  Se  Se6       1.0  0.98700  0.76200  0.72000  1.0000
  Se  Se7       1.0  0.02470  0.27000  0.73300  1.0000
  Se  Se8       1.0  0.59200  0.03130  0.84300  1.0000
  Si  Si1       1.0  0.21400  0.53100  0.31600  1.0000
  Si  Si2       1.0  0.78600  0.03060  0.68400  1.0000
