data_image0
_chemical_formula_structural       C8Fe2Y4
_chemical_formula_sum              "C8 Fe2 Y4"
_cell_length_a       5.03316
_cell_length_b       6.5986
_cell_length_c       6.5986
_cell_angle_alpha    69.0877
_cell_angle_beta     112.419
_cell_angle_gamma    112.419

_space_group_name_H-M_alt    "P 1"
_space_group_IT_number       1

loop_
  _space_group_symop_operation_xyz
  'x, y, z'

loop_
  _atom_site_type_symbol
  _atom_site_label
  _atom_site_symmetry_multiplicity
  _atom_site_fract_x
  _atom_site_fract_y
  _atom_site_fract_z
  _atom_site_occupancy
  C   C1        1.0  0.92200  0.75800  0.08660  1.0000
  C   C2        1.0  0.87200  0.53600  0.20800  1.0000
  C   C3        1.0  0.57800  0.91300  0.24200  1.0000
  C   C4        1.0  0.62800  0.79200  0.46400  1.0000
  C   C5        1.0  0.37200  0.20800  0.53600  1.0000
  C   C6        1.0  0.42200  0.08660  0.75800  1.0000
  C   C7        1.0  0.12800  0.46400  0.79200  1.0000
  C   C8        1.0  0.07780  0.24200  0.91300  1.0000
  Fe  Fe1       1.0  0.25000  0.00000  0.00000  1.0000
  Fe  Fe2       1.0  0.75000  0.00000  0.00000  1.0000
  Y   Y1        1.0  0.35600  0.51200  0.19900  1.0000
  Y   Y2        1.0  0.14400  0.80100  0.48800  1.0000
  Y   Y3        1.0  0.85600  0.19900  0.51200  1.0000
  Y   Y4        1.0  0.64400  0.48800  0.80100  1.0000
