data_image0
_chemical_formula_structural       NaSe8Ti5
_chemical_formula_sum              "Na1 Se8 Ti5"
_cell_length_a       3.55828
_cell_length_b       9.13359
_cell_length_c       9.55388
_cell_angle_alpha    104.927
_cell_angle_beta     100.732
_cell_angle_gamma    90

_space_group_name_H-M_alt    "P 1"
_space_group_IT_number       1

loop_
  _space_group_symop_operation_xyz
  'x, y, z'

loop_
  _atom_site_type_symbol
  _atom_site_label
  _atom_site_symmetry_multiplicity
  _atom_site_fract_x
  _atom_site_fract_y
  _atom_site_fract_z
  _atom_site_occupancy
  Na  Na1       1.0  0.50000  0.50000  1.00000  1.0000
  Se  Se1       1.0  0.57400  0.17800  0.14800  1.0000
  Se  Se2       1.0  0.08280  0.81000  0.16600  1.0000
  Se  Se3       1.0  0.15800  0.49700  0.31700  1.0000
  Se  Se4       1.0  0.24200  0.16000  0.48400  1.0000
  Se  Se5       1.0  0.75800  0.84000  0.51600  1.0000
  Se  Se6       1.0  0.84200  0.50300  0.68300  1.0000
  Se  Se7       1.0  0.91700  0.19000  0.83400  1.0000
  Se  Se8       1.0  0.42600  0.82200  0.85200  1.0000
  Ti  Ti1       1.0  0.00000  0.00000  0.00000  1.0000
  Ti  Ti2       1.0  0.65100  0.99300  0.30100  1.0000
  Ti  Ti3       1.0  0.71000  0.35000  0.42000  1.0000
  Ti  Ti4       1.0  0.29000  0.65000  0.58000  1.0000
  Ti  Ti5       1.0  0.34900  0.00653  0.69900  1.0000
