data_image0
_chemical_formula_structural       RbSe8Ti5
_chemical_formula_sum              "Rb1 Se8 Ti5"
_cell_length_a       3.59945
_cell_length_b       9.27591
_cell_length_c       9.59983
_cell_angle_alpha    104.266
_cell_angle_beta     100.805
_cell_angle_gamma    90

_space_group_name_H-M_alt    "P 1"
_space_group_IT_number       1

loop_
  _space_group_symop_operation_xyz
  'x, y, z'

loop_
  _atom_site_type_symbol
  _atom_site_label
  _atom_site_symmetry_multiplicity
  _atom_site_fract_x
  _atom_site_fract_y
  _atom_site_fract_z
  _atom_site_occupancy
  Rb  Rb1       1.0  0.50000  0.50000  1.00000  1.0000
  Se  Se1       1.0  0.57400  0.17400  0.14800  1.0000
  Se  Se2       1.0  0.08830  0.82600  0.17700  1.0000
  Se  Se3       1.0  0.16100  0.49800  0.32300  1.0000
  Se  Se4       1.0  0.24400  0.16700  0.48800  1.0000
  Se  Se5       1.0  0.75600  0.83300  0.51200  1.0000
  Se  Se6       1.0  0.83900  0.50200  0.67700  1.0000
  Se  Se7       1.0  0.91200  0.17400  0.82300  1.0000
  Se  Se8       1.0  0.42600  0.82600  0.85200  1.0000
  Ti  Ti1       1.0  0.00000  0.00000  0.00000  1.0000
  Ti  Ti2       1.0  0.65700  0.00132  0.31500  1.0000
  Ti  Ti3       1.0  0.70800  0.34900  0.41700  1.0000
  Ti  Ti4       1.0  0.29200  0.65100  0.58300  1.0000
  Ti  Ti5       1.0  0.34300  0.99900  0.68500  1.0000
