data_image0
_chemical_formula_structural       Cr5KTe8
_chemical_formula_sum              "Cr5 K1 Te8"
_cell_length_a       4.00799
_cell_length_b       9.59668
_cell_length_c       10.435
_cell_angle_alpha    104.327
_cell_angle_beta     101.072
_cell_angle_gamma    90

_space_group_name_H-M_alt    "P 1"
_space_group_IT_number       1

loop_
  _space_group_symop_operation_xyz
  'x, y, z'

loop_
  _atom_site_type_symbol
  _atom_site_label
  _atom_site_symmetry_multiplicity
  _atom_site_fract_x
  _atom_site_fract_y
  _atom_site_fract_z
  _atom_site_occupancy
  Cr  Cr1       1.0  0.00000  0.00000  0.00000  1.0000
  Cr  Cr2       1.0  0.65800  0.98300  0.31600  1.0000
  Cr  Cr3       1.0  0.70400  0.33000  0.40900  1.0000
  Cr  Cr4       1.0  0.29600  0.67000  0.59100  1.0000
  Cr  Cr5       1.0  0.34200  0.01660  0.68400  1.0000
  K   K1        1.0  0.50000  0.50000  0.00000  1.0000
  Te  Te1       1.0  0.57300  0.16100  0.14600  1.0000
  Te  Te2       1.0  0.08710  0.82600  0.17400  1.0000
  Te  Te3       1.0  0.17100  0.49100  0.34200  1.0000
  Te  Te4       1.0  0.23900  0.15600  0.47800  1.0000
  Te  Te5       1.0  0.76100  0.84400  0.52200  1.0000
  Te  Te6       1.0  0.82900  0.50900  0.65800  1.0000
  Te  Te7       1.0  0.91300  0.17400  0.82600  1.0000
  Te  Te8       1.0  0.42700  0.83900  0.85400  1.0000
