data_image0
_chemical_formula_structural       C8Fe2Tb4
_chemical_formula_sum              "C8 Fe2 Tb4"
_cell_length_a       5.05185
_cell_length_b       6.61473
_cell_length_c       6.61473
_cell_angle_alpha    68.8962
_cell_angle_beta     112.449
_cell_angle_gamma    112.449

_space_group_name_H-M_alt    "P 1"
_space_group_IT_number       1

loop_
  _space_group_symop_operation_xyz
  'x, y, z'

loop_
  _atom_site_type_symbol
  _atom_site_label
  _atom_site_symmetry_multiplicity
  _atom_site_fract_x
  _atom_site_fract_y
  _atom_site_fract_z
  _atom_site_occupancy
  C   C1        1.0  0.92200  0.75800  0.08620  1.0000
  C   C2        1.0  0.87200  0.53600  0.20900  1.0000
  C   C3        1.0  0.57800  0.91400  0.24200  1.0000
  C   C4        1.0  0.62800  0.79100  0.46400  1.0000
  C   C5        1.0  0.37200  0.20900  0.53600  1.0000
  C   C6        1.0  0.42200  0.08620  0.75800  1.0000
  C   C7        1.0  0.12800  0.46400  0.79100  1.0000
  C   C8        1.0  0.07810  0.24200  0.91400  1.0000
  Fe  Fe1       1.0  0.25000  0.00000  0.00000  1.0000
  Fe  Fe2       1.0  0.75000  0.00000  0.00000  1.0000
  Tb  Tb1       1.0  0.35600  0.51300  0.19800  1.0000
  Tb  Tb2       1.0  0.14400  0.80200  0.48700  1.0000
  Tb  Tb3       1.0  0.85600  0.19800  0.51300  1.0000
  Tb  Tb4       1.0  0.64400  0.48700  0.80200  1.0000
