data_image0
_chemical_formula_structural       Ca2Ni8Sn4
_chemical_formula_sum              "Ca2 Ni8 Sn4"
_cell_length_a       6.70992
_cell_length_b       6.70992
_cell_length_c       6.70992
_cell_angle_alpha    110.132
_cell_angle_beta     108.157
_cell_angle_gamma    110.132

_space_group_name_H-M_alt    "P 1"
_space_group_IT_number       1

loop_
  _space_group_symop_operation_xyz
  'x, y, z'

loop_
  _atom_site_type_symbol
  _atom_site_label
  _atom_site_symmetry_multiplicity
  _atom_site_fract_x
  _atom_site_fract_y
  _atom_site_fract_z
  _atom_site_occupancy
  Ca  Ca1       1.0  0.25000  0.00000  0.25000  1.0000
  Ca  Ca2       1.0  0.75000  0.00000  0.75000  1.0000
  Ni  Ni1       1.0  0.80500  0.50000  0.02540  1.0000
  Ni  Ni2       1.0  0.69500  0.22100  0.19500  1.0000
  Ni  Ni3       1.0  0.52500  0.50000  0.30500  1.0000
  Ni  Ni4       1.0  0.97500  0.77900  0.47500  1.0000
  Ni  Ni5       1.0  0.02540  0.22100  0.52500  1.0000
  Ni  Ni6       1.0  0.47500  0.50000  0.69500  1.0000
  Ni  Ni7       1.0  0.30500  0.77900  0.80500  1.0000
  Ni  Ni8       1.0  0.19500  0.50000  0.97500  1.0000
  Sn  Sn1       1.0  0.65900  0.81700  0.15900  1.0000
  Sn  Sn2       1.0  0.15900  0.50000  0.34100  1.0000
  Sn  Sn3       1.0  0.84100  0.50000  0.65900  1.0000
  Sn  Sn4       1.0  0.34100  0.18300  0.84100  1.0000
