data_image0
_chemical_formula_structural       Ce6Pt8
_chemical_formula_sum              "Ce6 Pt8"
_cell_length_a       5.86993
_cell_length_b       8.22548
_cell_length_c       8.22548
_cell_angle_alpha    114.527
_cell_angle_beta     103.761
_cell_angle_gamma    103.761

_space_group_name_H-M_alt    "P 1"
_space_group_IT_number       1

loop_
  _space_group_symop_operation_xyz
  'x, y, z'

loop_
  _atom_site_type_symbol
  _atom_site_label
  _atom_site_symmetry_multiplicity
  _atom_site_fract_x
  _atom_site_fract_y
  _atom_site_fract_z
  _atom_site_occupancy
  Ce  Ce1       1.0  0.71800  0.74700  0.12400  1.0000
  Ce  Ce2       1.0  0.97100  0.37700  0.25300  1.0000
  Ce  Ce3       1.0  0.40600  0.12400  0.37700  1.0000
  Ce  Ce4       1.0  0.59400  0.87600  0.62300  1.0000
  Ce  Ce5       1.0  0.02920  0.62300  0.74700  1.0000
  Ce  Ce6       1.0  0.28200  0.25300  0.87600  1.0000
  Pt  Pt1       1.0  0.00000  0.00000  0.00000  1.0000
  Pt  Pt2       1.0  0.50000  0.00000  0.00000  1.0000
  Pt  Pt3       1.0  0.22100  0.66700  0.16300  1.0000
  Pt  Pt4       1.0  0.55400  0.49600  0.33300  1.0000
  Pt  Pt5       1.0  0.94200  0.16300  0.49600  1.0000
  Pt  Pt6       1.0  0.05790  0.83700  0.50400  1.0000
  Pt  Pt7       1.0  0.44600  0.50400  0.66700  1.0000
  Pt  Pt8       1.0  0.77900  0.33300  0.83700  1.0000
