data_image0
_chemical_formula_structural       Cl2Ho2Mo2O8
_chemical_formula_sum              "Cl2 Ho2 Mo2 O8"
_cell_length_a       6.22907
_cell_length_b       6.22907
_cell_length_c       6.80202
_cell_angle_alpha    104.011
_cell_angle_beta     104.011
_cell_angle_gamma    70.6544

_space_group_name_H-M_alt    "P 1"
_space_group_IT_number       1

loop_
  _space_group_symop_operation_xyz
  'x, y, z'

loop_
  _atom_site_type_symbol
  _atom_site_label
  _atom_site_symmetry_multiplicity
  _atom_site_fract_x
  _atom_site_fract_y
  _atom_site_fract_z
  _atom_site_occupancy
  Cl  Cl1       1.0  0.99000  0.99000  0.23700  1.0000
  Cl  Cl2       1.0  0.00973  0.00973  0.76300  1.0000
  Ho  Ho1       1.0  0.22100  0.22100  0.11000  1.0000
  Ho  Ho2       1.0  0.77900  0.77900  0.89000  1.0000
  Mo  Mo1       1.0  0.63700  0.63700  0.26900  1.0000
  Mo  Mo2       1.0  0.36300  0.36300  0.73100  1.0000
  O   O1        1.0  0.89200  0.50700  0.15200  1.0000
  O   O2        1.0  0.50700  0.89200  0.15200  1.0000
  O   O3        1.0  0.45500  0.45500  0.20100  1.0000
  O   O4        1.0  0.29400  0.29400  0.46100  1.0000
  O   O5        1.0  0.70600  0.70600  0.53900  1.0000
  O   O6        1.0  0.54500  0.54500  0.79900  1.0000
  O   O7        1.0  0.49300  0.10800  0.84800  1.0000
  O   O8        1.0  0.10800  0.49300  0.84800  1.0000
