data_image0
_chemical_formula_structural       Mo6Rb2Te6
_chemical_formula_sum              "Mo6 Rb2 Te6"
_cell_length_a       9.99995
_cell_length_b       9.99874
_cell_length_c       4.61988
_cell_angle_alpha    90
_cell_angle_beta     90
_cell_angle_gamma    120.008

_space_group_name_H-M_alt    "P 1"
_space_group_IT_number       1

loop_
  _space_group_symop_operation_xyz
  'x, y, z'

loop_
  _atom_site_type_symbol
  _atom_site_label
  _atom_site_symmetry_multiplicity
  _atom_site_fract_x
  _atom_site_fract_y
  _atom_site_fract_z
  _atom_site_occupancy
  Mo  Mo1       1.0  0.83600  0.97600  0.25000  1.0000
  Mo  Mo2       1.0  0.14100  0.16400  0.25000  1.0000
  Mo  Mo3       1.0  0.02370  0.85900  0.25000  1.0000
  Mo  Mo4       1.0  0.16400  0.02380  0.75000  1.0000
  Mo  Mo5       1.0  0.97600  0.14100  0.75000  1.0000
  Mo  Mo6       1.0  0.85900  0.83600  0.75000  1.0000
  Rb  Rb1       1.0  0.33300  0.66700  0.25000  1.0000
  Rb  Rb2       1.0  0.66700  0.33300  0.75000  1.0000
  Te  Te1       1.0  0.35000  0.04950  0.25000  1.0000
  Te  Te2       1.0  0.95100  0.30000  0.25000  1.0000
  Te  Te3       1.0  0.70000  0.65000  0.25000  1.0000
  Te  Te4       1.0  0.65000  0.95100  0.75000  1.0000
  Te  Te5       1.0  0.30000  0.35000  0.75000  1.0000
  Te  Te6       1.0  0.04940  0.70000  0.75000  1.0000
