data_image0
_chemical_formula_structural       P6Ti8
_chemical_formula_sum              "P6 Ti8"
_cell_length_a       6.42123
_cell_length_b       6.42123
_cell_length_c       6.42123
_cell_angle_alpha    109.471
_cell_angle_beta     109.471
_cell_angle_gamma    109.471

_space_group_name_H-M_alt    "P 1"
_space_group_IT_number       1

loop_
  _space_group_symop_operation_xyz
  'x, y, z'

loop_
  _atom_site_type_symbol
  _atom_site_label
  _atom_site_symmetry_multiplicity
  _atom_site_fract_x
  _atom_site_fract_y
  _atom_site_fract_z
  _atom_site_occupancy
  P   P1        1.0  0.87500  0.75000  0.12500  1.0000
  P   P2        1.0  0.12500  0.37500  0.25000  1.0000
  P   P3        1.0  0.62500  0.25000  0.37500  1.0000
  P   P4        1.0  0.75000  0.87500  0.62500  1.0000
  P   P5        1.0  0.37500  0.12500  0.75000  1.0000
  P   P6        1.0  0.25000  0.62500  0.87500  1.0000
  Ti  Ti1       1.0  0.14000  0.00000  0.00000  1.0000
  Ti  Ti2       1.0  0.64000  0.00000  0.00000  1.0000
  Ti  Ti3       1.0  0.50000  0.50000  0.14000  1.0000
  Ti  Ti4       1.0  0.36000  0.86000  0.36000  1.0000
  Ti  Ti5       1.0  0.00000  0.64000  0.50000  1.0000
  Ti  Ti6       1.0  0.00000  0.14000  0.50000  1.0000
  Ti  Ti7       1.0  0.50000  0.50000  0.64000  1.0000
  Ti  Ti8       1.0  0.86000  0.36000  0.86000  1.0000
