data_image0
_chemical_formula_structural       Cl2Gd2Mo2O8
_chemical_formula_sum              "Cl2 Gd2 Mo2 O8"
_cell_length_a       6.29023
_cell_length_b       6.29023
_cell_length_c       6.85146
_cell_angle_alpha    103.852
_cell_angle_beta     103.852
_cell_angle_gamma    70.9009

_space_group_name_H-M_alt    "P 1"
_space_group_IT_number       1

loop_
  _space_group_symop_operation_xyz
  'x, y, z'

loop_
  _atom_site_type_symbol
  _atom_site_label
  _atom_site_symmetry_multiplicity
  _atom_site_fract_x
  _atom_site_fract_y
  _atom_site_fract_z
  _atom_site_occupancy
  Cl  Cl1       1.0  0.99000  0.99000  0.24000  1.0000
  Cl  Cl2       1.0  0.00963  0.00963  0.76000  1.0000
  Gd  Gd1       1.0  0.22000  0.22000  0.10800  1.0000
  Gd  Gd2       1.0  0.78000  0.78000  0.89200  1.0000
  Mo  Mo1       1.0  0.63700  0.63700  0.26900  1.0000
  Mo  Mo2       1.0  0.36300  0.36300  0.73100  1.0000
  O   O1        1.0  0.88800  0.50900  0.15200  1.0000
  O   O2        1.0  0.50900  0.88800  0.15200  1.0000
  O   O3        1.0  0.45700  0.45700  0.20300  1.0000
  O   O4        1.0  0.29300  0.29300  0.46400  1.0000
  O   O5        1.0  0.70700  0.70700  0.53600  1.0000
  O   O6        1.0  0.54300  0.54300  0.79700  1.0000
  O   O7        1.0  0.49100  0.11200  0.84800  1.0000
  O   O8        1.0  0.11200  0.49100  0.84800  1.0000
