data_image0
_chemical_formula_structural       KS8V5
_chemical_formula_sum              "K1 S8 V5"
_cell_length_a       3.2593
_cell_length_b       8.46682
_cell_length_c       8.89896
_cell_angle_alpha    104.22
_cell_angle_beta     100.552
_cell_angle_gamma    90

_space_group_name_H-M_alt    "P 1"
_space_group_IT_number       1

loop_
  _space_group_symop_operation_xyz
  'x, y, z'

loop_
  _atom_site_type_symbol
  _atom_site_label
  _atom_site_symmetry_multiplicity
  _atom_site_fract_x
  _atom_site_fract_y
  _atom_site_fract_z
  _atom_site_occupancy
  K   K1        1.0  0.50000  0.50000  0.00000  1.0000
  S   S1        1.0  0.57400  0.18000  0.14800  1.0000
  S   S2        1.0  0.08500  0.81600  0.17000  1.0000
  S   S3        1.0  0.16100  0.50200  0.32100  1.0000
  S   S4        1.0  0.24100  0.15900  0.48200  1.0000
  S   S5        1.0  0.75900  0.84100  0.51800  1.0000
  S   S6        1.0  0.83900  0.49800  0.67900  1.0000
  S   S7        1.0  0.91500  0.18400  0.83000  1.0000
  S   S8        1.0  0.42600  0.82000  0.85200  1.0000
  V   V1        1.0  0.00000  0.00000  0.00000  1.0000
  V   V2        1.0  0.64700  0.99500  0.29400  1.0000
  V   V3        1.0  0.71100  0.35900  0.42200  1.0000
  V   V4        1.0  0.28900  0.64100  0.57800  1.0000
  V   V5        1.0  0.35300  0.00547  0.70600  1.0000
