data_image0
_chemical_formula_structural       Ag2Hf2Rb2Te6
_chemical_formula_sum              "Ag2 Hf2 Rb2 Te6"
_cell_length_a       9.07532
_cell_length_b       4.23238
_cell_length_c       10.9779
_cell_angle_alpha    90
_cell_angle_beta     111.86
_cell_angle_gamma    90

_space_group_name_H-M_alt    "P 1"
_space_group_IT_number       1

loop_
  _space_group_symop_operation_xyz
  'x, y, z'

loop_
  _atom_site_type_symbol
  _atom_site_label
  _atom_site_symmetry_multiplicity
  _atom_site_fract_x
  _atom_site_fract_y
  _atom_site_fract_z
  _atom_site_occupancy
  Ag  Ag1       1.0  0.92600  0.25000  0.39600  1.0000
  Ag  Ag2       1.0  0.07370  0.75000  0.60400  1.0000
  Hf  Hf1       1.0  0.69600  0.75000  0.16600  1.0000
  Hf  Hf2       1.0  0.30400  0.25000  0.83400  1.0000
  Rb  Rb1       1.0  0.25700  0.75000  0.28800  1.0000
  Rb  Rb2       1.0  0.74300  0.25000  0.71200  1.0000
  Te  Te1       1.0  0.45500  0.25000  0.12600  1.0000
  Te  Te2       1.0  0.90100  0.25000  0.13500  1.0000
  Te  Te3       1.0  0.73500  0.75000  0.43400  1.0000
  Te  Te4       1.0  0.26500  0.25000  0.56600  1.0000
  Te  Te5       1.0  0.09870  0.75000  0.86500  1.0000
  Te  Te6       1.0  0.54500  0.75000  0.87400  1.0000
