data_image0
_chemical_formula_structural       Cl2Mo2O8Sm2
_chemical_formula_sum              "Cl2 Mo2 O8 Sm2"
_cell_length_a       6.34579
_cell_length_b       6.34579
_cell_length_c       6.90045
_cell_angle_alpha    103.644
_cell_angle_beta     103.644
_cell_angle_gamma    71.049

_space_group_name_H-M_alt    "P 1"
_space_group_IT_number       1

loop_
  _space_group_symop_operation_xyz
  'x, y, z'

loop_
  _atom_site_type_symbol
  _atom_site_label
  _atom_site_symmetry_multiplicity
  _atom_site_fract_x
  _atom_site_fract_y
  _atom_site_fract_z
  _atom_site_occupancy
  Cl  Cl1       1.0  0.98900  0.98900  0.24100  1.0000
  Cl  Cl2       1.0  0.01070  0.01070  0.75900  1.0000
  Mo  Mo1       1.0  0.63700  0.63700  0.26900  1.0000
  Mo  Mo2       1.0  0.36300  0.36300  0.73100  1.0000
  O   O1        1.0  0.88500  0.50900  0.15100  1.0000
  O   O2        1.0  0.50900  0.88500  0.15100  1.0000
  O   O3        1.0  0.45900  0.45900  0.20700  1.0000
  O   O4        1.0  0.29300  0.29300  0.46700  1.0000
  O   O5        1.0  0.70700  0.70700  0.53300  1.0000
  O   O6        1.0  0.54100  0.54100  0.79300  1.0000
  O   O7        1.0  0.49100  0.11500  0.84900  1.0000
  O   O8        1.0  0.11500  0.49100  0.84900  1.0000
  Sm  Sm1       1.0  0.22000  0.22000  0.11000  1.0000
  Sm  Sm2       1.0  0.78000  0.78000  0.89000  1.0000
