data_image0
_chemical_formula_structural       Dy10Ir4
_chemical_formula_sum              "Dy10 Ir4"
_cell_length_a       6.46382
_cell_length_b       7.19094
_cell_length_c       8.52972
_cell_angle_alpha    96.6495
_cell_angle_beta     112.266
_cell_angle_gamma    90

_space_group_name_H-M_alt    "P 1"
_space_group_IT_number       1

loop_
  _space_group_symop_operation_xyz
  'x, y, z'

loop_
  _atom_site_type_symbol
  _atom_site_label
  _atom_site_symmetry_multiplicity
  _atom_site_fract_x
  _atom_site_fract_y
  _atom_site_fract_z
  _atom_site_occupancy
  Dy  Dy1       1.0  0.57100  0.25000  0.00000  1.0000
  Dy  Dy2       1.0  0.42900  0.75000  0.00000  1.0000
  Dy  Dy3       1.0  0.20800  0.41900  0.18500  1.0000
  Dy  Dy4       1.0  0.97700  0.91900  0.18500  1.0000
  Dy  Dy5       1.0  0.65000  0.81500  0.43900  1.0000
  Dy  Dy6       1.0  0.78900  0.31500  0.43900  1.0000
  Dy  Dy7       1.0  0.35000  0.18500  0.56100  1.0000
  Dy  Dy8       1.0  0.21100  0.68500  0.56100  1.0000
  Dy  Dy9       1.0  0.79200  0.58100  0.81500  1.0000
  Dy  Dy10      1.0  0.02300  0.08120  0.81500  1.0000
  Ir  Ir1       1.0  0.39700  0.07440  0.22100  1.0000
  Ir  Ir2       1.0  0.82400  0.57400  0.22100  1.0000
  Ir  Ir3       1.0  0.60300  0.92600  0.77900  1.0000
  Ir  Ir4       1.0  0.17600  0.42600  0.77900  1.0000
