data_image0
_chemical_formula_structural       Ge2K2Nd2S8
_chemical_formula_sum              "Ge2 K2 Nd2 S8"
_cell_length_a       6.65299
_cell_length_b       6.7306
_cell_length_c       8.76776
_cell_angle_alpha    90
_cell_angle_beta     107.215
_cell_angle_gamma    90

_space_group_name_H-M_alt    "P 1"
_space_group_IT_number       1

loop_
  _space_group_symop_operation_xyz
  'x, y, z'

loop_
  _atom_site_type_symbol
  _atom_site_label
  _atom_site_symmetry_multiplicity
  _atom_site_fract_x
  _atom_site_fract_y
  _atom_site_fract_z
  _atom_site_occupancy
  Ge  Ge1       1.0  0.22300  0.52700  0.32000  1.0000
  Ge  Ge2       1.0  0.77700  0.02690  0.68000  1.0000
  K   K1        1.0  0.27000  0.01100  0.06650  1.0000
  K   K2        1.0  0.73000  0.51100  0.93300  1.0000
  Nd  Nd1       1.0  0.77200  0.49500  0.44800  1.0000
  Nd  Nd2       1.0  0.22800  0.99500  0.55200  1.0000
  S   S1        1.0  0.42400  0.52800  0.16200  1.0000
  S   S2        1.0  0.97800  0.76500  0.27400  1.0000
  S   S3        1.0  0.02010  0.25600  0.29000  1.0000
  S   S4        1.0  0.57900  0.08390  0.42900  1.0000
  S   S5        1.0  0.42100  0.58400  0.57100  1.0000
  S   S6        1.0  0.98000  0.75600  0.71000  1.0000
  S   S7        1.0  0.02160  0.26500  0.72600  1.0000
  S   S8        1.0  0.57600  0.02850  0.83800  1.0000
