data_image0
_chemical_formula_structural       Ce4Ru2Zn8
_chemical_formula_sum              "Ce4 Ru2 Zn8"
_cell_length_a       7.12194
_cell_length_b       7.12194
_cell_length_c       5.51568
_cell_angle_alpha    90
_cell_angle_beta     90
_cell_angle_gamma    90

_space_group_name_H-M_alt    "P 1"
_space_group_IT_number       1

loop_
  _space_group_symop_operation_xyz
  'x, y, z'

loop_
  _atom_site_type_symbol
  _atom_site_label
  _atom_site_symmetry_multiplicity
  _atom_site_fract_x
  _atom_site_fract_y
  _atom_site_fract_z
  _atom_site_occupancy
  Ce  Ce1       1.0  0.75000  0.25000  0.00000  1.0000
  Ce  Ce2       1.0  0.25000  0.75000  0.00000  1.0000
  Ce  Ce3       1.0  0.75000  0.75000  0.22000  1.0000
  Ce  Ce4       1.0  0.25000  0.25000  0.78000  1.0000
  Ru  Ru1       1.0  0.75000  0.25000  0.50000  1.0000
  Ru  Ru2       1.0  0.25000  0.75000  0.50000  1.0000
  Zn  Zn1       1.0  0.06690  0.06690  0.30800  1.0000
  Zn  Zn2       1.0  0.43300  0.06690  0.30800  1.0000
  Zn  Zn3       1.0  0.06690  0.43300  0.30800  1.0000
  Zn  Zn4       1.0  0.43300  0.43300  0.30800  1.0000
  Zn  Zn5       1.0  0.56700  0.56700  0.69200  1.0000
  Zn  Zn6       1.0  0.93300  0.56700  0.69200  1.0000
  Zn  Zn7       1.0  0.56700  0.93300  0.69200  1.0000
  Zn  Zn8       1.0  0.93300  0.93300  0.69200  1.0000
