data_image0
_chemical_formula_structural       Cu2Lu2S6Sr2
_chemical_formula_sum              "Cu2 Lu2 S6 Sr2"
_cell_length_a       3.89313
_cell_length_b       6.7675
_cell_length_c       10.0351
_cell_angle_alpha    90
_cell_angle_beta     90
_cell_angle_gamma    73.2836

_space_group_name_H-M_alt    "P 1"
_space_group_IT_number       1

loop_
  _space_group_symop_operation_xyz
  'x, y, z'

loop_
  _atom_site_type_symbol
  _atom_site_label
  _atom_site_symmetry_multiplicity
  _atom_site_fract_x
  _atom_site_fract_y
  _atom_site_fract_z
  _atom_site_occupancy
  Cu  Cu1       1.0  0.47000  0.05920  0.25000  1.0000
  Cu  Cu2       1.0  0.53000  0.94100  0.75000  1.0000
  Lu  Lu1       1.0  0.00000  0.00000  0.00000  1.0000
  Lu  Lu2       1.0  0.00000  0.00000  0.50000  1.0000
  S   S1        1.0  0.36400  0.27200  0.06350  1.0000
  S   S2        1.0  0.07470  0.85100  0.25000  1.0000
  S   S3        1.0  0.36400  0.27200  0.43700  1.0000
  S   S4        1.0  0.63600  0.72800  0.56300  1.0000
  S   S5        1.0  0.92500  0.14900  0.75000  1.0000
  S   S6        1.0  0.63600  0.72800  0.93700  1.0000
  Sr  Sr1       1.0  0.74900  0.50300  0.25000  1.0000
  Sr  Sr2       1.0  0.25100  0.49700  0.75000  1.0000
