data_image0
_chemical_formula_structural       Cl2Dy2Mo2O8
_chemical_formula_sum              "Cl2 Dy2 Mo2 O8"
_cell_length_a       6.2491
_cell_length_b       6.2491
_cell_length_c       6.81862
_cell_angle_alpha    103.914
_cell_angle_beta     103.914
_cell_angle_gamma    70.6843

_space_group_name_H-M_alt    "P 1"
_space_group_IT_number       1

loop_
  _space_group_symop_operation_xyz
  'x, y, z'

loop_
  _atom_site_type_symbol
  _atom_site_label
  _atom_site_symmetry_multiplicity
  _atom_site_fract_x
  _atom_site_fract_y
  _atom_site_fract_z
  _atom_site_occupancy
  Cl  Cl1       1.0  0.99000  0.99000  0.23800  1.0000
  Cl  Cl2       1.0  0.00993  0.00993  0.76200  1.0000
  Dy  Dy1       1.0  0.22100  0.22100  0.11000  1.0000
  Dy  Dy2       1.0  0.77900  0.77900  0.89000  1.0000
  Mo  Mo1       1.0  0.63700  0.63700  0.27000  1.0000
  Mo  Mo2       1.0  0.36300  0.36300  0.73000  1.0000
  O   O1        1.0  0.89100  0.50800  0.15200  1.0000
  O   O2        1.0  0.50800  0.89100  0.15200  1.0000
  O   O3        1.0  0.45600  0.45600  0.20300  1.0000
  O   O4        1.0  0.29400  0.29400  0.46200  1.0000
  O   O5        1.0  0.70600  0.70600  0.53800  1.0000
  O   O6        1.0  0.54400  0.54400  0.79700  1.0000
  O   O7        1.0  0.49200  0.10900  0.84800  1.0000
  O   O8        1.0  0.10900  0.49200  0.84800  1.0000
