data_image0
_chemical_formula_structural       Gd2Ge2K2S8
_chemical_formula_sum              "Gd2 Ge2 K2 S8"
_cell_length_a       6.55596
_cell_length_b       6.69252
_cell_length_c       8.71791
_cell_angle_alpha    90
_cell_angle_beta     107.481
_cell_angle_gamma    90

_space_group_name_H-M_alt    "P 1"
_space_group_IT_number       1

loop_
  _space_group_symop_operation_xyz
  'x, y, z'

loop_
  _atom_site_type_symbol
  _atom_site_label
  _atom_site_symmetry_multiplicity
  _atom_site_fract_x
  _atom_site_fract_y
  _atom_site_fract_z
  _atom_site_occupancy
  Gd  Gd1       1.0  0.77200  0.49200  0.44900  1.0000
  Gd  Gd2       1.0  0.22800  0.99200  0.55100  1.0000
  Ge  Ge1       1.0  0.22500  0.52600  0.32500  1.0000
  Ge  Ge2       1.0  0.77500  0.02590  0.67500  1.0000
  K   K1        1.0  0.26800  0.00969  0.06560  1.0000
  K   K2        1.0  0.73200  0.51000  0.93400  1.0000
  S   S1        1.0  0.42900  0.52800  0.16500  1.0000
  S   S2        1.0  0.97400  0.76400  0.27900  1.0000
  S   S3        1.0  0.01830  0.25500  0.29700  1.0000
  S   S4        1.0  0.56800  0.09310  0.42700  1.0000
  S   S5        1.0  0.43200  0.59300  0.57300  1.0000
  S   S6        1.0  0.98200  0.75500  0.70300  1.0000
  S   S7        1.0  0.02550  0.26400  0.72100  1.0000
  S   S8        1.0  0.57100  0.02790  0.83500  1.0000
