data_image0
_chemical_formula_structural       Cs2Mo6Te6
_chemical_formula_sum              "Cs2 Mo6 Te6"
_cell_length_a       10.2414
_cell_length_b       10.2459
_cell_length_c       4.62723
_cell_angle_alpha    90
_cell_angle_beta     90
_cell_angle_gamma    119.99

_space_group_name_H-M_alt    "P 1"
_space_group_IT_number       1

loop_
  _space_group_symop_operation_xyz
  'x, y, z'

loop_
  _atom_site_type_symbol
  _atom_site_label
  _atom_site_symmetry_multiplicity
  _atom_site_fract_x
  _atom_site_fract_y
  _atom_site_fract_z
  _atom_site_occupancy
  Cs  Cs1       1.0  0.33300  0.66700  0.25000  1.0000
  Cs  Cs2       1.0  0.66700  0.33300  0.75000  1.0000
  Mo  Mo1       1.0  0.84000  0.97800  0.25000  1.0000
  Mo  Mo2       1.0  0.13800  0.16000  0.25000  1.0000
  Mo  Mo3       1.0  0.02210  0.86200  0.25000  1.0000
  Mo  Mo4       1.0  0.16000  0.02210  0.75000  1.0000
  Mo  Mo5       1.0  0.97800  0.13800  0.75000  1.0000
  Mo  Mo6       1.0  0.86200  0.84000  0.75000  1.0000
  Te  Te1       1.0  0.34000  0.04680  0.25000  1.0000
  Te  Te2       1.0  0.95300  0.29300  0.25000  1.0000
  Te  Te3       1.0  0.70700  0.66000  0.25000  1.0000
  Te  Te4       1.0  0.66000  0.95300  0.75000  1.0000
  Te  Te5       1.0  0.29300  0.34000  0.75000  1.0000
  Te  Te6       1.0  0.04690  0.70700  0.75000  1.0000
