data_image0
_chemical_formula_structural       La8Pb6
_chemical_formula_sum              "La8 Pb6"
_cell_length_a       8.55842
_cell_length_b       8.55842
_cell_length_c       8.55842
_cell_angle_alpha    109.471
_cell_angle_beta     109.471
_cell_angle_gamma    109.471

_space_group_name_H-M_alt    "P 1"
_space_group_IT_number       1

loop_
  _space_group_symop_operation_xyz
  'x, y, z'

loop_
  _atom_site_type_symbol
  _atom_site_label
  _atom_site_symmetry_multiplicity
  _atom_site_fract_x
  _atom_site_fract_y
  _atom_site_fract_z
  _atom_site_occupancy
  La  La1       1.0  0.14100  0.00000  0.00000  1.0000
  La  La2       1.0  0.64100  0.00000  0.00000  1.0000
  La  La3       1.0  0.50000  0.50000  0.14100  1.0000
  La  La4       1.0  0.35900  0.85900  0.35900  1.0000
  La  La5       1.0  0.00000  0.14100  0.50000  1.0000
  La  La6       1.0  0.00000  0.64100  0.50000  1.0000
  La  La7       1.0  0.50000  0.50000  0.64100  1.0000
  La  La8       1.0  0.85900  0.35900  0.85900  1.0000
  Pb  Pb1       1.0  0.87500  0.75000  0.12500  1.0000
  Pb  Pb2       1.0  0.12500  0.37500  0.25000  1.0000
  Pb  Pb3       1.0  0.62500  0.25000  0.37500  1.0000
  Pb  Pb4       1.0  0.75000  0.87500  0.62500  1.0000
  Pb  Pb5       1.0  0.37500  0.12500  0.75000  1.0000
  Pb  Pb6       1.0  0.25000  0.62500  0.87500  1.0000
