data_image0
_chemical_formula_structural       K2La2S8Si2
_chemical_formula_sum              "K2 La2 S8 Si2"
_cell_length_a       6.58414
_cell_length_b       6.59764
_cell_length_c       8.74458
_cell_angle_alpha    90
_cell_angle_beta     107.305
_cell_angle_gamma    90

_space_group_name_H-M_alt    "P 1"
_space_group_IT_number       1

loop_
  _space_group_symop_operation_xyz
  'x, y, z'

loop_
  _atom_site_type_symbol
  _atom_site_label
  _atom_site_symmetry_multiplicity
  _atom_site_fract_x
  _atom_site_fract_y
  _atom_site_fract_z
  _atom_site_occupancy
  K   K1        1.0  0.28000  0.75000  0.06720  1.0000
  K   K2        1.0  0.72000  0.25000  0.93300  1.0000
  La  La1       1.0  0.76700  0.25000  0.44900  1.0000
  La  La2       1.0  0.23300  0.75000  0.55100  1.0000
  S   S1        1.0  0.40900  0.25000  0.16100  1.0000
  S   S2        1.0  0.99900  0.50200  0.27200  1.0000
  S   S3        1.0  0.99900  0.99800  0.27200  1.0000
  S   S4        1.0  0.61000  0.75000  0.43900  1.0000
  S   S5        1.0  0.39000  0.25000  0.56100  1.0000
  S   S6        1.0  0.00098  0.00240  0.72800  1.0000
  S   S7        1.0  0.00098  0.49800  0.72800  1.0000
  S   S8        1.0  0.59100  0.75000  0.83900  1.0000
  Si  Si1       1.0  0.21100  0.25000  0.31200  1.0000
  Si  Si2       1.0  0.78900  0.75000  0.68800  1.0000
