data_image0
_chemical_formula_structural       BaCaGa4O8
_chemical_formula_sum              "Ba1 Ca1 Ga4 O8"
_cell_length_a       5.15867
_cell_length_b       6.66948
_cell_length_c       6.66948
_cell_angle_alpha    104.259
_cell_angle_beta     112.752
_cell_angle_gamma    67.2484

_space_group_name_H-M_alt    "P 1"
_space_group_IT_number       1

loop_
  _space_group_symop_operation_xyz
  'x, y, z'

loop_
  _atom_site_type_symbol
  _atom_site_label
  _atom_site_symmetry_multiplicity
  _atom_site_fract_x
  _atom_site_fract_y
  _atom_site_fract_z
  _atom_site_occupancy
  Ba  Ba1       1.0  0.98300  0.00000  0.00000  1.0000
  Ca  Ca1       1.0  0.06810  0.50000  0.50000  1.0000
  Ga  Ga1       1.0  0.37300  0.45800  0.12300  1.0000
  Ga  Ga2       1.0  0.70800  0.12300  0.45800  1.0000
  Ga  Ga3       1.0  0.37300  0.87700  0.54200  1.0000
  Ga  Ga4       1.0  0.70800  0.54200  0.87700  1.0000
  O   O1        1.0  0.73700  0.46000  0.13300  1.0000
  O   O2        1.0  0.42800  0.18700  0.18700  1.0000
  O   O3        1.0  0.23100  0.67500  0.32500  1.0000
  O   O4        1.0  0.06360  0.13300  0.46000  1.0000
  O   O5        1.0  0.73700  0.86700  0.54000  1.0000
  O   O6        1.0  0.58000  0.32500  0.67500  1.0000
  O   O7        1.0  0.42800  0.81300  0.81300  1.0000
  O   O8        1.0  0.06360  0.54000  0.86700  1.0000
