data_image0
_chemical_formula_structural       Ge2K2S8Y2
_chemical_formula_sum              "Ge2 K2 S8 Y2"
_cell_length_a       6.52668
_cell_length_b       6.67431
_cell_length_c       8.67594
_cell_angle_alpha    90
_cell_angle_beta     107.378
_cell_angle_gamma    90

_space_group_name_H-M_alt    "P 1"
_space_group_IT_number       1

loop_
  _space_group_symop_operation_xyz
  'x, y, z'

loop_
  _atom_site_type_symbol
  _atom_site_label
  _atom_site_symmetry_multiplicity
  _atom_site_fract_x
  _atom_site_fract_y
  _atom_site_fract_z
  _atom_site_occupancy
  Ge  Ge1       1.0  0.22600  0.52600  0.32500  1.0000
  Ge  Ge2       1.0  0.77400  0.02560  0.67500  1.0000
  K   K1        1.0  0.26700  0.00924  0.06550  1.0000
  K   K2        1.0  0.73300  0.50900  0.93500  1.0000
  S   S1        1.0  0.43100  0.52800  0.16600  1.0000
  S   S2        1.0  0.97400  0.76500  0.28000  1.0000
  S   S3        1.0  0.01710  0.25500  0.29800  1.0000
  S   S4        1.0  0.56600  0.09430  0.42600  1.0000
  S   S5        1.0  0.43400  0.59400  0.57400  1.0000
  S   S6        1.0  0.98300  0.75500  0.70200  1.0000
  S   S7        1.0  0.02580  0.26500  0.72000  1.0000
  S   S8        1.0  0.56900  0.02780  0.83400  1.0000
  Y   Y1        1.0  0.77200  0.49100  0.44900  1.0000
  Y   Y2        1.0  0.22800  0.99100  0.55100  1.0000
