data_image0
_chemical_formula_structural       Ce6Pd8
_chemical_formula_sum              "Ce6 Pd8"
_cell_length_a       5.88855
_cell_length_b       8.2415
_cell_length_c       8.2415
_cell_angle_alpha    114.514
_cell_angle_beta     103.778
_cell_angle_gamma    103.778

_space_group_name_H-M_alt    "P 1"
_space_group_IT_number       1

loop_
  _space_group_symop_operation_xyz
  'x, y, z'

loop_
  _atom_site_type_symbol
  _atom_site_label
  _atom_site_symmetry_multiplicity
  _atom_site_fract_x
  _atom_site_fract_y
  _atom_site_fract_z
  _atom_site_occupancy
  Ce  Ce1       1.0  0.40500  0.37800  0.12500  1.0000
  Ce  Ce2       1.0  0.28000  0.87500  0.25200  1.0000
  Ce  Ce3       1.0  0.97300  0.25200  0.37800  1.0000
  Ce  Ce4       1.0  0.02740  0.74800  0.62200  1.0000
  Ce  Ce5       1.0  0.72000  0.12500  0.74800  1.0000
  Ce  Ce6       1.0  0.59500  0.62200  0.87500  1.0000
  Pd  Pd1       1.0  0.50000  0.00000  0.00000  1.0000
  Pd  Pd2       1.0  0.00000  0.00000  0.00000  1.0000
  Pd  Pd3       1.0  0.94200  0.49600  0.16300  1.0000
  Pd  Pd4       1.0  0.77900  0.83700  0.33200  1.0000
  Pd  Pd5       1.0  0.55400  0.33200  0.49600  1.0000
  Pd  Pd6       1.0  0.44600  0.66800  0.50400  1.0000
  Pd  Pd7       1.0  0.22100  0.16300  0.66800  1.0000
  Pd  Pd8       1.0  0.05790  0.50400  0.83700  1.0000
