data_image0
_chemical_formula_structural       Dy6Pt8
_chemical_formula_sum              "Dy6 Pt8"
_cell_length_a       5.71501
_cell_length_b       7.83962
_cell_length_c       7.83962
_cell_angle_alpha    114.295
_cell_angle_beta     104.063
_cell_angle_gamma    104.063

_space_group_name_H-M_alt    "P 1"
_space_group_IT_number       1

loop_
  _space_group_symop_operation_xyz
  'x, y, z'

loop_
  _atom_site_type_symbol
  _atom_site_label
  _atom_site_symmetry_multiplicity
  _atom_site_fract_x
  _atom_site_fract_y
  _atom_site_fract_z
  _atom_site_occupancy
  Dy  Dy1       1.0  0.40800  0.37900  0.12800  1.0000
  Dy  Dy2       1.0  0.27900  0.87200  0.25100  1.0000
  Dy  Dy3       1.0  0.97200  0.25100  0.37900  1.0000
  Dy  Dy4       1.0  0.02840  0.74900  0.62100  1.0000
  Dy  Dy5       1.0  0.72100  0.12800  0.74900  1.0000
  Dy  Dy6       1.0  0.59200  0.62100  0.87200  1.0000
  Pt  Pt1       1.0  0.00000  0.00000  0.00000  1.0000
  Pt  Pt2       1.0  0.50000  0.00000  0.00000  1.0000
  Pt  Pt3       1.0  0.94300  0.48700  0.16700  1.0000
  Pt  Pt4       1.0  0.77500  0.83300  0.32000  1.0000
  Pt  Pt5       1.0  0.54400  0.32000  0.48700  1.0000
  Pt  Pt6       1.0  0.45600  0.68000  0.51300  1.0000
  Pt  Pt7       1.0  0.22500  0.16700  0.68000  1.0000
  Pt  Pt8       1.0  0.05740  0.51300  0.83300  1.0000
