data_image0
_chemical_formula_structural       CsS8V5
_chemical_formula_sum              "Cs1 S8 V5"
_cell_length_a       3.32899
_cell_length_b       8.84286
_cell_length_c       8.95759
_cell_angle_alpha    103.89
_cell_angle_beta     100.709
_cell_angle_gamma    90

_space_group_name_H-M_alt    "P 1"
_space_group_IT_number       1

loop_
  _space_group_symop_operation_xyz
  'x, y, z'

loop_
  _atom_site_type_symbol
  _atom_site_label
  _atom_site_symmetry_multiplicity
  _atom_site_fract_x
  _atom_site_fract_y
  _atom_site_fract_z
  _atom_site_occupancy
  Cs  Cs1       1.0  0.50000  0.50000  1.00000  1.0000
  S   S1        1.0  0.57200  0.17200  0.14300  1.0000
  S   S2        1.0  0.08880  0.83200  0.17800  1.0000
  S   S3        1.0  0.16700  0.49100  0.33400  1.0000
  S   S4        1.0  0.24000  0.15100  0.48100  1.0000
  S   S5        1.0  0.76000  0.84900  0.51900  1.0000
  S   S6        1.0  0.83300  0.50900  0.66600  1.0000
  S   S7        1.0  0.91100  0.16800  0.82200  1.0000
  S   S8        1.0  0.42800  0.82800  0.85700  1.0000
  V   V1        1.0  0.00000  0.00000  0.00000  1.0000
  V   V2        1.0  0.64800  0.00290  0.29600  1.0000
  V   V3        1.0  0.70800  0.33700  0.41600  1.0000
  V   V4        1.0  0.29200  0.66300  0.58400  1.0000
  V   V5        1.0  0.35200  0.99700  0.70400  1.0000
