data_image0
_chemical_formula_structural       C8Fe2Ho4
_chemical_formula_sum              "C8 Fe2 Ho4"
_cell_length_a       5.00813
_cell_length_b       6.54625
_cell_length_c       6.54625
_cell_angle_alpha    93.3712
_cell_angle_beta     112.49
_cell_angle_gamma    112.49

_space_group_name_H-M_alt    "P 1"
_space_group_IT_number       1

loop_
  _space_group_symop_operation_xyz
  'x, y, z'

loop_
  _atom_site_type_symbol
  _atom_site_label
  _atom_site_symmetry_multiplicity
  _atom_site_fract_x
  _atom_site_fract_y
  _atom_site_fract_z
  _atom_site_occupancy
  C   C1        1.0  0.16600  0.24400  0.08820  1.0000
  C   C2        1.0  0.33800  0.46700  0.21000  1.0000
  C   C3        1.0  0.66600  0.08820  0.24400  1.0000
  C   C4        1.0  0.83800  0.21000  0.46700  1.0000
  C   C5        1.0  0.16200  0.79000  0.53300  1.0000
  C   C6        1.0  0.33400  0.91200  0.75600  1.0000
  C   C7        1.0  0.66200  0.53300  0.79000  1.0000
  C   C8        1.0  0.83400  0.75600  0.91200  1.0000
  Fe  Fe1       1.0  0.25000  0.00000  0.00000  1.0000
  Fe  Fe2       1.0  0.75000  0.00000  0.00000  1.0000
  Ho  Ho1       1.0  0.84400  0.48900  0.19900  1.0000
  Ho  Ho2       1.0  0.34400  0.19900  0.48900  1.0000
  Ho  Ho3       1.0  0.65600  0.80100  0.51100  1.0000
  Ho  Ho4       1.0  0.15600  0.51100  0.80100  1.0000
