data_image0
_chemical_formula_structural       Cl2Mo2O8Tm2
_chemical_formula_sum              "Cl2 Mo2 O8 Tm2"
_cell_length_a       6.18444
_cell_length_b       6.18444
_cell_length_c       6.76503
_cell_angle_alpha    104.192
_cell_angle_beta     104.192
_cell_angle_gamma    70.6418

_space_group_name_H-M_alt    "P 1"
_space_group_IT_number       1

loop_
  _space_group_symop_operation_xyz
  'x, y, z'

loop_
  _atom_site_type_symbol
  _atom_site_label
  _atom_site_symmetry_multiplicity
  _atom_site_fract_x
  _atom_site_fract_y
  _atom_site_fract_z
  _atom_site_occupancy
  Cl  Cl1       1.0  0.99000  0.99000  0.23700  1.0000
  Cl  Cl2       1.0  0.00952  0.00952  0.76300  1.0000
  Mo  Mo1       1.0  0.63700  0.63700  0.26900  1.0000
  Mo  Mo2       1.0  0.36300  0.36300  0.73100  1.0000
  O   O1        1.0  0.89500  0.50800  0.15300  1.0000
  O   O2        1.0  0.50800  0.89500  0.15300  1.0000
  O   O3        1.0  0.45400  0.45400  0.20000  1.0000
  O   O4        1.0  0.29300  0.29300  0.45900  1.0000
  O   O5        1.0  0.70700  0.70700  0.54100  1.0000
  O   O6        1.0  0.54600  0.54600  0.80000  1.0000
  O   O7        1.0  0.49200  0.10500  0.84700  1.0000
  O   O8        1.0  0.10500  0.49200  0.84700  1.0000
  Tm  Tm1       1.0  0.22100  0.22100  0.10800  1.0000
  Tm  Tm2       1.0  0.77900  0.77900  0.89200  1.0000
