data_image0
_chemical_formula_structural       Ir4Si4Yb4
_chemical_formula_sum              "Ir4 Si4 Yb4"
_cell_length_a       7.17866
_cell_length_b       4.29063
_cell_length_c       6.92287
_cell_angle_alpha    90
_cell_angle_beta     90
_cell_angle_gamma    90

_space_group_name_H-M_alt    "P 1"
_space_group_IT_number       1

loop_
  _space_group_symop_operation_xyz
  'x, y, z'

loop_
  _atom_site_type_symbol
  _atom_site_label
  _atom_site_symmetry_multiplicity
  _atom_site_fract_x
  _atom_site_fract_y
  _atom_site_fract_z
  _atom_site_occupancy
  Ir  Ir1       1.0  0.85100  0.25000  0.07410  1.0000
  Ir  Ir2       1.0  0.35100  0.25000  0.42600  1.0000
  Ir  Ir3       1.0  0.64900  0.75000  0.57400  1.0000
  Ir  Ir4       1.0  0.14900  0.75000  0.92600  1.0000
  Si  Si1       1.0  0.18900  0.25000  0.11100  1.0000
  Si  Si2       1.0  0.68900  0.25000  0.38900  1.0000
  Si  Si3       1.0  0.31100  0.75000  0.61100  1.0000
  Si  Si4       1.0  0.81100  0.75000  0.88900  1.0000
  Yb  Yb1       1.0  0.49400  0.75000  0.17300  1.0000
  Yb  Yb2       1.0  0.99400  0.75000  0.32700  1.0000
  Yb  Yb3       1.0  0.00639  0.25000  0.67300  1.0000
  Yb  Yb4       1.0  0.50600  0.25000  0.82700  1.0000
