data_image0
_chemical_formula_structural       Sb6Sm8
_chemical_formula_sum              "Sb6 Sm8"
_cell_length_a       8.12374
_cell_length_b       8.12374
_cell_length_c       8.12374
_cell_angle_alpha    109.471
_cell_angle_beta     109.471
_cell_angle_gamma    109.471

_space_group_name_H-M_alt    "P 1"
_space_group_IT_number       1

loop_
  _space_group_symop_operation_xyz
  'x, y, z'

loop_
  _atom_site_type_symbol
  _atom_site_label
  _atom_site_symmetry_multiplicity
  _atom_site_fract_x
  _atom_site_fract_y
  _atom_site_fract_z
  _atom_site_occupancy
  Sb  Sb1       1.0  0.87500  0.75000  0.12500  1.0000
  Sb  Sb2       1.0  0.12500  0.37500  0.25000  1.0000
  Sb  Sb3       1.0  0.62500  0.25000  0.37500  1.0000
  Sb  Sb4       1.0  0.75000  0.87500  0.62500  1.0000
  Sb  Sb5       1.0  0.37500  0.12500  0.75000  1.0000
  Sb  Sb6       1.0  0.25000  0.62500  0.87500  1.0000
  Sm  Sm1       1.0  0.14300  0.00000  0.00000  1.0000
  Sm  Sm2       1.0  0.64300  0.00000  0.00000  1.0000
  Sm  Sm3       1.0  0.50000  0.50000  0.14300  1.0000
  Sm  Sm4       1.0  0.35700  0.85700  0.35700  1.0000
  Sm  Sm5       1.0  0.00000  0.64300  0.50000  1.0000
  Sm  Sm6       1.0  0.00000  0.14300  0.50000  1.0000
  Sm  Sm7       1.0  0.50000  0.50000  0.64300  1.0000
  Sm  Sm8       1.0  0.85700  0.35700  0.85700  1.0000
