data_image0
_chemical_formula_structural       Fe2Rh4S8
_chemical_formula_sum              "Fe2 Rh4 S8"
_cell_length_a       6.97054
_cell_length_b       6.97054
_cell_length_c       6.97054
_cell_angle_alpha    120
_cell_angle_beta     90
_cell_angle_gamma    120

_space_group_name_H-M_alt    "P 1"
_space_group_IT_number       1

loop_
  _space_group_symop_operation_xyz
  'x, y, z'

loop_
  _atom_site_type_symbol
  _atom_site_label
  _atom_site_symmetry_multiplicity
  _atom_site_fract_x
  _atom_site_fract_y
  _atom_site_fract_z
  _atom_site_occupancy
  Fe  Fe1       1.0  0.00000  0.00000  0.00000  1.0000
  Fe  Fe2       1.0  0.75000  0.50000  0.25000  1.0000
  Rh  Rh1       1.0  0.37500  0.75000  0.12500  1.0000
  Rh  Rh2       1.0  0.87500  0.25000  0.62500  1.0000
  Rh  Rh3       1.0  0.37500  0.25000  0.62500  1.0000
  Rh  Rh4       1.0  0.37500  0.75000  0.62500  1.0000
  S   S1        1.0  0.61700  0.23400  0.38300  1.0000
  S   S2        1.0  0.14900  0.76600  0.38300  1.0000
  S   S3        1.0  0.61700  0.76600  0.38300  1.0000
  S   S4        1.0  0.13300  0.26600  0.39900  1.0000
  S   S5        1.0  0.61700  0.23400  0.85100  1.0000
  S   S6        1.0  0.13300  0.73400  0.86700  1.0000
  S   S7        1.0  0.60100  0.73400  0.86700  1.0000
  S   S8        1.0  0.13300  0.26600  0.86700  1.0000
