data_image0
_chemical_formula_structural       Au4O4Rb4
_chemical_formula_sum              "Au4 O4 Rb4"
_cell_length_a       5.8114
_cell_length_b       7.64498
_cell_length_c       7.64498
_cell_angle_alpha    98.306
_cell_angle_beta     67.6614
_cell_angle_gamma    112.339

_space_group_name_H-M_alt    "P 1"
_space_group_IT_number       1

loop_
  _space_group_symop_operation_xyz
  'x, y, z'

loop_
  _atom_site_type_symbol
  _atom_site_label
  _atom_site_symmetry_multiplicity
  _atom_site_fract_x
  _atom_site_fract_y
  _atom_site_fract_z
  _atom_site_occupancy
  Au  Au1       1.0  0.15000  0.30000  0.00000  1.0000
  Au  Au2       1.0  0.85000  0.70000  0.00000  1.0000
  Au  Au3       1.0  0.85000  0.00000  0.30000  1.0000
  Au  Au4       1.0  0.15000  0.00000  0.70000  1.0000
  O   O1        1.0  0.00000  0.29000  0.29000  1.0000
  O   O2        1.0  0.71000  0.71000  0.29000  1.0000
  O   O3        1.0  0.29000  0.29000  0.71000  1.0000
  O   O4        1.0  0.00000  0.71000  0.71000  1.0000
  Rb  Rb1       1.0  0.50000  0.30500  0.30500  1.0000
  Rb  Rb2       1.0  0.19500  0.69500  0.30500  1.0000
  Rb  Rb3       1.0  0.50000  0.69500  0.69500  1.0000
  Rb  Rb4       1.0  0.80500  0.30500  0.69500  1.0000
