data_image0
_chemical_formula_structural       In4Rh4Yb4
_chemical_formula_sum              "In4 Rh4 Yb4"
_cell_length_a       7.16479
_cell_length_b       4.20017
_cell_length_c       8.49109
_cell_angle_alpha    90
_cell_angle_beta     90
_cell_angle_gamma    90

_space_group_name_H-M_alt    "P 1"
_space_group_IT_number       1

loop_
  _space_group_symop_operation_xyz
  'x, y, z'

loop_
  _atom_site_type_symbol
  _atom_site_label
  _atom_site_symmetry_multiplicity
  _atom_site_fract_x
  _atom_site_fract_y
  _atom_site_fract_z
  _atom_site_occupancy
  In  In1       1.0  0.64800  0.25000  0.06320  1.0000
  In  In2       1.0  0.14800  0.25000  0.43700  1.0000
  In  In3       1.0  0.85200  0.75000  0.56300  1.0000
  In  In4       1.0  0.35200  0.75000  0.93700  1.0000
  Rh  Rh1       1.0  0.26700  0.25000  0.13200  1.0000
  Rh  Rh2       1.0  0.76700  0.25000  0.36800  1.0000
  Rh  Rh3       1.0  0.23300  0.75000  0.63200  1.0000
  Rh  Rh4       1.0  0.73300  0.75000  0.86800  1.0000
  Yb  Yb1       1.0  0.97200  0.75000  0.17500  1.0000
  Yb  Yb2       1.0  0.47200  0.75000  0.32500  1.0000
  Yb  Yb3       1.0  0.52800  0.25000  0.67500  1.0000
  Yb  Yb4       1.0  0.02820  0.25000  0.82500  1.0000
