data_image0
_chemical_formula_structural       Be2F8K2Li2
_chemical_formula_sum              "Be2 F8 K2 Li2"
_cell_length_a       4.88502
_cell_length_b       4.88495
_cell_length_c       8.37729
_cell_angle_alpha    90
_cell_angle_beta     90
_cell_angle_gamma    120.001

_space_group_name_H-M_alt    "P 1"
_space_group_IT_number       1

loop_
  _space_group_symop_operation_xyz
  'x, y, z'

loop_
  _atom_site_type_symbol
  _atom_site_label
  _atom_site_symmetry_multiplicity
  _atom_site_fract_x
  _atom_site_fract_y
  _atom_site_fract_z
  _atom_site_occupancy
  Be  Be1       1.0  0.33300  0.66700  0.19900  1.0000
  Be  Be2       1.0  0.66700  0.33300  0.69900  1.0000
  F   F1        1.0  0.33300  0.66700  0.01410  1.0000
  F   F2        1.0  0.64000  0.68000  0.25400  1.0000
  F   F3        1.0  0.03980  0.36000  0.25400  1.0000
  F   F4        1.0  0.32000  0.96000  0.25400  1.0000
  F   F5        1.0  0.66700  0.33300  0.51400  1.0000
  F   F6        1.0  0.36000  0.32000  0.75400  1.0000
  F   F7        1.0  0.96000  0.64000  0.75400  1.0000
  F   F8        1.0  0.68000  0.03980  0.75400  1.0000
  K   K1        1.0  0.00000  0.00000  0.00088  1.0000
  K   K2        1.0  0.00000  0.00000  0.50100  1.0000
  Li  Li1       1.0  0.66700  0.33300  0.30000  1.0000
  Li  Li2       1.0  0.33300  0.66700  0.80000  1.0000
