data_image0
_chemical_formula_structural       Au6Sn4Yb4
_chemical_formula_sum              "Au6 Sn4 Yb4"
_cell_length_a       4.819
_cell_length_b       4.819
_cell_length_c       15.9437
_cell_angle_alpha    90
_cell_angle_beta     98.6922
_cell_angle_gamma    60

_space_group_name_H-M_alt    "P 1"
_space_group_IT_number       1

loop_
  _space_group_symop_operation_xyz
  'x, y, z'

loop_
  _atom_site_type_symbol
  _atom_site_label
  _atom_site_symmetry_multiplicity
  _atom_site_fract_x
  _atom_site_fract_y
  _atom_site_fract_z
  _atom_site_occupancy
  Au  Au1       1.0  0.71400  0.64300  0.07110  1.0000
  Au  Au2       1.0  0.13100  0.93500  0.19600  1.0000
  Au  Au3       1.0  0.59600  0.20200  0.39400  1.0000
  Au  Au4       1.0  0.40400  0.79800  0.60600  1.0000
  Au  Au5       1.0  0.86900  0.06550  0.80400  1.0000
  Au  Au6       1.0  0.28600  0.35700  0.92900  1.0000
  Sn  Sn1       1.0  0.41700  0.29100  0.12600  1.0000
  Sn  Sn2       1.0  0.25300  0.87300  0.38000  1.0000
  Sn  Sn3       1.0  0.74700  0.12700  0.62000  1.0000
  Sn  Sn4       1.0  0.58300  0.70900  0.87400  1.0000
  Yb  Yb1       1.0  0.00000  0.00000  0.00000  1.0000
  Yb  Yb2       1.0  0.84700  0.57700  0.27000  1.0000
  Yb  Yb3       1.0  0.00000  0.50000  0.50000  1.0000
  Yb  Yb4       1.0  0.15300  0.42300  0.73000  1.0000
