data_image0
_chemical_formula_structural       Eu4Mg4Pd4
_chemical_formula_sum              "Eu4 Mg4 Pd4"
_cell_length_a       7.43969
_cell_length_b       4.36093
_cell_length_c       8.60431
_cell_angle_alpha    90
_cell_angle_beta     90
_cell_angle_gamma    90

_space_group_name_H-M_alt    "P 1"
_space_group_IT_number       1

loop_
  _space_group_symop_operation_xyz
  'x, y, z'

loop_
  _atom_site_type_symbol
  _atom_site_label
  _atom_site_symmetry_multiplicity
  _atom_site_fract_x
  _atom_site_fract_y
  _atom_site_fract_z
  _atom_site_occupancy
  Eu  Eu1       1.0  0.46900  0.75000  0.17700  1.0000
  Eu  Eu2       1.0  0.96900  0.75000  0.32300  1.0000
  Eu  Eu3       1.0  0.03140  0.25000  0.67700  1.0000
  Eu  Eu4       1.0  0.53100  0.25000  0.82300  1.0000
  Mg  Mg1       1.0  0.13700  0.25000  0.06070  1.0000
  Mg  Mg2       1.0  0.63700  0.25000  0.43900  1.0000
  Mg  Mg3       1.0  0.36300  0.75000  0.56100  1.0000
  Mg  Mg4       1.0  0.86300  0.75000  0.93900  1.0000
  Pd  Pd1       1.0  0.76900  0.25000  0.12600  1.0000
  Pd  Pd2       1.0  0.26900  0.25000  0.37400  1.0000
  Pd  Pd3       1.0  0.73100  0.75000  0.62600  1.0000
  Pd  Pd4       1.0  0.23100  0.75000  0.87400  1.0000
