data_image0
_chemical_formula_structural       Ag6As2S6
_chemical_formula_sum              "Ag6 As2 S6"
_cell_length_a       6.97986
_cell_length_b       6.97986
_cell_length_c       6.97986
_cell_angle_alpha    101.732
_cell_angle_beta     101.732
_cell_angle_gamma    101.732

_space_group_name_H-M_alt    "P 1"
_space_group_IT_number       1

loop_
  _space_group_symop_operation_xyz
  'x, y, z'

loop_
  _atom_site_type_symbol
  _atom_site_label
  _atom_site_symmetry_multiplicity
  _atom_site_fract_x
  _atom_site_fract_y
  _atom_site_fract_z
  _atom_site_occupancy
  Ag  Ag1       1.0  0.93100  0.47900  0.27700  1.0000
  Ag  Ag2       1.0  0.77700  0.97900  0.43100  1.0000
  Ag  Ag3       1.0  0.27700  0.93100  0.47900  1.0000
  Ag  Ag4       1.0  0.97900  0.43100  0.77700  1.0000
  Ag  Ag5       1.0  0.47900  0.27700  0.93100  1.0000
  Ag  Ag6       1.0  0.43100  0.77700  0.97900  1.0000
  As  As1       1.0  0.00746  0.00746  0.00746  1.0000
  As  As2       1.0  0.50700  0.50700  0.50700  1.0000
  S   S1        1.0  0.78500  0.77500  0.10500  1.0000
  S   S2        1.0  0.28500  0.60500  0.27500  1.0000
  S   S3        1.0  0.60500  0.27500  0.28500  1.0000
  S   S4        1.0  0.27500  0.28500  0.60500  1.0000
  S   S5        1.0  0.10500  0.78500  0.77500  1.0000
  S   S6        1.0  0.77500  0.10500  0.78500  1.0000
