data_image0
_chemical_formula_structural       Dy10Ru4
_chemical_formula_sum              "Dy10 Ru4"
_cell_length_a       6.32726
_cell_length_b       7.26089
_cell_length_c       8.47246
_cell_angle_alpha    96.8161
_cell_angle_beta     111.926
_cell_angle_gamma    90

_space_group_name_H-M_alt    "P 1"
_space_group_IT_number       1

loop_
  _space_group_symop_operation_xyz
  'x, y, z'

loop_
  _atom_site_type_symbol
  _atom_site_label
  _atom_site_symmetry_multiplicity
  _atom_site_fract_x
  _atom_site_fract_y
  _atom_site_fract_z
  _atom_site_occupancy
  Dy  Dy1       1.0  0.42000  0.75000  1.00000  1.0000
  Dy  Dy2       1.0  0.58000  0.25000  0.00000  1.0000
  Dy  Dy3       1.0  0.20800  0.41500  0.18700  1.0000
  Dy  Dy4       1.0  0.97900  0.91500  0.18700  1.0000
  Dy  Dy5       1.0  0.79400  0.31400  0.43400  1.0000
  Dy  Dy6       1.0  0.64000  0.81400  0.43400  1.0000
  Dy  Dy7       1.0  0.36000  0.18600  0.56600  1.0000
  Dy  Dy8       1.0  0.20600  0.68600  0.56600  1.0000
  Dy  Dy9       1.0  0.79200  0.58500  0.81300  1.0000
  Dy  Dy10      1.0  0.02120  0.08490  0.81300  1.0000
  Ru  Ru1       1.0  0.82400  0.57600  0.22100  1.0000
  Ru  Ru2       1.0  0.39700  0.07580  0.22100  1.0000
  Ru  Ru3       1.0  0.60300  0.92400  0.77900  1.0000
  Ru  Ru4       1.0  0.17600  0.42400  0.77900  1.0000
