data_image0
_chemical_formula_structural       As2C6N6
_chemical_formula_sum              "As2 C6 N6"
_cell_length_a       5.56994
_cell_length_b       5.56994
_cell_length_c       8.65186
_cell_angle_alpha    99.0695
_cell_angle_beta     99.0695
_cell_angle_gamma    74.0227

_space_group_name_H-M_alt    "P 1"
_space_group_IT_number       1

loop_
  _space_group_symop_operation_xyz
  'x, y, z'

loop_
  _atom_site_type_symbol
  _atom_site_label
  _atom_site_symmetry_multiplicity
  _atom_site_fract_x
  _atom_site_fract_y
  _atom_site_fract_z
  _atom_site_occupancy
  As  As1       1.0  0.31100  0.30700  0.26500  1.0000
  As  As2       1.0  0.69300  0.68900  0.73500  1.0000
  C   C1        1.0  0.09330  0.35000  0.06230  1.0000
  C   C2        1.0  0.24500  0.97100  0.25000  1.0000
  C   C3        1.0  0.00623  0.44100  0.37300  1.0000
  C   C4        1.0  0.55900  0.99400  0.62700  1.0000
  C   C5        1.0  0.02930  0.75500  0.75000  1.0000
  C   C6        1.0  0.65000  0.90700  0.93800  1.0000
  N   N1        1.0  0.61400  0.02700  0.05860  1.0000
  N   N2        1.0  0.22000  0.76900  0.24600  1.0000
  N   N3        1.0  0.83900  0.52800  0.44800  1.0000
  N   N4        1.0  0.47200  0.16100  0.55200  1.0000
  N   N5        1.0  0.23100  0.78000  0.75400  1.0000
  N   N6        1.0  0.97300  0.38600  0.94100  1.0000
