data_image0
_chemical_formula_structural       Ca10Pt4
_chemical_formula_sum              "Ca10 Pt4"
_cell_length_a       6.62413
_cell_length_b       7.64826
_cell_length_c       8.73013
_cell_angle_alpha    97.0405
_cell_angle_beta     112.295
_cell_angle_gamma    90

_space_group_name_H-M_alt    "P 1"
_space_group_IT_number       1

loop_
  _space_group_symop_operation_xyz
  'x, y, z'

loop_
  _atom_site_type_symbol
  _atom_site_label
  _atom_site_symmetry_multiplicity
  _atom_site_fract_x
  _atom_site_fract_y
  _atom_site_fract_z
  _atom_site_occupancy
  Ca  Ca1       1.0  0.42400  0.75000  0.00000  1.0000
  Ca  Ca2       1.0  0.57600  0.25000  0.00000  1.0000
  Ca  Ca3       1.0  0.98000  0.91900  0.17900  1.0000
  Ca  Ca4       1.0  0.19900  0.41900  0.17900  1.0000
  Ca  Ca5       1.0  0.79900  0.32100  0.43500  1.0000
  Ca  Ca6       1.0  0.63600  0.82100  0.43500  1.0000
  Ca  Ca7       1.0  0.20100  0.67900  0.56500  1.0000
  Ca  Ca8       1.0  0.36400  0.17900  0.56500  1.0000
  Ca  Ca9       1.0  0.80100  0.58100  0.82100  1.0000
  Ca  Ca10      1.0  0.02030  0.08140  0.82100  1.0000
  Pt  Pt1       1.0  0.82200  0.58300  0.22200  1.0000
  Pt  Pt2       1.0  0.40000  0.08320  0.22200  1.0000
  Pt  Pt3       1.0  0.60000  0.91700  0.77800  1.0000
  Pt  Pt4       1.0  0.17800  0.41700  0.77800  1.0000
