data_image0
_chemical_formula_structural       Cl2Lu2Mo2O8
_chemical_formula_sum              "Cl2 Lu2 Mo2 O8"
_cell_length_a       5.87481
_cell_length_b       7.1544
_cell_length_c       6.79319
_cell_angle_alpha    94.1383
_cell_angle_beta     102.46
_cell_angle_gamma    121.962

_space_group_name_H-M_alt    "P 1"
_space_group_IT_number       1

loop_
  _space_group_symop_operation_xyz
  'x, y, z'

loop_
  _atom_site_type_symbol
  _atom_site_label
  _atom_site_symmetry_multiplicity
  _atom_site_fract_x
  _atom_site_fract_y
  _atom_site_fract_z
  _atom_site_occupancy
  Cl  Cl1       1.0  0.96800  0.97900  0.23400  1.0000
  Cl  Cl2       1.0  0.03150  0.02100  0.76600  1.0000
  Lu  Lu1       1.0  0.43800  0.20100  0.12400  1.0000
  Lu  Lu2       1.0  0.56200  0.79900  0.87600  1.0000
  Mo  Mo1       1.0  0.26700  0.64500  0.26800  1.0000
  Mo  Mo2       1.0  0.73300  0.35500  0.73200  1.0000
  O   O1        1.0  0.39000  0.87400  0.12900  1.0000
  O   O2        1.0  0.39000  0.48300  0.18600  1.0000
  O   O3        1.0  0.89500  0.47400  0.20100  1.0000
  O   O4        1.0  0.59400  0.25000  0.46200  1.0000
  O   O5        1.0  0.40600  0.75000  0.53800  1.0000
  O   O6        1.0  0.10500  0.52600  0.79900  1.0000
  O   O7        1.0  0.61000  0.51700  0.81400  1.0000
  O   O8        1.0  0.61000  0.12600  0.87100  1.0000
