data_image0
_chemical_formula_structural       Dy6Pd8
_chemical_formula_sum              "Dy6 Pd8"
_cell_length_a       5.72867
_cell_length_b       7.84927
_cell_length_c       7.84927
_cell_angle_alpha    114.282
_cell_angle_beta     104.08
_cell_angle_gamma    104.08

_space_group_name_H-M_alt    "P 1"
_space_group_IT_number       1

loop_
  _space_group_symop_operation_xyz
  'x, y, z'

loop_
  _atom_site_type_symbol
  _atom_site_label
  _atom_site_symmetry_multiplicity
  _atom_site_fract_x
  _atom_site_fract_y
  _atom_site_fract_z
  _atom_site_occupancy
  Dy  Dy1       1.0  0.40500  0.38100  0.12900  1.0000
  Dy  Dy2       1.0  0.27600  0.87100  0.25200  1.0000
  Dy  Dy3       1.0  0.97600  0.25200  0.38100  1.0000
  Dy  Dy4       1.0  0.02390  0.74800  0.61900  1.0000
  Dy  Dy5       1.0  0.72400  0.12900  0.74800  1.0000
  Dy  Dy6       1.0  0.59500  0.61900  0.87100  1.0000
  Pd  Pd1       1.0  0.00000  0.00000  0.00000  1.0000
  Pd  Pd2       1.0  0.50000  0.00000  0.00000  1.0000
  Pd  Pd3       1.0  0.93500  0.48600  0.16500  1.0000
  Pd  Pd4       1.0  0.77100  0.83500  0.32100  1.0000
  Pd  Pd5       1.0  0.55100  0.32100  0.48600  1.0000
  Pd  Pd6       1.0  0.44900  0.67900  0.51400  1.0000
  Pd  Pd7       1.0  0.22900  0.16500  0.67900  1.0000
  Pd  Pd8       1.0  0.06450  0.51400  0.83500  1.0000
