data_image0
_chemical_formula_structural       Ca2In8Ir2
_chemical_formula_sum              "Ca2 In8 Ir2"
_cell_length_a       8.77161
_cell_length_b       4.27285
_cell_length_c       7.51863
_cell_angle_alpha    90
_cell_angle_beta     90
_cell_angle_gamma    90

_space_group_name_H-M_alt    "P 1"
_space_group_IT_number       1

loop_
  _space_group_symop_operation_xyz
  'x, y, z'

loop_
  _atom_site_type_symbol
  _atom_site_label
  _atom_site_symmetry_multiplicity
  _atom_site_fract_x
  _atom_site_fract_y
  _atom_site_fract_z
  _atom_site_occupancy
  Ca  Ca1       1.0  0.25000  0.00000  0.40100  1.0000
  Ca  Ca2       1.0  0.75000  0.00000  0.59900  1.0000
  In  In1       1.0  0.00000  0.00000  0.00000  1.0000
  In  In2       1.0  0.50000  0.00000  0.00000  1.0000
  In  In3       1.0  0.25000  0.50000  0.06810  1.0000
  In  In4       1.0  0.56400  0.50000  0.31600  1.0000
  In  In5       1.0  0.93600  0.50000  0.31600  1.0000
  In  In6       1.0  0.06440  0.50000  0.68400  1.0000
  In  In7       1.0  0.43600  0.50000  0.68400  1.0000
  In  In8       1.0  0.75000  0.50000  0.93200  1.0000
  Ir  Ir1       1.0  0.75000  0.00000  0.19500  1.0000
  Ir  Ir2       1.0  0.25000  0.00000  0.80500  1.0000
