data_image0
_chemical_formula_structural       AuO8RbSe2
_chemical_formula_sum              "Au1 O8 Rb1 Se2"
_cell_length_a       5.25701
_cell_length_b       5.91277
_cell_length_c       7.24198
_cell_angle_alpha    113.037
_cell_angle_beta     90
_cell_angle_gamma    116.394

_space_group_name_H-M_alt    "P 1"
_space_group_IT_number       1

loop_
  _space_group_symop_operation_xyz
  'x, y, z'

loop_
  _atom_site_type_symbol
  _atom_site_label
  _atom_site_symmetry_multiplicity
  _atom_site_fract_x
  _atom_site_fract_y
  _atom_site_fract_z
  _atom_site_occupancy
  Au  Au1       1.0  0.00000  0.00000  0.00000  1.0000
  O   O1        1.0  0.32400  0.64800  0.07720  1.0000
  O   O2        1.0  0.36700  0.23600  0.22000  1.0000
  O   O3        1.0  0.86900  0.23600  0.22000  1.0000
  O   O4        1.0  0.86400  0.72800  0.34100  1.0000
  O   O5        1.0  0.13600  0.27200  0.65900  1.0000
  O   O6        1.0  0.13100  0.76400  0.78000  1.0000
  O   O7        1.0  0.63300  0.76400  0.78000  1.0000
  O   O8        1.0  0.67600  0.35200  0.92300  1.0000
  Rb  Rb1       1.0  0.50000  0.00000  0.50000  1.0000
  Se  Se1       1.0  0.70300  0.40500  0.16300  1.0000
  Se  Se2       1.0  0.29700  0.59500  0.83700  1.0000
