data_image0
_chemical_formula_structural       Er2Ga12
_chemical_formula_sum              "Er2 Ga12"
_cell_length_a       5.93331
_cell_length_b       5.93331
_cell_length_c       7.55515
_cell_angle_alpha    90
_cell_angle_beta     90
_cell_angle_gamma    90

_space_group_name_H-M_alt    "P 1"
_space_group_IT_number       1

loop_
  _space_group_symop_operation_xyz
  'x, y, z'

loop_
  _atom_site_type_symbol
  _atom_site_label
  _atom_site_symmetry_multiplicity
  _atom_site_fract_x
  _atom_site_fract_y
  _atom_site_fract_z
  _atom_site_occupancy
  Er  Er1       1.0  0.75000  0.25000  0.00000  1.0000
  Er  Er2       1.0  0.25000  0.75000  0.00000  1.0000
  Ga  Ga1       1.0  0.25000  0.25000  0.16000  1.0000
  Ga  Ga2       1.0  0.75000  0.75000  0.16000  1.0000
  Ga  Ga3       1.0  0.57200  0.07210  0.35100  1.0000
  Ga  Ga4       1.0  0.92800  0.42800  0.35100  1.0000
  Ga  Ga5       1.0  0.42800  0.57200  0.35100  1.0000
  Ga  Ga6       1.0  0.07210  0.92800  0.35100  1.0000
  Ga  Ga7       1.0  0.92800  0.07210  0.64900  1.0000
  Ga  Ga8       1.0  0.57200  0.42800  0.64900  1.0000
  Ga  Ga9       1.0  0.07210  0.57200  0.64900  1.0000
  Ga  Ga10      1.0  0.42800  0.92800  0.64900  1.0000
  Ga  Ga11      1.0  0.25000  0.25000  0.84000  1.0000
  Ga  Ga12      1.0  0.75000  0.75000  0.84000  1.0000
