data_image0
_chemical_formula_structural       Ba2Si12
_chemical_formula_sum              "Ba2 Si12"
_cell_length_a       4.50361
_cell_length_b       5.6796
_cell_length_c       12.017
_cell_angle_alpha    90
_cell_angle_beta     90
_cell_angle_gamma    66.6422

_space_group_name_H-M_alt    "P 1"
_space_group_IT_number       1

loop_
  _space_group_symop_operation_xyz
  'x, y, z'

loop_
  _atom_site_type_symbol
  _atom_site_label
  _atom_site_symmetry_multiplicity
  _atom_site_fract_x
  _atom_site_fract_y
  _atom_site_fract_z
  _atom_site_occupancy
  Ba  Ba1       1.0  0.72600  0.54900  0.25000  1.0000
  Ba  Ba2       1.0  0.27400  0.45100  0.75000  1.0000
  Si  Si1       1.0  0.24700  0.50600  0.03730  1.0000
  Si  Si2       1.0  0.02330  0.95300  0.09820  1.0000
  Si  Si3       1.0  0.44100  0.11800  0.14700  1.0000
  Si  Si4       1.0  0.44100  0.11800  0.35300  1.0000
  Si  Si5       1.0  0.02330  0.95300  0.40200  1.0000
  Si  Si6       1.0  0.24700  0.50600  0.46300  1.0000
  Si  Si7       1.0  0.75300  0.49400  0.53700  1.0000
  Si  Si8       1.0  0.97700  0.04650  0.59800  1.0000
  Si  Si9       1.0  0.55900  0.88200  0.64700  1.0000
  Si  Si10      1.0  0.55900  0.88200  0.85300  1.0000
  Si  Si11      1.0  0.97700  0.04650  0.90200  1.0000
  Si  Si12      1.0  0.75300  0.49400  0.96300  1.0000
