data_image0
_chemical_formula_structural       O8Pd2Se2
_chemical_formula_sum              "O8 Pd2 Se2"
_cell_length_a       4.83693
_cell_length_b       4.83693
_cell_length_c       8.07791
_cell_angle_alpha    93.634
_cell_angle_beta     93.634
_cell_angle_gamma    64.7212

_space_group_name_H-M_alt    "P 1"
_space_group_IT_number       1

loop_
  _space_group_symop_operation_xyz
  'x, y, z'

loop_
  _atom_site_type_symbol
  _atom_site_label
  _atom_site_symmetry_multiplicity
  _atom_site_fract_x
  _atom_site_fract_y
  _atom_site_fract_z
  _atom_site_occupancy
  O   O1        1.0  0.76200  0.27600  0.07940  1.0000
  O   O2        1.0  0.93600  0.71800  0.22600  1.0000
  O   O3        1.0  0.28200  0.06350  0.27400  1.0000
  O   O4        1.0  0.72400  0.23800  0.42100  1.0000
  O   O5        1.0  0.27600  0.76200  0.57900  1.0000
  O   O6        1.0  0.71800  0.93600  0.72600  1.0000
  O   O7        1.0  0.06350  0.28200  0.77400  1.0000
  O   O8        1.0  0.23800  0.72400  0.92100  1.0000
  Pd  Pd1       1.0  0.00000  0.50000  0.00000  1.0000
  Pd  Pd2       1.0  0.50000  0.00000  0.50000  1.0000
  Se  Se1       1.0  0.92900  0.07100  0.25000  1.0000
  Se  Se2       1.0  0.07100  0.92900  0.75000  1.0000
