data_image0
_chemical_formula_structural       Cl4Hg6Se4
_chemical_formula_sum              "Cl4 Hg6 Se4"
_cell_length_a       8.06137
_cell_length_b       8.06137
_cell_length_c       8.06137
_cell_angle_alpha    109.471
_cell_angle_beta     109.471
_cell_angle_gamma    109.471

_space_group_name_H-M_alt    "P 1"
_space_group_IT_number       1

loop_
  _space_group_symop_operation_xyz
  'x, y, z'

loop_
  _atom_site_type_symbol
  _atom_site_label
  _atom_site_symmetry_multiplicity
  _atom_site_fract_x
  _atom_site_fract_y
  _atom_site_fract_z
  _atom_site_occupancy
  Cl  Cl1       1.0  0.97500  0.00000  0.00000  1.0000
  Cl  Cl2       1.0  0.52500  0.52500  0.02460  1.0000
  Cl  Cl3       1.0  1.00000  0.50000  0.47500  1.0000
  Cl  Cl4       1.0  0.50000  0.97500  0.50000  1.0000
  Hg  Hg1       1.0  0.25000  0.44100  0.19100  1.0000
  Hg  Hg2       1.0  0.05920  0.80900  0.25000  1.0000
  Hg  Hg3       1.0  0.75000  0.05920  0.30900  1.0000
  Hg  Hg4       1.0  0.80900  0.75000  0.55900  1.0000
  Hg  Hg5       1.0  0.44100  0.69100  0.75000  1.0000
  Hg  Hg6       1.0  0.69100  0.25000  0.94100  1.0000
  Se  Se1       1.0  0.45500  0.00000  0.00000  1.0000
  Se  Se2       1.0  0.50000  0.45500  0.50000  1.0000
  Se  Se3       1.0  0.04480  0.04480  0.54500  1.0000
  Se  Se4       1.0  1.00000  0.50000  0.95500  1.0000
