data_image0
_chemical_formula_structural       B2Se6Tl6
_chemical_formula_sum              "B2 Se6 Tl6"
_cell_length_a       5.78353
_cell_length_b       10.3766
_cell_length_c       6.8799
_cell_angle_alpha    90
_cell_angle_beta     97.2917
_cell_angle_gamma    90

_space_group_name_H-M_alt    "P 1"
_space_group_IT_number       1

loop_
  _space_group_symop_operation_xyz
  'x, y, z'

loop_
  _atom_site_type_symbol
  _atom_site_label
  _atom_site_symmetry_multiplicity
  _atom_site_fract_x
  _atom_site_fract_y
  _atom_site_fract_z
  _atom_site_occupancy
  B   B1        1.0  0.38900  0.25000  0.26100  1.0000
  B   B2        1.0  0.61100  0.75000  0.73900  1.0000
  Se  Se1       1.0  0.24500  0.08530  0.17000  1.0000
  Se  Se2       1.0  0.24500  0.41500  0.17000  1.0000
  Se  Se3       1.0  0.67600  0.25000  0.44900  1.0000
  Se  Se4       1.0  0.32400  0.75000  0.55100  1.0000
  Se  Se5       1.0  0.75500  0.58500  0.83000  1.0000
  Se  Se6       1.0  0.75500  0.91500  0.83000  1.0000
  Tl  Tl1       1.0  0.18200  0.75000  0.00761  1.0000
  Tl  Tl2       1.0  0.72300  0.55100  0.33500  1.0000
  Tl  Tl3       1.0  0.72300  0.94900  0.33500  1.0000
  Tl  Tl4       1.0  0.27700  0.05120  0.66500  1.0000
  Tl  Tl5       1.0  0.27700  0.44900  0.66500  1.0000
  Tl  Tl6       1.0  0.81800  0.25000  0.99200  1.0000
