data_image0
_chemical_formula_structural       Au8K2Sn4
_chemical_formula_sum              "Au8 K2 Sn4"
_cell_length_a       7.67463
_cell_length_b       7.67463
_cell_length_c       7.67463
_cell_angle_alpha    107.47
_cell_angle_beta     113.553
_cell_angle_gamma    107.47

_space_group_name_H-M_alt    "P 1"
_space_group_IT_number       1

loop_
  _space_group_symop_operation_xyz
  'x, y, z'

loop_
  _atom_site_type_symbol
  _atom_site_label
  _atom_site_symmetry_multiplicity
  _atom_site_fract_x
  _atom_site_fract_y
  _atom_site_fract_z
  _atom_site_occupancy
  Au  Au1       1.0  0.06080  0.30200  0.07240  1.0000
  Au  Au2       1.0  0.92800  0.98800  0.22900  1.0000
  Au  Au3       1.0  0.56100  0.98800  0.25900  1.0000
  Au  Au4       1.0  0.42800  0.69800  0.43900  1.0000
  Au  Au5       1.0  0.27100  0.01160  0.57200  1.0000
  Au  Au6       1.0  0.74100  0.30200  0.72900  1.0000
  Au  Au7       1.0  0.77100  0.69800  0.75900  1.0000
  Au  Au8       1.0  0.24100  0.01160  0.93900  1.0000
  K   K1        1.0  0.50000  0.50000  0.00000  1.0000
  K   K2        1.0  0.00000  0.50000  0.50000  1.0000
  Sn  Sn1       1.0  0.10700  0.71400  0.10700  1.0000
  Sn  Sn2       1.0  0.39300  0.28600  0.39300  1.0000
  Sn  Sn3       1.0  0.89300  0.00000  0.60700  1.0000
  Sn  Sn4       1.0  0.60700  0.00000  0.89300  1.0000
