data_image0
_chemical_formula_structural       Se8Ti5Tl
_chemical_formula_sum              "Se8 Ti5 Tl1"
_cell_length_a       3.55925
_cell_length_b       9.21766
_cell_length_c       9.56643
_cell_angle_alpha    104.087
_cell_angle_beta     100.721
_cell_angle_gamma    90

_space_group_name_H-M_alt    "P 1"
_space_group_IT_number       1

loop_
  _space_group_symop_operation_xyz
  'x, y, z'

loop_
  _atom_site_type_symbol
  _atom_site_label
  _atom_site_symmetry_multiplicity
  _atom_site_fract_x
  _atom_site_fract_y
  _atom_site_fract_z
  _atom_site_occupancy
  Se  Se1       1.0  0.07320  0.67900  0.14600  1.0000
  Se  Se2       1.0  0.58600  0.31900  0.17100  1.0000
  Se  Se3       1.0  0.66000  0.00000  0.32000  1.0000
  Se  Se4       1.0  0.74200  0.66100  0.48400  1.0000
  Se  Se5       1.0  0.25800  0.33900  0.51600  1.0000
  Se  Se6       1.0  0.34000  0.00019  0.68000  1.0000
  Se  Se7       1.0  0.41400  0.68100  0.82900  1.0000
  Se  Se8       1.0  0.92700  0.32100  0.85400  1.0000
  Ti  Ti1       1.0  0.50000  0.50000  0.00000  1.0000
  Ti  Ti2       1.0  0.15200  0.49800  0.30400  1.0000
  Ti  Ti3       1.0  0.20900  0.85000  0.41900  1.0000
  Ti  Ti4       1.0  0.79100  0.15000  0.58100  1.0000
  Ti  Ti5       1.0  0.84800  0.50200  0.69600  1.0000
  Tl  Tl1       1.0  0.00000  0.00000  0.00000  1.0000
