data_image0
_chemical_formula_structural       As6Ce8
_chemical_formula_sum              "As6 Ce8"
_cell_length_a       7.96528
_cell_length_b       7.96528
_cell_length_c       7.96528
_cell_angle_alpha    109.471
_cell_angle_beta     109.471
_cell_angle_gamma    109.471

_space_group_name_H-M_alt    "P 1"
_space_group_IT_number       1

loop_
  _space_group_symop_operation_xyz
  'x, y, z'

loop_
  _atom_site_type_symbol
  _atom_site_label
  _atom_site_symmetry_multiplicity
  _atom_site_fract_x
  _atom_site_fract_y
  _atom_site_fract_z
  _atom_site_occupancy
  As  As1       1.0  0.87500  0.75000  0.12500  1.0000
  As  As2       1.0  0.12500  0.37500  0.25000  1.0000
  As  As3       1.0  0.62500  0.25000  0.37500  1.0000
  As  As4       1.0  0.75000  0.87500  0.62500  1.0000
  As  As5       1.0  0.37500  0.12500  0.75000  1.0000
  As  As6       1.0  0.25000  0.62500  0.87500  1.0000
  Ce  Ce1       1.0  0.13300  0.00000  0.00000  1.0000
  Ce  Ce2       1.0  0.63300  0.00000  0.00000  1.0000
  Ce  Ce3       1.0  0.50000  0.50000  0.13300  1.0000
  Ce  Ce4       1.0  0.36700  0.86700  0.36700  1.0000
  Ce  Ce5       1.0  0.00000  0.63300  0.50000  1.0000
  Ce  Ce6       1.0  0.00000  0.13300  0.50000  1.0000
  Ce  Ce7       1.0  0.50000  0.50000  0.63300  1.0000
  Ce  Ce8       1.0  0.86700  0.36700  0.86700  1.0000
