data_image0
_chemical_formula_structural       BaFe4O8Sr
_chemical_formula_sum              "Ba1 Fe4 O8 Sr1"
_cell_length_a       5.46979
_cell_length_b       5.46981
_cell_length_c       8.06452
_cell_angle_alpha    90.0004
_cell_angle_beta     89.9998
_cell_angle_gamma    120

_space_group_name_H-M_alt    "P 1"
_space_group_IT_number       1

loop_
  _space_group_symop_operation_xyz
  'x, y, z'

loop_
  _atom_site_type_symbol
  _atom_site_label
  _atom_site_symmetry_multiplicity
  _atom_site_fract_x
  _atom_site_fract_y
  _atom_site_fract_z
  _atom_site_occupancy
  Ba  Ba1       1.0  0.00000  0.00000  0.00000  1.0000
  Fe  Fe1       1.0  0.66700  0.33300  0.23100  1.0000
  Fe  Fe2       1.0  0.33300  0.66700  0.23100  1.0000
  Fe  Fe3       1.0  0.66700  0.33300  0.76900  1.0000
  Fe  Fe4       1.0  0.33300  0.66700  0.76900  1.0000
  O   O1        1.0  0.66700  0.33300  0.00000  1.0000
  O   O2        1.0  0.33300  0.66700  0.00000  1.0000
  O   O3        1.0  0.00000  0.33500  0.29400  1.0000
  O   O4        1.0  0.33500  0.00000  0.29400  1.0000
  O   O5        1.0  0.66500  0.66500  0.29400  1.0000
  O   O6        1.0  0.66500  0.00001  0.70600  1.0000
  O   O7        1.0  0.33500  0.33500  0.70600  1.0000
  O   O8        1.0  0.00000  0.66500  0.70600  1.0000
  Sr  Sr1       1.0  0.00000  0.00000  0.50000  1.0000
