data_image0
_chemical_formula_structural       P10Pr2
_chemical_formula_sum              "P10 Pr2"
_cell_length_a       5.04514
_cell_length_b       9.62568
_cell_length_c       5.49188
_cell_angle_alpha    90
_cell_angle_beta     102.384
_cell_angle_gamma    90

_space_group_name_H-M_alt    "P 1"
_space_group_IT_number       1

loop_
  _space_group_symop_operation_xyz
  'x, y, z'

loop_
  _atom_site_type_symbol
  _atom_site_label
  _atom_site_symmetry_multiplicity
  _atom_site_fract_x
  _atom_site_fract_y
  _atom_site_fract_z
  _atom_site_occupancy
  P   P1        1.0  0.38500  0.59000  0.04700  1.0000
  P   P2        1.0  0.38500  0.91000  0.04700  1.0000
  P   P3        1.0  0.71100  0.75000  0.09670  1.0000
  P   P4        1.0  0.29300  0.53100  0.40200  1.0000
  P   P5        1.0  0.29300  0.96900  0.40200  1.0000
  P   P6        1.0  0.70700  0.03140  0.59800  1.0000
  P   P7        1.0  0.70700  0.46900  0.59800  1.0000
  P   P8        1.0  0.28900  0.25000  0.90300  1.0000
  P   P9        1.0  0.61500  0.09050  0.95300  1.0000
  P   P10       1.0  0.61500  0.41000  0.95300  1.0000
  Pr  Pr1       1.0  0.01220  0.25000  0.35000  1.0000
  Pr  Pr2       1.0  0.98800  0.75000  0.65000  1.0000
