data_image0
_chemical_formula_structural       Ba2In4Te8
_chemical_formula_sum              "Ba2 In4 Te8"
_cell_length_a       7.0962
_cell_length_b       7.0962
_cell_length_c       12.3233
_cell_angle_alpha    90
_cell_angle_beta     90
_cell_angle_gamma    118.828

_space_group_name_H-M_alt    "P 1"
_space_group_IT_number       1

loop_
  _space_group_symop_operation_xyz
  'x, y, z'

loop_
  _atom_site_type_symbol
  _atom_site_label
  _atom_site_symmetry_multiplicity
  _atom_site_fract_x
  _atom_site_fract_y
  _atom_site_fract_z
  _atom_site_occupancy
  Ba  Ba1       1.0  0.50000  0.50000  0.25000  1.0000
  Ba  Ba2       1.0  0.50000  0.50000  0.75000  1.0000
  In  In1       1.0  0.75900  0.23800  0.00000  1.0000
  In  In2       1.0  0.24100  0.76200  0.00000  1.0000
  In  In3       1.0  0.76200  0.24100  0.50000  1.0000
  In  In4       1.0  0.23800  0.75900  0.50000  1.0000
  Te  Te1       1.0  0.19600  0.33800  0.00000  1.0000
  Te  Te2       1.0  0.80400  0.66200  0.00000  1.0000
  Te  Te3       1.0  0.50000  0.00000  0.17900  1.0000
  Te  Te4       1.0  0.00000  0.50000  0.32100  1.0000
  Te  Te5       1.0  0.33800  0.19600  0.50000  1.0000
  Te  Te6       1.0  0.66200  0.80400  0.50000  1.0000
  Te  Te7       1.0  0.00000  0.50000  0.67900  1.0000
  Te  Te8       1.0  0.50000  0.00000  0.82100  1.0000
