data_image0
_chemical_formula_structural       Er10Ir4
_chemical_formula_sum              "Er10 Ir4"
_cell_length_a       6.42525
_cell_length_b       7.16011
_cell_length_c       8.39262
_cell_angle_alpha    96.5345
_cell_angle_beta     112.507
_cell_angle_gamma    90

_space_group_name_H-M_alt    "P 1"
_space_group_IT_number       1

loop_
  _space_group_symop_operation_xyz
  'x, y, z'

loop_
  _atom_site_type_symbol
  _atom_site_label
  _atom_site_symmetry_multiplicity
  _atom_site_fract_x
  _atom_site_fract_y
  _atom_site_fract_z
  _atom_site_occupancy
  Er  Er1       1.0  0.42800  0.75000  1.00000  1.0000
  Er  Er2       1.0  0.57200  0.25000  0.00000  1.0000
  Er  Er3       1.0  0.97100  0.92000  0.18300  1.0000
  Er  Er4       1.0  0.21200  0.42000  0.18300  1.0000
  Er  Er5       1.0  0.65400  0.81700  0.44100  1.0000
  Er  Er6       1.0  0.78700  0.31700  0.44100  1.0000
  Er  Er7       1.0  0.34600  0.18300  0.55900  1.0000
  Er  Er8       1.0  0.21300  0.68300  0.55900  1.0000
  Er  Er9       1.0  0.02900  0.08020  0.81700  1.0000
  Er  Er10      1.0  0.78800  0.58000  0.81700  1.0000
  Ir  Ir1       1.0  0.82600  0.57300  0.21900  1.0000
  Ir  Ir2       1.0  0.39300  0.07300  0.21900  1.0000
  Ir  Ir3       1.0  0.60700  0.92700  0.78100  1.0000
  Ir  Ir4       1.0  0.17400  0.42700  0.78100  1.0000
