data_image0
_chemical_formula_structural       Nb2Ni2Te10
_chemical_formula_sum              "Nb2 Ni2 Te10"
_cell_length_a       6.98266
_cell_length_b       3.69242
_cell_length_c       15.3231
_cell_angle_alpha    90
_cell_angle_beta     90
_cell_angle_gamma    105.331

_space_group_name_H-M_alt    "P 1"
_space_group_IT_number       1

loop_
  _space_group_symop_operation_xyz
  'x, y, z'

loop_
  _atom_site_type_symbol
  _atom_site_label
  _atom_site_symmetry_multiplicity
  _atom_site_fract_x
  _atom_site_fract_y
  _atom_site_fract_z
  _atom_site_occupancy
  Nb  Nb1       1.0  0.02360  0.51200  0.25000  1.0000
  Nb  Nb2       1.0  0.97600  0.48800  0.75000  1.0000
  Ni  Ni1       1.0  0.00000  0.00000  0.00000  1.0000
  Ni  Ni2       1.0  0.00000  0.00000  0.50000  1.0000
  Te  Te1       1.0  0.20700  0.60300  0.07630  1.0000
  Te  Te2       1.0  0.80100  0.90000  0.14500  1.0000
  Te  Te3       1.0  0.34600  0.17300  0.25000  1.0000
  Te  Te4       1.0  0.80100  0.90000  0.35500  1.0000
  Te  Te5       1.0  0.20700  0.60300  0.42400  1.0000
  Te  Te6       1.0  0.79300  0.39700  0.57600  1.0000
  Te  Te7       1.0  0.19900  0.09950  0.64500  1.0000
  Te  Te8       1.0  0.65400  0.82700  0.75000  1.0000
  Te  Te9       1.0  0.19900  0.09950  0.85500  1.0000
  Te  Te10      1.0  0.79300  0.39700  0.92400  1.0000
