data_image0
_chemical_formula_structural       Cs4Ge2Se8
_chemical_formula_sum              "Cs4 Ge2 Se8"
_cell_length_a       7.82868
_cell_length_b       8.74878
_cell_length_c       9.97956
_cell_angle_alpha    92.2161
_cell_angle_beta     113.094
_cell_angle_gamma    116.578

_space_group_name_H-M_alt    "P 1"
_space_group_IT_number       1

loop_
  _space_group_symop_operation_xyz
  'x, y, z'

loop_
  _atom_site_type_symbol
  _atom_site_label
  _atom_site_symmetry_multiplicity
  _atom_site_fract_x
  _atom_site_fract_y
  _atom_site_fract_z
  _atom_site_occupancy
  Cs  Cs1       1.0  0.73300  0.32600  0.14000  1.0000
  Cs  Cs2       1.0  0.12800  0.97000  0.28600  1.0000
  Cs  Cs3       1.0  0.87200  0.03020  0.71400  1.0000
  Cs  Cs4       1.0  0.26700  0.67400  0.86000  1.0000
  Ge  Ge1       1.0  0.45400  0.61100  0.29600  1.0000
  Ge  Ge2       1.0  0.54600  0.38900  0.70400  1.0000
  Se  Se1       1.0  0.22800  0.35300  0.10200  1.0000
  Se  Se2       1.0  0.58500  0.90000  0.27000  1.0000
  Se  Se3       1.0  0.30400  0.63800  0.46600  1.0000
  Se  Se4       1.0  0.80000  0.63800  0.46600  1.0000
  Se  Se5       1.0  0.20000  0.36200  0.53400  1.0000
  Se  Se6       1.0  0.69600  0.36200  0.53400  1.0000
  Se  Se7       1.0  0.41500  0.09960  0.73000  1.0000
  Se  Se8       1.0  0.77200  0.64700  0.89800  1.0000
