data_image0
_chemical_formula_structural       Er6Pd8
_chemical_formula_sum              "Er6 Pd8"
_cell_length_a       5.7161
_cell_length_b       7.77459
_cell_length_c       7.77459
_cell_angle_alpha    114.199
_cell_angle_beta     104.186
_cell_angle_gamma    104.186

_space_group_name_H-M_alt    "P 1"
_space_group_IT_number       1

loop_
  _space_group_symop_operation_xyz
  'x, y, z'

loop_
  _atom_site_type_symbol
  _atom_site_label
  _atom_site_symmetry_multiplicity
  _atom_site_fract_x
  _atom_site_fract_y
  _atom_site_fract_z
  _atom_site_occupancy
  Er  Er1       1.0  0.40400  0.38200  0.13000  1.0000
  Er  Er2       1.0  0.27400  0.87000  0.25200  1.0000
  Er  Er3       1.0  0.97800  0.25200  0.38200  1.0000
  Er  Er4       1.0  0.02200  0.74800  0.61800  1.0000
  Er  Er5       1.0  0.72600  0.13000  0.74800  1.0000
  Er  Er6       1.0  0.59600  0.61800  0.87000  1.0000
  Pd  Pd1       1.0  0.50000  0.00000  0.00000  1.0000
  Pd  Pd2       1.0  0.00000  0.00000  0.00000  1.0000
  Pd  Pd3       1.0  0.93500  0.48400  0.16400  1.0000
  Pd  Pd4       1.0  0.77000  0.83600  0.31900  1.0000
  Pd  Pd5       1.0  0.54900  0.31900  0.48400  1.0000
  Pd  Pd6       1.0  0.45100  0.68100  0.51600  1.0000
  Pd  Pd7       1.0  0.23000  0.16400  0.68100  1.0000
  Pd  Pd8       1.0  0.06540  0.51600  0.83600  1.0000
