data_image0
_chemical_formula_structural       C4Mn10
_chemical_formula_sum              "C4 Mn10"
_cell_length_a       4.46204
_cell_length_b       4.98615
_cell_length_c       6.20098
_cell_angle_alpha    96.9463
_cell_angle_beta     111.087
_cell_angle_gamma    90.0002

_space_group_name_H-M_alt    "P 1"
_space_group_IT_number       1

loop_
  _space_group_symop_operation_xyz
  'x, y, z'

loop_
  _atom_site_type_symbol
  _atom_site_label
  _atom_site_symmetry_multiplicity
  _atom_site_fract_x
  _atom_site_fract_y
  _atom_site_fract_z
  _atom_site_occupancy
  C   C1        1.0  0.43000  0.07890  0.22700  1.0000
  C   C2        1.0  0.79700  0.57900  0.22700  1.0000
  C   C3        1.0  0.57000  0.92100  0.77300  1.0000
  C   C4        1.0  0.20300  0.42100  0.77300  1.0000
  Mn  Mn1       1.0  0.43000  0.75000  0.00000  1.0000
  Mn  Mn2       1.0  0.57000  0.25000  0.00000  1.0000
  Mn  Mn3       1.0  0.01140  0.92000  0.20100  1.0000
  Mn  Mn4       1.0  0.18900  0.42000  0.20100  1.0000
  Mn  Mn5       1.0  0.80700  0.30700  0.43400  1.0000
  Mn  Mn6       1.0  0.62600  0.80700  0.43400  1.0000
  Mn  Mn7       1.0  0.37400  0.19300  0.56600  1.0000
  Mn  Mn8       1.0  0.19300  0.69300  0.56600  1.0000
  Mn  Mn9       1.0  0.81100  0.58000  0.79900  1.0000
  Mn  Mn10      1.0  0.98900  0.08040  0.79900  1.0000
