data_image0
_chemical_formula_structural       Cl8Gd4S2
_chemical_formula_sum              "Cl8 Gd4 S2"
_cell_length_a       6.37445
_cell_length_b       6.9242
_cell_length_c       8.26387
_cell_angle_alpha    97.3841
_cell_angle_beta     112.686
_cell_angle_gamma    90

_space_group_name_H-M_alt    "P 1"
_space_group_IT_number       1

loop_
  _space_group_symop_operation_xyz
  'x, y, z'

loop_
  _atom_site_type_symbol
  _atom_site_label
  _atom_site_symmetry_multiplicity
  _atom_site_fract_x
  _atom_site_fract_y
  _atom_site_fract_z
  _atom_site_occupancy
  Cl  Cl1       1.0  0.69000  0.42300  0.17900  1.0000
  Cl  Cl2       1.0  0.48900  0.92300  0.17900  1.0000
  Cl  Cl3       1.0  0.30000  0.31900  0.43800  1.0000
  Cl  Cl4       1.0  0.13700  0.81900  0.43800  1.0000
  Cl  Cl5       1.0  0.86300  0.18100  0.56200  1.0000
  Cl  Cl6       1.0  0.70000  0.68100  0.56200  1.0000
  Cl  Cl7       1.0  0.51100  0.07750  0.82100  1.0000
  Cl  Cl8       1.0  0.31000  0.57700  0.82100  1.0000
  Gd  Gd1       1.0  0.90200  0.07780  0.21500  1.0000
  Gd  Gd2       1.0  0.31300  0.57800  0.21500  1.0000
  Gd  Gd3       1.0  0.09830  0.92200  0.78500  1.0000
  Gd  Gd4       1.0  0.68700  0.42200  0.78500  1.0000
  S   S1        1.0  0.06400  0.25000  0.00000  1.0000
  S   S2        1.0  0.93600  0.75000  0.00000  1.0000
