data_image0
_chemical_formula_structural       K2Se8Sn4
_chemical_formula_sum              "K2 Se8 Sn4"
_cell_length_a       6.61493
_cell_length_b       7.59837
_cell_length_c       10.2321
_cell_angle_alpha    91.8834
_cell_angle_beta     71.1409
_cell_angle_gamma    95.8356

_space_group_name_H-M_alt    "P 1"
_space_group_IT_number       1

loop_
  _space_group_symop_operation_xyz
  'x, y, z'

loop_
  _atom_site_type_symbol
  _atom_site_label
  _atom_site_symmetry_multiplicity
  _atom_site_fract_x
  _atom_site_fract_y
  _atom_site_fract_z
  _atom_site_occupancy
  K   K1        1.0  0.65700  0.96600  0.31300  1.0000
  K   K2        1.0  0.97000  0.96600  0.68700  1.0000
  Se  Se1       1.0  0.63400  0.12300  0.00000  1.0000
  Se  Se2       1.0  0.62900  0.67000  0.00000  1.0000
  Se  Se3       1.0  0.04160  0.35100  0.19500  1.0000
  Se  Se4       1.0  0.14400  0.87700  0.32700  1.0000
  Se  Se5       1.0  0.50600  0.45900  0.38000  1.0000
  Se  Se6       1.0  0.88600  0.45900  0.62000  1.0000
  Se  Se7       1.0  0.47000  0.87700  0.67300  1.0000
  Se  Se8       1.0  0.23600  0.35100  0.80500  1.0000
  Sn  Sn1       1.0  0.41200  0.37600  0.00000  1.0000
  Sn  Sn2       1.0  0.31100  0.86800  0.00000  1.0000
  Sn  Sn3       1.0  0.14000  0.55600  0.37700  1.0000
  Sn  Sn4       1.0  0.51700  0.55600  0.62300  1.0000
