data_image0
_chemical_formula_structural       Ba6Fe2N6
_chemical_formula_sum              "Ba6 Fe2 N6"
_cell_length_a       8.02227
_cell_length_b       8.02302
_cell_length_c       5.60405
_cell_angle_alpha    90
_cell_angle_beta     90
_cell_angle_gamma    119.978

_space_group_name_H-M_alt    "P 1"
_space_group_IT_number       1

loop_
  _space_group_symop_operation_xyz
  'x, y, z'

loop_
  _atom_site_type_symbol
  _atom_site_label
  _atom_site_symmetry_multiplicity
  _atom_site_fract_x
  _atom_site_fract_y
  _atom_site_fract_z
  _atom_site_occupancy
  Ba  Ba1       1.0  0.27500  0.36300  0.25000  1.0000
  Ba  Ba2       1.0  0.08890  0.72500  0.25000  1.0000
  Ba  Ba3       1.0  0.63700  0.91100  0.25000  1.0000
  Ba  Ba4       1.0  0.36300  0.08890  0.75000  1.0000
  Ba  Ba5       1.0  0.91100  0.27500  0.75000  1.0000
  Ba  Ba6       1.0  0.72500  0.63700  0.75000  1.0000
  Fe  Fe1       1.0  0.66700  0.33300  0.25000  1.0000
  Fe  Fe2       1.0  0.33300  0.66700  0.75000  1.0000
  N   N1        1.0  0.44200  0.12700  0.25000  1.0000
  N   N2        1.0  0.87300  0.31500  0.25000  1.0000
  N   N3        1.0  0.68500  0.55800  0.25000  1.0000
  N   N4        1.0  0.31500  0.44200  0.75000  1.0000
  N   N5        1.0  0.12700  0.68500  0.75000  1.0000
  N   N6        1.0  0.55800  0.87300  0.75000  1.0000
