data_image0
_chemical_formula_structural       B6Cl2Pr4
_chemical_formula_sum              "B6 Cl2 Pr4"
_cell_length_a       3.6034
_cell_length_b       3.60353
_cell_length_c       17.5641
_cell_angle_alpha    90
_cell_angle_beta     90
_cell_angle_gamma    119.999

_space_group_name_H-M_alt    "P 1"
_space_group_IT_number       1

loop_
  _space_group_symop_operation_xyz
  'x, y, z'

loop_
  _atom_site_type_symbol
  _atom_site_label
  _atom_site_symmetry_multiplicity
  _atom_site_fract_x
  _atom_site_fract_y
  _atom_site_fract_z
  _atom_site_occupancy
  B   B1        1.0  0.16600  0.33300  0.25000  1.0000
  B   B2        1.0  0.16600  0.83400  0.25000  1.0000
  B   B3        1.0  0.66700  0.83400  0.25000  1.0000
  B   B4        1.0  0.33300  0.16600  0.75000  1.0000
  B   B5        1.0  0.83400  0.16600  0.75000  1.0000
  B   B6        1.0  0.83400  0.66700  0.75000  1.0000
  Cl  Cl1       1.0  0.00000  0.00000  0.00000  1.0000
  Cl  Cl2       1.0  0.00000  0.00000  0.50000  1.0000
  Pr  Pr1       1.0  0.66700  0.33300  0.12900  1.0000
  Pr  Pr2       1.0  0.66700  0.33300  0.37100  1.0000
  Pr  Pr3       1.0  0.33300  0.66700  0.62900  1.0000
  Pr  Pr4       1.0  0.33300  0.66700  0.87100  1.0000
