data_image0
_chemical_formula_structural       Ge4Ir4Yb4
_chemical_formula_sum              "Ge4 Ir4 Yb4"
_cell_length_a       7.13509
_cell_length_b       4.34537
_cell_length_c       7.22097
_cell_angle_alpha    90
_cell_angle_beta     90
_cell_angle_gamma    90

_space_group_name_H-M_alt    "P 1"
_space_group_IT_number       1

loop_
  _space_group_symop_operation_xyz
  'x, y, z'

loop_
  _atom_site_type_symbol
  _atom_site_label
  _atom_site_symmetry_multiplicity
  _atom_site_fract_x
  _atom_site_fract_y
  _atom_site_fract_z
  _atom_site_occupancy
  Ge  Ge1       1.0  0.19800  0.25000  0.11100  1.0000
  Ge  Ge2       1.0  0.69800  0.25000  0.38900  1.0000
  Ge  Ge3       1.0  0.30200  0.75000  0.61100  1.0000
  Ge  Ge4       1.0  0.80200  0.75000  0.88900  1.0000
  Ir  Ir1       1.0  0.84600  0.25000  0.06900  1.0000
  Ir  Ir2       1.0  0.34600  0.25000  0.43100  1.0000
  Ir  Ir3       1.0  0.65400  0.75000  0.56900  1.0000
  Ir  Ir4       1.0  0.15400  0.75000  0.93100  1.0000
  Yb  Yb1       1.0  0.49600  0.75000  0.18200  1.0000
  Yb  Yb2       1.0  0.99600  0.75000  0.31800  1.0000
  Yb  Yb3       1.0  0.00378  0.25000  0.68200  1.0000
  Yb  Yb4       1.0  0.50400  0.25000  0.81800  1.0000
