data_image0
_chemical_formula_structural       I10Pr4
_chemical_formula_sum              "I10 Pr4"
_cell_length_a       9.07273
_cell_length_b       4.36191
_cell_length_c       16.9892
_cell_angle_alpha    90
_cell_angle_beta     119.667
_cell_angle_gamma    90

_space_group_name_H-M_alt    "P 1"
_space_group_IT_number       1

loop_
  _space_group_symop_operation_xyz
  'x, y, z'

loop_
  _atom_site_type_symbol
  _atom_site_label
  _atom_site_symmetry_multiplicity
  _atom_site_fract_x
  _atom_site_fract_y
  _atom_site_fract_z
  _atom_site_occupancy
  I   I1        1.0  0.32400  0.75000  0.01160  1.0000
  I   I2        1.0  0.24300  0.25000  0.18700  1.0000
  I   I3        1.0  0.86400  0.75000  0.21900  1.0000
  I   I4        1.0  0.73100  0.25000  0.37700  1.0000
  I   I5        1.0  0.28600  0.25000  0.42800  1.0000
  I   I6        1.0  0.71400  0.75000  0.57200  1.0000
  I   I7        1.0  0.26900  0.75000  0.62300  1.0000
  I   I8        1.0  0.13600  0.25000  0.78100  1.0000
  I   I9        1.0  0.75700  0.75000  0.81300  1.0000
  I   I10       1.0  0.67600  0.25000  0.98800  1.0000
  Pr  Pr1       1.0  0.57300  0.25000  0.15800  1.0000
  Pr  Pr2       1.0  0.44500  0.75000  0.34700  1.0000
  Pr  Pr3       1.0  0.55500  0.25000  0.65300  1.0000
  Pr  Pr4       1.0  0.42700  0.75000  0.84200  1.0000
