data_image0
_chemical_formula_structural       F8Na4Pd2
_chemical_formula_sum              "F8 Na4 Pd2"
_cell_length_a       3.29583
_cell_length_b       5.55655
_cell_length_c       9.58309
_cell_angle_alpha    90
_cell_angle_beta     92.6684
_cell_angle_gamma    90

_space_group_name_H-M_alt    "P 1"
_space_group_IT_number       1

loop_
  _space_group_symop_operation_xyz
  'x, y, z'

loop_
  _atom_site_type_symbol
  _atom_site_label
  _atom_site_symmetry_multiplicity
  _atom_site_fract_x
  _atom_site_fract_y
  _atom_site_fract_z
  _atom_site_occupancy
  F   F1        1.0  0.22200  0.69400  0.07840  1.0000
  F   F2        1.0  0.22400  0.18500  0.16400  1.0000
  F   F3        1.0  0.77600  0.68500  0.33600  1.0000
  F   F4        1.0  0.77800  0.19400  0.42200  1.0000
  F   F5        1.0  0.22200  0.80600  0.57800  1.0000
  F   F6        1.0  0.22400  0.31500  0.66400  1.0000
  F   F7        1.0  0.77600  0.81500  0.83600  1.0000
  F   F8        1.0  0.77800  0.30600  0.92200  1.0000
  Na  Na1       1.0  0.72100  0.45400  0.15300  1.0000
  Na  Na2       1.0  0.27900  0.95400  0.34700  1.0000
  Na  Na3       1.0  0.72100  0.04600  0.65300  1.0000
  Na  Na4       1.0  0.27900  0.54600  0.84700  1.0000
  Pd  Pd1       1.0  0.00000  0.00000  0.00000  1.0000
  Pd  Pd2       1.0  0.00000  0.50000  0.50000  1.0000
