data_image0
_chemical_formula_structural       AuO8RbS2
_chemical_formula_sum              "Au1 O8 Rb1 S2"
_cell_length_a       4.2049
_cell_length_b       4.90516
_cell_length_c       8.83974
_cell_angle_alpha    76.2033
_cell_angle_beta     88.2849
_cell_angle_gamma    73.1301

_space_group_name_H-M_alt    "P 1"
_space_group_IT_number       1

loop_
  _space_group_symop_operation_xyz
  'x, y, z'

loop_
  _atom_site_type_symbol
  _atom_site_label
  _atom_site_symmetry_multiplicity
  _atom_site_fract_x
  _atom_site_fract_y
  _atom_site_fract_z
  _atom_site_occupancy
  Au  Au1       1.0  1.00000  0.00000  0.50000  1.0000
  O   O1        1.0  0.69000  0.03690  0.13500  1.0000
  O   O2        1.0  0.47000  0.61900  0.23900  1.0000
  O   O3        1.0  0.24300  0.10400  0.30400  1.0000
  O   O4        1.0  0.78300  0.74900  0.41200  1.0000
  O   O5        1.0  0.21700  0.25100  0.58800  1.0000
  O   O6        1.0  0.75700  0.89600  0.69600  1.0000
  O   O7        1.0  0.53000  0.38100  0.76100  1.0000
  O   O8        1.0  0.31000  0.96300  0.86500  1.0000
  Rb  Rb1       1.0  0.00000  0.50000  0.00000  1.0000
  S   S1        1.0  0.55100  0.87200  0.26400  1.0000
  S   S2        1.0  0.44900  0.12800  0.73600  1.0000
