data_image0
_chemical_formula_structural       Cs4Hg2I8
_chemical_formula_sum              "Cs4 Hg2 I8"
_cell_length_a       11.3279
_cell_length_b       8.02591
_cell_length_c       8.49409
_cell_angle_alpha    90
_cell_angle_beta     90
_cell_angle_gamma    111.308

_space_group_name_H-M_alt    "P 1"
_space_group_IT_number       1

loop_
  _space_group_symop_operation_xyz
  'x, y, z'

loop_
  _atom_site_type_symbol
  _atom_site_label
  _atom_site_symmetry_multiplicity
  _atom_site_fract_x
  _atom_site_fract_y
  _atom_site_fract_z
  _atom_site_occupancy
  Cs  Cs1       1.0  0.90900  0.21100  0.25700  1.0000
  Cs  Cs2       1.0  0.46600  0.66200  0.26100  1.0000
  Cs  Cs3       1.0  0.09150  0.78900  0.75700  1.0000
  Cs  Cs4       1.0  0.53400  0.33800  0.76100  1.0000
  Hg  Hg1       1.0  0.27600  0.08860  0.25600  1.0000
  Hg  Hg2       1.0  0.72400  0.91100  0.75600  1.0000
  I   I1        1.0  0.78500  0.74500  0.02380  1.0000
  I   I2        1.0  0.54800  0.19100  0.25400  1.0000
  I   I3        1.0  0.14400  0.71500  0.25900  1.0000
  I   I4        1.0  0.78800  0.74400  0.49200  1.0000
  I   I5        1.0  0.21500  0.25500  0.52400  1.0000
  I   I6        1.0  0.45200  0.80900  0.75400  1.0000
  I   I7        1.0  0.85600  0.28500  0.75900  1.0000
  I   I8        1.0  0.21200  0.25600  0.99200  1.0000
