data_image0
_chemical_formula_structural       Cr2F8Na4
_chemical_formula_sum              "Cr2 F8 Na4"
_cell_length_a       3.27302
_cell_length_b       9.16134
_cell_length_c       5.54203
_cell_angle_alpha    90
_cell_angle_beta     91.9054
_cell_angle_gamma    90

_space_group_name_H-M_alt    "P 1"
_space_group_IT_number       1

loop_
  _space_group_symop_operation_xyz
  'x, y, z'

loop_
  _atom_site_type_symbol
  _atom_site_label
  _atom_site_symmetry_multiplicity
  _atom_site_fract_x
  _atom_site_fract_y
  _atom_site_fract_z
  _atom_site_occupancy
  Cr  Cr1       1.0  0.00000  0.00000  0.00000  1.0000
  Cr  Cr2       1.0  0.00000  0.50000  0.50000  1.0000
  F   F1        1.0  0.00704  0.19800  0.13500  1.0000
  F   F2        1.0  0.42800  0.95000  0.24700  1.0000
  F   F3        1.0  0.57200  0.45000  0.25300  1.0000
  F   F4        1.0  0.99300  0.69800  0.36500  1.0000
  F   F5        1.0  0.00703  0.30200  0.63500  1.0000
  F   F6        1.0  0.42800  0.55000  0.74700  1.0000
  F   F7        1.0  0.57200  0.04960  0.75300  1.0000
  F   F8        1.0  0.99300  0.80200  0.86500  1.0000
  Na  Na1       1.0  0.49000  0.68300  0.07900  1.0000
  Na  Na2       1.0  0.51000  0.18300  0.42100  1.0000
  Na  Na3       1.0  0.49000  0.81700  0.57900  1.0000
  Na  Na4       1.0  0.51000  0.31700  0.92100  1.0000
