data_image0
_chemical_formula_structural       RbSe8V5
_chemical_formula_sum              "Rb1 Se8 V5"
_cell_length_a       3.66893
_cell_length_b       9.00231
_cell_length_c       9.48699
_cell_angle_alpha    103.785
_cell_angle_beta     101.149
_cell_angle_gamma    90

_space_group_name_H-M_alt    "P 1"
_space_group_IT_number       1

loop_
  _space_group_symop_operation_xyz
  'x, y, z'

loop_
  _atom_site_type_symbol
  _atom_site_label
  _atom_site_symmetry_multiplicity
  _atom_site_fract_x
  _atom_site_fract_y
  _atom_site_fract_z
  _atom_site_occupancy
  Rb  Rb1       1.0  0.50000  0.50000  0.00000  1.0000
  Se  Se1       1.0  0.57200  0.17300  0.14400  1.0000
  Se  Se2       1.0  0.08830  0.82400  0.17700  1.0000
  Se  Se3       1.0  0.16300  0.49000  0.32600  1.0000
  Se  Se4       1.0  0.24000  0.15600  0.48000  1.0000
  Se  Se5       1.0  0.76000  0.84400  0.52000  1.0000
  Se  Se6       1.0  0.83700  0.51000  0.67400  1.0000
  Se  Se7       1.0  0.91200  0.17600  0.82300  1.0000
  Se  Se8       1.0  0.42800  0.82700  0.85600  1.0000
  V   V1        1.0  0.00000  0.00000  0.00000  1.0000
  V   V2        1.0  0.65100  0.99300  0.30200  1.0000
  V   V3        1.0  0.71200  0.34700  0.42300  1.0000
  V   V4        1.0  0.28800  0.65300  0.57700  1.0000
  V   V5        1.0  0.34900  0.00699  0.69800  1.0000
