data_image0
_chemical_formula_structural       Eu4Ge4Pd4
_chemical_formula_sum              "Eu4 Ge4 Pd4"
_cell_length_a       6.12767
_cell_length_b       6.03169
_cell_length_c       7.44903
_cell_angle_alpha    90
_cell_angle_beta     108.484
_cell_angle_gamma    90

_space_group_name_H-M_alt    "P 1"
_space_group_IT_number       1

loop_
  _space_group_symop_operation_xyz
  'x, y, z'

loop_
  _atom_site_type_symbol
  _atom_site_label
  _atom_site_symmetry_multiplicity
  _atom_site_fract_x
  _atom_site_fract_y
  _atom_site_fract_z
  _atom_site_occupancy
  Eu  Eu1       1.0  0.32200  0.13700  0.11200  1.0000
  Eu  Eu2       1.0  0.17800  0.63700  0.38800  1.0000
  Eu  Eu3       1.0  0.82200  0.36300  0.61200  1.0000
  Eu  Eu4       1.0  0.67800  0.86300  0.88800  1.0000
  Ge  Ge1       1.0  0.82500  0.37000  0.04960  1.0000
  Ge  Ge2       1.0  0.67500  0.87000  0.45000  1.0000
  Ge  Ge3       1.0  0.32500  0.13000  0.55000  1.0000
  Ge  Ge4       1.0  0.17500  0.63000  0.95000  1.0000
  Pd  Pd1       1.0  0.57200  0.60200  0.18700  1.0000
  Pd  Pd2       1.0  0.92800  0.10200  0.31300  1.0000
  Pd  Pd3       1.0  0.07170  0.89800  0.68700  1.0000
  Pd  Pd4       1.0  0.42800  0.39800  0.81300  1.0000
