data_image0
_chemical_formula_structural       I8Tl4Zn2
_chemical_formula_sum              "I8 Tl4 Zn2"
_cell_length_a       7.90248
_cell_length_b       8.23342
_cell_length_c       10.3668
_cell_angle_alpha    90
_cell_angle_beta     118.487
_cell_angle_gamma    90

_space_group_name_H-M_alt    "P 1"
_space_group_IT_number       1

loop_
  _space_group_symop_operation_xyz
  'x, y, z'

loop_
  _atom_site_type_symbol
  _atom_site_label
  _atom_site_symmetry_multiplicity
  _atom_site_fract_x
  _atom_site_fract_y
  _atom_site_fract_z
  _atom_site_occupancy
  I   I1        1.0  0.67300  0.44000  0.07760  1.0000
  I   I2        1.0  0.27700  0.24200  0.25400  1.0000
  I   I3        1.0  0.24300  0.73800  0.27000  1.0000
  I   I4        1.0  0.79400  0.94600  0.37600  1.0000
  I   I5        1.0  0.20600  0.44600  0.62400  1.0000
  I   I6        1.0  0.75700  0.23800  0.73000  1.0000
  I   I7        1.0  0.72300  0.74200  0.74600  1.0000
  I   I8        1.0  0.32700  0.94000  0.92200  1.0000
  Tl  Tl1       1.0  0.82300  0.01690  0.05420  1.0000
  Tl  Tl2       1.0  0.68700  0.53100  0.43300  1.0000
  Tl  Tl3       1.0  0.31300  0.03070  0.56700  1.0000
  Tl  Tl4       1.0  0.17700  0.51700  0.94600  1.0000
  Zn  Zn1       1.0  0.41800  0.97400  0.20200  1.0000
  Zn  Zn2       1.0  0.58200  0.47400  0.79800  1.0000
