data_image0
_chemical_formula_structural       Eu2In4S8
_chemical_formula_sum              "Eu2 In4 S8"
_cell_length_a       6.11589
_cell_length_b       6.11589
_cell_length_c       10.4326
_cell_angle_alpha    90
_cell_angle_beta     90
_cell_angle_gamma    114.927

_space_group_name_H-M_alt    "P 1"
_space_group_IT_number       1

loop_
  _space_group_symop_operation_xyz
  'x, y, z'

loop_
  _atom_site_type_symbol
  _atom_site_label
  _atom_site_symmetry_multiplicity
  _atom_site_fract_x
  _atom_site_fract_y
  _atom_site_fract_z
  _atom_site_occupancy
  Eu  Eu1       1.0  0.50000  0.50000  0.25000  1.0000
  Eu  Eu2       1.0  0.50000  0.50000  0.75000  1.0000
  In  In1       1.0  0.77500  0.21900  0.00000  1.0000
  In  In2       1.0  0.22500  0.78100  0.00000  1.0000
  In  In3       1.0  0.78100  0.22500  0.50000  1.0000
  In  In4       1.0  0.21900  0.77500  0.50000  1.0000
  S   S1        1.0  0.21500  0.35700  0.00000  1.0000
  S   S2        1.0  0.78500  0.64300  0.00000  1.0000
  S   S3        1.0  0.50000  0.00000  0.18100  1.0000
  S   S4        1.0  0.00000  0.50000  0.31900  1.0000
  S   S5        1.0  0.35700  0.21500  0.50000  1.0000
  S   S6        1.0  0.64300  0.78500  0.50000  1.0000
  S   S7        1.0  0.00000  0.50000  0.68100  1.0000
  S   S8        1.0  0.50000  0.00000  0.81900  1.0000
