data_image0
_chemical_formula_structural       Er6Pt8
_chemical_formula_sum              "Er6 Pt8"
_cell_length_a       5.6829
_cell_length_b       7.77242
_cell_length_c       7.77242
_cell_angle_alpha    114.261
_cell_angle_beta     104.106
_cell_angle_gamma    104.106

_space_group_name_H-M_alt    "P 1"
_space_group_IT_number       1

loop_
  _space_group_symop_operation_xyz
  'x, y, z'

loop_
  _atom_site_type_symbol
  _atom_site_label
  _atom_site_symmetry_multiplicity
  _atom_site_fract_x
  _atom_site_fract_y
  _atom_site_fract_z
  _atom_site_occupancy
  Er  Er1       1.0  0.40400  0.37900  0.12400  1.0000
  Er  Er2       1.0  0.28000  0.87600  0.25400  1.0000
  Er  Er3       1.0  0.97400  0.25400  0.37900  1.0000
  Er  Er4       1.0  0.02570  0.74600  0.62100  1.0000
  Er  Er5       1.0  0.72000  0.12400  0.74600  1.0000
  Er  Er6       1.0  0.59600  0.62100  0.87600  1.0000
  Pt  Pt1       1.0  0.00000  0.00000  0.00000  1.0000
  Pt  Pt2       1.0  0.50000  0.00000  0.00000  1.0000
  Pt  Pt3       1.0  0.93700  0.48900  0.16400  1.0000
  Pt  Pt4       1.0  0.77300  0.83600  0.32500  1.0000
  Pt  Pt5       1.0  0.55200  0.32500  0.48900  1.0000
  Pt  Pt6       1.0  0.44800  0.67500  0.51100  1.0000
  Pt  Pt7       1.0  0.22700  0.16400  0.67500  1.0000
  Pt  Pt8       1.0  0.06250  0.51100  0.83600  1.0000
