data_image0
_chemical_formula_structural       K2Na2O8S2
_chemical_formula_sum              "K2 Na2 O8 S2"
_cell_length_a       5.55099
_cell_length_b       5.55093
_cell_length_c       7.09271
_cell_angle_alpha    90
_cell_angle_beta     90.001
_cell_angle_gamma    120

_space_group_name_H-M_alt    "P 1"
_space_group_IT_number       1

loop_
  _space_group_symop_operation_xyz
  'x, y, z'

loop_
  _atom_site_type_symbol
  _atom_site_label
  _atom_site_symmetry_multiplicity
  _atom_site_fract_x
  _atom_site_fract_y
  _atom_site_fract_z
  _atom_site_occupancy
  K   K1        1.0  0.00000  0.00000  0.00277  1.0000
  K   K2        1.0  0.33300  0.66700  0.33800  1.0000
  Na  Na1       1.0  0.00000  0.00000  0.50100  1.0000
  Na  Na2       1.0  0.66700  0.33300  0.69900  1.0000
  O   O1        1.0  0.33300  0.66700  0.98200  1.0000
  O   O2        1.0  0.66700  0.33300  0.01970  1.0000
  O   O3        1.0  0.81200  0.18800  0.30200  1.0000
  O   O4        1.0  0.81200  0.62400  0.30200  1.0000
  O   O5        1.0  0.37600  0.18800  0.30200  1.0000
  O   O6        1.0  0.62400  0.81200  0.70000  1.0000
  O   O7        1.0  0.18800  0.37600  0.70000  1.0000
  O   O8        1.0  0.18800  0.81200  0.70000  1.0000
  S   S1        1.0  0.66700  0.33300  0.22800  1.0000
  S   S2        1.0  0.33300  0.66700  0.77600  1.0000
