data_image0
_chemical_formula_structural       Ag6S6Sb2
_chemical_formula_sum              "Ag6 S6 Sb2"
_cell_length_a       7.09724
_cell_length_b       7.09724
_cell_length_c       7.09724
_cell_angle_alpha    102.234
_cell_angle_beta     102.234
_cell_angle_gamma    102.234

_space_group_name_H-M_alt    "P 1"
_space_group_IT_number       1

loop_
  _space_group_symop_operation_xyz
  'x, y, z'

loop_
  _atom_site_type_symbol
  _atom_site_label
  _atom_site_symmetry_multiplicity
  _atom_site_fract_x
  _atom_site_fract_y
  _atom_site_fract_z
  _atom_site_occupancy
  Ag  Ag1       1.0  0.90800  0.45200  0.24400  1.0000
  Ag  Ag2       1.0  0.74400  0.95200  0.40800  1.0000
  Ag  Ag3       1.0  0.24400  0.90800  0.45200  1.0000
  Ag  Ag4       1.0  0.95200  0.40800  0.74400  1.0000
  Ag  Ag5       1.0  0.45200  0.24400  0.90800  1.0000
  Ag  Ag6       1.0  0.40800  0.74400  0.95200  1.0000
  S   S1        1.0  0.75600  0.74600  0.08960  1.0000
  S   S2        1.0  0.25600  0.59000  0.24600  1.0000
  S   S3        1.0  0.59000  0.24600  0.25600  1.0000
  S   S4        1.0  0.24600  0.25600  0.59000  1.0000
  S   S5        1.0  0.08960  0.75600  0.74600  1.0000
  S   S6        1.0  0.74600  0.08960  0.75600  1.0000
  Sb  Sb1       1.0  0.99900  0.99900  0.99900  1.0000
  Sb  Sb2       1.0  0.49900  0.49900  0.49900  1.0000
