data_image0
_chemical_formula_structural       Eu2In4Se8
_chemical_formula_sum              "Eu2 In4 Se8"
_cell_length_a       6.39206
_cell_length_b       6.39206
_cell_length_c       10.951
_cell_angle_alpha    90
_cell_angle_beta     90
_cell_angle_gamma    115.629

_space_group_name_H-M_alt    "P 1"
_space_group_IT_number       1

loop_
  _space_group_symop_operation_xyz
  'x, y, z'

loop_
  _atom_site_type_symbol
  _atom_site_label
  _atom_site_symmetry_multiplicity
  _atom_site_fract_x
  _atom_site_fract_y
  _atom_site_fract_z
  _atom_site_occupancy
  Eu  Eu1       1.0  0.50000  0.50000  0.25000  1.0000
  Eu  Eu2       1.0  0.50000  0.50000  0.75000  1.0000
  In  In1       1.0  0.77000  0.22300  0.00000  1.0000
  In  In2       1.0  0.23000  0.77700  0.00000  1.0000
  In  In3       1.0  0.77700  0.23000  0.50000  1.0000
  In  In4       1.0  0.22300  0.77000  0.50000  1.0000
  Se  Se1       1.0  0.21600  0.35100  0.00000  1.0000
  Se  Se2       1.0  0.78400  0.64900  0.00000  1.0000
  Se  Se3       1.0  0.50000  0.00000  0.18400  1.0000
  Se  Se4       1.0  0.00000  0.50000  0.31600  1.0000
  Se  Se5       1.0  0.35100  0.21600  0.50000  1.0000
  Se  Se6       1.0  0.64900  0.78400  0.50000  1.0000
  Se  Se7       1.0  0.00000  0.50000  0.68400  1.0000
  Se  Se8       1.0  0.50000  0.00000  0.81600  1.0000
