data_image0
_chemical_formula_structural       Cs2Sb4Se8
_chemical_formula_sum              "Cs2 Sb4 Se8"
_cell_length_a       7.16417
_cell_length_b       9.95622
_cell_length_c       6.73586
_cell_angle_alpha    93.5904
_cell_angle_beta     105.247
_cell_angle_gamma    80.0503

_space_group_name_H-M_alt    "P 1"
_space_group_IT_number       1

loop_
  _space_group_symop_operation_xyz
  'x, y, z'

loop_
  _atom_site_type_symbol
  _atom_site_label
  _atom_site_symmetry_multiplicity
  _atom_site_fract_x
  _atom_site_fract_y
  _atom_site_fract_z
  _atom_site_occupancy
  Cs  Cs1       1.0  0.17900  0.06260  0.32500  1.0000
  Cs  Cs2       1.0  0.82100  0.93700  0.67500  1.0000
  Sb  Sb1       1.0  0.60300  0.66400  0.07290  1.0000
  Sb  Sb2       1.0  0.18900  0.53600  0.34700  1.0000
  Sb  Sb3       1.0  0.81100  0.46400  0.65300  1.0000
  Sb  Sb4       1.0  0.39700  0.33600  0.92700  1.0000
  Se  Se1       1.0  0.58600  0.08660  0.09890  1.0000
  Se  Se2       1.0  0.93400  0.76000  0.18000  1.0000
  Se  Se3       1.0  0.84600  0.39400  0.28400  1.0000
  Se  Se4       1.0  0.48200  0.70700  0.41200  1.0000
  Se  Se5       1.0  0.51800  0.29300  0.58800  1.0000
  Se  Se6       1.0  0.15400  0.60600  0.71600  1.0000
  Se  Se7       1.0  0.06640  0.24000  0.82000  1.0000
  Se  Se8       1.0  0.41400  0.91300  0.90100  1.0000
