data_image0
_chemical_formula_structural       In8Pt2Yb2
_chemical_formula_sum              "In8 Pt2 Yb2"
_cell_length_a       4.46398
_cell_length_b       7.61801
_cell_length_c       8.60748
_cell_angle_alpha    90
_cell_angle_beta     74.971
_cell_angle_gamma    90

_space_group_name_H-M_alt    "P 1"
_space_group_IT_number       1

loop_
  _space_group_symop_operation_xyz
  'x, y, z'

loop_
  _atom_site_type_symbol
  _atom_site_label
  _atom_site_symmetry_multiplicity
  _atom_site_fract_x
  _atom_site_fract_y
  _atom_site_fract_z
  _atom_site_occupancy
  In  In1       1.0  0.50000  0.00000  0.00000  1.0000
  In  In2       1.0  0.50000  0.50000  0.00000  1.0000
  In  In3       1.0  0.93700  0.75000  0.12500  1.0000
  In  In4       1.0  0.31900  0.54800  0.36200  1.0000
  In  In5       1.0  0.31900  0.95200  0.36200  1.0000
  In  In6       1.0  0.68100  0.04760  0.63800  1.0000
  In  In7       1.0  0.68100  0.45200  0.63800  1.0000
  In  In8       1.0  0.06270  0.25000  0.87500  1.0000
  Pt  Pt1       1.0  0.77200  0.75000  0.45600  1.0000
  Pt  Pt2       1.0  0.22800  0.25000  0.54400  1.0000
  Yb  Yb1       1.0  0.86800  0.25000  0.26300  1.0000
  Yb  Yb2       1.0  0.13200  0.75000  0.73700  1.0000
