data_image0
_chemical_formula_structural       In8Ir2Sr2
_chemical_formula_sum              "In8 Ir2 Sr2"
_cell_length_a       8.75255
_cell_length_b       4.35619
_cell_length_c       7.71098
_cell_angle_alpha    90
_cell_angle_beta     90
_cell_angle_gamma    90

_space_group_name_H-M_alt    "P 1"
_space_group_IT_number       1

loop_
  _space_group_symop_operation_xyz
  'x, y, z'

loop_
  _atom_site_type_symbol
  _atom_site_label
  _atom_site_symmetry_multiplicity
  _atom_site_fract_x
  _atom_site_fract_y
  _atom_site_fract_z
  _atom_site_occupancy
  In  In1       1.0  0.00000  0.00000  0.00000  1.0000
  In  In2       1.0  0.50000  0.00000  0.00000  1.0000
  In  In3       1.0  0.25000  0.50000  0.05910  1.0000
  In  In4       1.0  0.56600  0.50000  0.31000  1.0000
  In  In5       1.0  0.93400  0.50000  0.31000  1.0000
  In  In6       1.0  0.06610  0.50000  0.69000  1.0000
  In  In7       1.0  0.43400  0.50000  0.69000  1.0000
  In  In8       1.0  0.75000  0.50000  0.94100  1.0000
  Ir  Ir1       1.0  0.75000  0.00000  0.19000  1.0000
  Ir  Ir2       1.0  0.25000  0.00000  0.81000  1.0000
  Sr  Sr1       1.0  0.25000  0.00000  0.39400  1.0000
  Sr  Sr2       1.0  0.75000  0.00000  0.60600  1.0000
