data_image0
_chemical_formula_structural       I8Rb4Zn2
_chemical_formula_sum              "I8 Rb4 Zn2"
_cell_length_a       10.539
_cell_length_b       8.21174
_cell_length_c       7.88413
_cell_angle_alpha    90
_cell_angle_beta     109.544
_cell_angle_gamma    90

_space_group_name_H-M_alt    "P 1"
_space_group_IT_number       1

loop_
  _space_group_symop_operation_xyz
  'x, y, z'

loop_
  _atom_site_type_symbol
  _atom_site_label
  _atom_site_symmetry_multiplicity
  _atom_site_fract_x
  _atom_site_fract_y
  _atom_site_fract_z
  _atom_site_occupancy
  I   I1        1.0  0.35700  0.25000  0.08140  1.0000
  I   I2        1.0  0.95100  0.25000  0.13100  1.0000
  I   I3        1.0  0.72300  0.00338  0.48100  1.0000
  I   I4        1.0  0.72300  0.49700  0.48100  1.0000
  I   I5        1.0  0.27700  0.50300  0.51900  1.0000
  I   I6        1.0  0.27700  0.99700  0.51900  1.0000
  I   I7        1.0  0.04930  0.75000  0.86900  1.0000
  I   I8        1.0  0.64300  0.75000  0.91900  1.0000
  Rb  Rb1       1.0  0.41500  0.75000  0.20800  1.0000
  Rb  Rb2       1.0  0.96100  0.75000  0.30100  1.0000
  Rb  Rb3       1.0  0.03940  0.25000  0.69900  1.0000
  Rb  Rb4       1.0  0.58500  0.25000  0.79200  1.0000
  Zn  Zn1       1.0  0.21400  0.25000  0.29900  1.0000
  Zn  Zn2       1.0  0.78600  0.75000  0.70100  1.0000
