data_image0
_chemical_formula_structural       Ba2C4N4S4
_chemical_formula_sum              "Ba2 C4 N4 S4"
_cell_length_a       6.1757
_cell_length_b       6.1757
_cell_length_c       8.38378
_cell_angle_alpha    91.8427
_cell_angle_beta     91.8427
_cell_angle_gamma    67.1207

_space_group_name_H-M_alt    "P 1"
_space_group_IT_number       1

loop_
  _space_group_symop_operation_xyz
  'x, y, z'

loop_
  _atom_site_type_symbol
  _atom_site_label
  _atom_site_symmetry_multiplicity
  _atom_site_fract_x
  _atom_site_fract_y
  _atom_site_fract_z
  _atom_site_occupancy
  Ba  Ba1       1.0  0.09990  0.90000  0.25000  1.0000
  Ba  Ba2       1.0  0.90000  0.09990  0.75000  1.0000
  C   C1        1.0  0.50400  0.24700  0.10100  1.0000
  C   C2        1.0  0.75300  0.49600  0.39900  1.0000
  C   C3        1.0  0.24700  0.50400  0.60100  1.0000
  C   C4        1.0  0.49600  0.75300  0.89900  1.0000
  N   N1        1.0  0.70300  0.16800  0.06100  1.0000
  N   N2        1.0  0.83200  0.29700  0.43900  1.0000
  N   N3        1.0  0.16800  0.70300  0.56100  1.0000
  N   N4        1.0  0.29700  0.83200  0.93900  1.0000
  S   S1        1.0  0.23200  0.35100  0.15600  1.0000
  S   S2        1.0  0.64900  0.76800  0.34400  1.0000
  S   S3        1.0  0.35100  0.23200  0.65600  1.0000
  S   S4        1.0  0.76800  0.64900  0.84400  1.0000
