data_image0
_chemical_formula_structural       F2O8Rb2S2
_chemical_formula_sum              "F2 O8 Rb2 S2"
_cell_length_a       5.34173
_cell_length_b       5.34823
_cell_length_c       7.2898
_cell_angle_alpha    100.085
_cell_angle_beta     104.831
_cell_angle_gamma    93.3785

_space_group_name_H-M_alt    "P 1"
_space_group_IT_number       1

loop_
  _space_group_symop_operation_xyz
  'x, y, z'

loop_
  _atom_site_type_symbol
  _atom_site_label
  _atom_site_symmetry_multiplicity
  _atom_site_fract_x
  _atom_site_fract_y
  _atom_site_fract_z
  _atom_site_occupancy
  F   F1        1.0  0.79800  0.15400  0.48800  1.0000
  F   F2        1.0  0.20200  0.84600  0.51200  1.0000
  O   O1        1.0  0.36200  0.73700  0.07050  1.0000
  O   O2        1.0  0.84100  0.81800  0.13700  1.0000
  O   O3        1.0  0.56500  0.05860  0.32100  1.0000
  O   O4        1.0  0.65400  0.60900  0.35000  1.0000
  O   O5        1.0  0.34600  0.39100  0.65000  1.0000
  O   O6        1.0  0.43500  0.94100  0.67900  1.0000
  O   O7        1.0  0.15900  0.18200  0.86300  1.0000
  O   O8        1.0  0.63800  0.26300  0.92900  1.0000
  Rb  Rb1       1.0  0.10700  0.33900  0.24500  1.0000
  Rb  Rb2       1.0  0.89300  0.66100  0.75500  1.0000
  S   S1        1.0  0.61700  0.77500  0.21000  1.0000
  S   S2        1.0  0.38300  0.22500  0.79000  1.0000
