data_image0
_chemical_formula_structural       MoU2
_chemical_formula_sum              "Mo1 U2"
_cell_length_a       3.4292
_cell_length_b       3.4292
_cell_length_c       5.42224
_cell_angle_alpha    108.434
_cell_angle_beta     108.434
_cell_angle_gamma    90

_space_group_name_H-M_alt    "P 1"
_space_group_IT_number       1

loop_
  _space_group_symop_operation_xyz
  'x, y, z'

loop_
  _atom_site_type_symbol
  _atom_site_label
  _atom_site_symmetry_multiplicity
  _atom_site_fract_x
  _atom_site_fract_y
  _atom_site_fract_z
  _atom_site_occupancy
  Mo  Mo1       1.0  0.00000  0.00000  0.00000  1.0000
  U   U1        1.0  0.67900  0.67900  0.35900  1.0000
  U   U2        1.0  0.32100  0.32100  0.64100  1.0000
