data_image0
_chemical_formula_structural       Cs2S8Sb4
_chemical_formula_sum              "Cs2 S8 Sb4"
_cell_length_a       6.83383
_cell_length_b       9.70739
_cell_length_c       6.58316
_cell_angle_alpha    91.046
_cell_angle_beta     104.769
_cell_angle_gamma    80.1841

_space_group_name_H-M_alt    "P 1"
_space_group_IT_number       1

loop_
  _space_group_symop_operation_xyz
  'x, y, z'

loop_
  _atom_site_type_symbol
  _atom_site_label
  _atom_site_symmetry_multiplicity
  _atom_site_fract_x
  _atom_site_fract_y
  _atom_site_fract_z
  _atom_site_occupancy
  Cs  Cs1       1.0  0.16700  0.06910  0.31800  1.0000
  Cs  Cs2       1.0  0.83300  0.93100  0.68200  1.0000
  S   S1        1.0  0.57400  0.07650  0.08700  1.0000
  S   S2        1.0  0.92700  0.76400  0.19300  1.0000
  S   S3        1.0  0.84200  0.40900  0.29400  1.0000
  S   S4        1.0  0.47700  0.71200  0.41100  1.0000
  S   S5        1.0  0.52300  0.28800  0.58900  1.0000
  S   S6        1.0  0.15800  0.59100  0.70600  1.0000
  S   S7        1.0  0.07270  0.23600  0.80700  1.0000
  S   S8        1.0  0.42600  0.92400  0.91300  1.0000
  Sb  Sb1       1.0  0.59800  0.67500  0.08640  1.0000
  Sb  Sb2       1.0  0.18500  0.54600  0.34500  1.0000
  Sb  Sb3       1.0  0.81500  0.45400  0.65500  1.0000
  Sb  Sb4       1.0  0.40200  0.32500  0.91400  1.0000
