data_image0
_chemical_formula_structural       N4O4S4Se2
_chemical_formula_sum              "N4 O4 S4 Se2"
_cell_length_a       4.37836
_cell_length_b       6.90935
_cell_length_c       8.36446
_cell_angle_alpha    98.2509
_cell_angle_beta     105.172
_cell_angle_gamma    90

_space_group_name_H-M_alt    "P 1"
_space_group_IT_number       1

loop_
  _space_group_symop_operation_xyz
  'x, y, z'

loop_
  _atom_site_type_symbol
  _atom_site_label
  _atom_site_symmetry_multiplicity
  _atom_site_fract_x
  _atom_site_fract_y
  _atom_site_fract_z
  _atom_site_occupancy
  N   N1        1.0  0.66300  0.69200  0.14800  1.0000
  N   N2        1.0  0.48500  0.19200  0.14800  1.0000
  N   N3        1.0  0.33700  0.30800  0.85200  1.0000
  N   N4        1.0  0.51500  0.80800  0.85200  1.0000
  O   O1        1.0  0.19000  0.10700  0.36000  1.0000
  O   O2        1.0  0.17000  0.60700  0.36000  1.0000
  O   O3        1.0  0.83000  0.39300  0.64000  1.0000
  O   O4        1.0  0.81000  0.89300  0.64000  1.0000
  S   S1        1.0  0.82200  0.62500  0.31700  1.0000
  S   S2        1.0  0.49400  0.12500  0.31700  1.0000
  S   S3        1.0  0.17800  0.37500  0.68300  1.0000
  S   S4        1.0  0.50600  0.87500  0.68300  1.0000
  Se  Se1       1.0  0.11900  0.25000  0.00000  1.0000
  Se  Se2       1.0  0.88100  0.75000  0.00000  1.0000
