data_image0
_chemical_formula_structural       B5W2
_chemical_formula_sum              "B5 W2"
_cell_length_a       3.09289
_cell_length_b       3.09289
_cell_length_c       7.3632
_cell_angle_alpha    77.8763
_cell_angle_beta     102.124
_cell_angle_gamma    120

_space_group_name_H-M_alt    "P 1"
_space_group_IT_number       1

loop_
  _space_group_symop_operation_xyz
  'x, y, z'

loop_
  _atom_site_type_symbol
  _atom_site_label
  _atom_site_symmetry_multiplicity
  _atom_site_fract_x
  _atom_site_fract_y
  _atom_site_fract_z
  _atom_site_occupancy
  B   B1        1.0  0.66900  0.33100  0.00638  1.0000
  B   B2        1.0  0.81500  0.18500  0.44500  1.0000
  B   B3        1.0  0.50000  0.50000  0.50000  1.0000
  B   B4        1.0  0.18500  0.81500  0.55500  1.0000
  B   B5        1.0  0.33100  0.66900  0.99400  1.0000
  W   W1        1.0  0.07650  0.92300  0.23000  1.0000
  W   W2        1.0  0.92300  0.07650  0.77000  1.0000
