data_image0
_chemical_formula_structural       I6Pr6Ru2
_chemical_formula_sum              "I6 Pr6 Ru2"
_cell_length_a       9.38049
_cell_length_b       4.32725
_cell_length_c       12.6332
_cell_angle_alpha    90
_cell_angle_beta     93.2779
_cell_angle_gamma    90

_space_group_name_H-M_alt    "P 1"
_space_group_IT_number       1

loop_
  _space_group_symop_operation_xyz
  'x, y, z'

loop_
  _atom_site_type_symbol
  _atom_site_label
  _atom_site_symmetry_multiplicity
  _atom_site_fract_x
  _atom_site_fract_y
  _atom_site_fract_z
  _atom_site_occupancy
  I   I1        1.0  0.60500  0.25000  0.13400  1.0000
  I   I2        1.0  0.36900  0.75000  0.37800  1.0000
  I   I3        1.0  0.86500  0.75000  0.38300  1.0000
  I   I4        1.0  0.13500  0.25000  0.61700  1.0000
  I   I5        1.0  0.63100  0.25000  0.62200  1.0000
  I   I6        1.0  0.39500  0.75000  0.86600  1.0000
  Pr  Pr1       1.0  0.90300  0.75000  0.11000  1.0000
  Pr  Pr2       1.0  0.31000  0.75000  0.11900  1.0000
  Pr  Pr3       1.0  0.11700  0.25000  0.33300  1.0000
  Pr  Pr4       1.0  0.88300  0.75000  0.66700  1.0000
  Pr  Pr5       1.0  0.69000  0.25000  0.88100  1.0000
  Pr  Pr6       1.0  0.09710  0.25000  0.89000  1.0000
  Ru  Ru1       1.0  0.11000  0.25000  0.12000  1.0000
  Ru  Ru2       1.0  0.89000  0.75000  0.88000  1.0000
