data_image0
_chemical_formula_structural       Se8U6
_chemical_formula_sum              "Se8 U6"
_cell_length_a       7.49584
_cell_length_b       7.49584
_cell_length_c       7.49584
_cell_angle_alpha    109.471
_cell_angle_beta     109.471
_cell_angle_gamma    109.471

_space_group_name_H-M_alt    "P 1"
_space_group_IT_number       1

loop_
  _space_group_symop_operation_xyz
  'x, y, z'

loop_
  _atom_site_type_symbol
  _atom_site_label
  _atom_site_symmetry_multiplicity
  _atom_site_fract_x
  _atom_site_fract_y
  _atom_site_fract_z
  _atom_site_occupancy
  Se  Se1       1.0  0.15300  0.00000  0.00000  1.0000
  Se  Se2       1.0  0.65300  0.00000  0.00000  1.0000
  Se  Se3       1.0  0.50000  0.50000  0.15300  1.0000
  Se  Se4       1.0  0.34700  0.84700  0.34700  1.0000
  Se  Se5       1.0  0.00000  0.65300  0.50000  1.0000
  Se  Se6       1.0  0.00000  0.15300  0.50000  1.0000
  Se  Se7       1.0  0.50000  0.50000  0.65300  1.0000
  Se  Se8       1.0  0.84700  0.34700  0.84700  1.0000
  U   U1        1.0  0.87500  0.75000  0.12500  1.0000
  U   U2        1.0  0.12500  0.37500  0.25000  1.0000
  U   U3        1.0  0.62500  0.25000  0.37500  1.0000
  U   U4        1.0  0.75000  0.87500  0.62500  1.0000
  U   U5        1.0  0.37500  0.12500  0.75000  1.0000
  U   U6        1.0  0.25000  0.62500  0.87500  1.0000
