data_image0
_chemical_formula_structural       Ce4Sn10
_chemical_formula_sum              "Ce4 Sn10"
_cell_length_a       4.6698
_cell_length_b       4.71362
_cell_length_c       18.0402
_cell_angle_alpha    90
_cell_angle_beta     82.5635
_cell_angle_gamma    90

_space_group_name_H-M_alt    "P 1"
_space_group_IT_number       1

loop_
  _space_group_symop_operation_xyz
  'x, y, z'

loop_
  _atom_site_type_symbol
  _atom_site_label
  _atom_site_symmetry_multiplicity
  _atom_site_fract_x
  _atom_site_fract_y
  _atom_site_fract_z
  _atom_site_occupancy
  Ce  Ce1       1.0  0.43200  0.00000  0.13700  1.0000
  Ce  Ce2       1.0  0.29700  0.00000  0.40600  1.0000
  Ce  Ce3       1.0  0.70300  0.00000  0.59400  1.0000
  Ce  Ce4       1.0  0.56800  0.00000  0.86300  1.0000
  Sn  Sn1       1.0  0.50000  0.50000  0.00000  1.0000
  Sn  Sn2       1.0  0.00000  0.00000  0.00000  1.0000
  Sn  Sn3       1.0  0.92900  0.50000  0.14300  1.0000
  Sn  Sn4       1.0  0.86300  0.00000  0.27500  1.0000
  Sn  Sn5       1.0  0.36300  0.50000  0.27500  1.0000
  Sn  Sn6       1.0  0.77900  0.50000  0.44200  1.0000
  Sn  Sn7       1.0  0.22100  0.50000  0.55800  1.0000
  Sn  Sn8       1.0  0.63700  0.50000  0.72500  1.0000
  Sn  Sn9       1.0  0.13700  0.00000  0.72500  1.0000
  Sn  Sn10      1.0  0.07130  0.50000  0.85700  1.0000
