data_image0
_chemical_formula_structural       CGaMo4S8
_chemical_formula_sum              "C1 Ga1 Mo4 S8"
_cell_length_a       7.19447
_cell_length_b       7.19447
_cell_length_c       7.19447
_cell_angle_alpha    120
_cell_angle_beta     90
_cell_angle_gamma    120

_space_group_name_H-M_alt    "P 1"
_space_group_IT_number       1

loop_
  _space_group_symop_operation_xyz
  'x, y, z'

loop_
  _atom_site_type_symbol
  _atom_site_label
  _atom_site_symmetry_multiplicity
  _atom_site_fract_x
  _atom_site_fract_y
  _atom_site_fract_z
  _atom_site_occupancy
  C   C1        1.0  0.75000  0.50000  0.25000  1.0000
  Ga  Ga1       1.0  0.00000  0.00000  0.00000  1.0000
  Mo  Mo1       1.0  0.59700  0.19500  0.40300  1.0000
  Mo  Mo2       1.0  0.20800  0.80500  0.40300  1.0000
  Mo  Mo3       1.0  0.59700  0.80500  0.40300  1.0000
  Mo  Mo4       1.0  0.59700  0.19500  0.79200  1.0000
  S   S1        1.0  0.37000  0.74000  0.10900  1.0000
  S   S2        1.0  0.43000  0.28600  0.14300  1.0000
  S   S3        1.0  0.85700  0.28600  0.14300  1.0000
  S   S4        1.0  0.85700  0.71400  0.14300  1.0000
  S   S5        1.0  0.85700  0.71400  0.57000  1.0000
  S   S6        1.0  0.37000  0.26000  0.63000  1.0000
  S   S7        1.0  0.37000  0.74000  0.63000  1.0000
  S   S8        1.0  0.89100  0.26000  0.63000  1.0000
