data_image0
_chemical_formula_structural       CsSe8V5
_chemical_formula_sum              "Cs1 Se8 V5"
_cell_length_a       3.67781
_cell_length_b       9.08103
_cell_length_c       9.5904
_cell_angle_alpha    103.754
_cell_angle_beta     101.055
_cell_angle_gamma    90

_space_group_name_H-M_alt    "P 1"
_space_group_IT_number       1

loop_
  _space_group_symop_operation_xyz
  'x, y, z'

loop_
  _atom_site_type_symbol
  _atom_site_label
  _atom_site_symmetry_multiplicity
  _atom_site_fract_x
  _atom_site_fract_y
  _atom_site_fract_z
  _atom_site_occupancy
  Cs  Cs1       1.0  0.50000  0.50000  0.00000  1.0000
  Se  Se1       1.0  0.57200  0.17100  0.14400  1.0000
  Se  Se2       1.0  0.09050  0.83200  0.18100  1.0000
  Se  Se3       1.0  0.16500  0.48800  0.33000  1.0000
  Se  Se4       1.0  0.24100  0.15700  0.48200  1.0000
  Se  Se5       1.0  0.75900  0.84300  0.51800  1.0000
  Se  Se6       1.0  0.83500  0.51200  0.67000  1.0000
  Se  Se7       1.0  0.91000  0.16800  0.81900  1.0000
  Se  Se8       1.0  0.42800  0.82900  0.85600  1.0000
  V   V1        1.0  0.00000  0.00000  0.00000  1.0000
  V   V2        1.0  0.65300  0.99800  0.30500  1.0000
  V   V3        1.0  0.71200  0.34500  0.42300  1.0000
  V   V4        1.0  0.28800  0.65500  0.57700  1.0000
  V   V5        1.0  0.34700  0.00225  0.69500  1.0000
