data_image0
_chemical_formula_structural       CsIn5S8
_chemical_formula_sum              "Cs1 In5 S8"
_cell_length_a       3.91748
_cell_length_b       9.40102
_cell_length_c       9.85721
_cell_angle_alpha    101.783
_cell_angle_beta     101.462
_cell_angle_gamma    90

_space_group_name_H-M_alt    "P 1"
_space_group_IT_number       1

loop_
  _space_group_symop_operation_xyz
  'x, y, z'

loop_
  _atom_site_type_symbol
  _atom_site_label
  _atom_site_symmetry_multiplicity
  _atom_site_fract_x
  _atom_site_fract_y
  _atom_site_fract_z
  _atom_site_occupancy
  Cs  Cs1       1.0  0.50000  0.50000  0.00000  1.0000
  In  In1       1.0  0.00000  0.00000  0.00000  1.0000
  In  In2       1.0  0.65100  0.93300  0.30100  1.0000
  In  In3       1.0  0.71000  0.34100  0.41900  1.0000
  In  In4       1.0  0.29000  0.65900  0.58100  1.0000
  In  In5       1.0  0.34900  0.06740  0.69900  1.0000
  S   S1        1.0  0.07840  0.80300  0.15700  1.0000
  S   S2        1.0  0.58200  0.13800  0.16300  1.0000
  S   S3        1.0  0.16700  0.48400  0.33300  1.0000
  S   S4        1.0  0.23500  0.15200  0.47000  1.0000
  S   S5        1.0  0.76500  0.84800  0.53000  1.0000
  S   S6        1.0  0.83300  0.51600  0.66700  1.0000
  S   S7        1.0  0.41800  0.86200  0.83700  1.0000
  S   S8        1.0  0.92200  0.19700  0.84300  1.0000
