data_image0
_chemical_formula_structural       Bi4Rh6Si4
_chemical_formula_sum              "Bi4 Rh6 Si4"
_cell_length_a       7.0754
_cell_length_b       7.0754
_cell_length_c       7.06771
_cell_angle_alpha    104.21
_cell_angle_beta     117.776
_cell_angle_gamma    106.815

_space_group_name_H-M_alt    "P 1"
_space_group_IT_number       1

loop_
  _space_group_symop_operation_xyz
  'x, y, z'

loop_
  _atom_site_type_symbol
  _atom_site_label
  _atom_site_symmetry_multiplicity
  _atom_site_fract_x
  _atom_site_fract_y
  _atom_site_fract_z
  _atom_site_occupancy
  Bi  Bi1       1.0  0.48500  0.76800  0.25300  1.0000
  Bi  Bi2       1.0  0.99100  0.27900  0.27000  1.0000
  Bi  Bi3       1.0  0.00887  0.72100  0.73000  1.0000
  Bi  Bi4       1.0  0.51500  0.23200  0.74700  1.0000
  Rh  Rh1       1.0  0.20800  0.00567  0.21400  1.0000
  Rh  Rh2       1.0  0.74900  0.24900  0.50000  1.0000
  Rh  Rh3       1.0  0.00000  0.00000  0.50000  1.0000
  Rh  Rh4       1.0  0.50000  0.50000  0.50000  1.0000
  Rh  Rh5       1.0  0.25100  0.75100  0.50000  1.0000
  Rh  Rh6       1.0  0.79200  0.99400  0.78600  1.0000
  Si  Si1       1.0  0.44800  0.26400  0.15300  1.0000
  Si  Si2       1.0  0.88900  0.70500  0.15300  1.0000
  Si  Si3       1.0  0.11100  0.29500  0.84700  1.0000
  Si  Si4       1.0  0.55200  0.73600  0.84700  1.0000
