data_image0
_chemical_formula_structural       Bi4Rh6S4
_chemical_formula_sum              "Bi4 Rh6 S4"
_cell_length_a       7.11881
_cell_length_b       7.11881
_cell_length_c       7.24363
_cell_angle_alpha    109.07
_cell_angle_beta     111.066
_cell_angle_gamma    107.566

_space_group_name_H-M_alt    "P 1"
_space_group_IT_number       1

loop_
  _space_group_symop_operation_xyz
  'x, y, z'

loop_
  _atom_site_type_symbol
  _atom_site_label
  _atom_site_symmetry_multiplicity
  _atom_site_fract_x
  _atom_site_fract_y
  _atom_site_fract_z
  _atom_site_occupancy
  Bi  Bi1       1.0  0.25200  0.99300  0.24500  1.0000
  Bi  Bi2       1.0  0.74900  0.49900  0.24800  1.0000
  Bi  Bi3       1.0  0.25100  0.50100  0.75200  1.0000
  Bi  Bi4       1.0  0.74800  0.00709  0.75500  1.0000
  Rh  Rh1       1.0  0.00000  0.50000  1.00000  1.0000
  Rh  Rh2       1.0  0.24800  0.24800  0.00000  1.0000
  Rh  Rh3       1.0  0.75200  0.75200  0.00000  1.0000
  Rh  Rh4       1.0  0.50000  0.00000  0.00000  1.0000
  Rh  Rh5       1.0  0.99700  0.24400  0.24100  1.0000
  Rh  Rh6       1.0  0.00299  0.75600  0.75900  1.0000
  S   S1        1.0  0.30300  0.54500  0.30700  1.0000
  S   S2        1.0  0.76100  0.00350  0.30700  1.0000
  S   S3        1.0  0.69700  0.45500  0.69300  1.0000
  S   S4        1.0  0.23900  0.99700  0.69300  1.0000
