data_image0
_chemical_formula_structural       Br8K4Zn2
_chemical_formula_sum              "Br8 K4 Zn2"
_cell_length_a       7.32479
_cell_length_b       7.52345
_cell_length_c       9.27094
_cell_angle_alpha    90
_cell_angle_beta     108.833
_cell_angle_gamma    90

_space_group_name_H-M_alt    "P 1"
_space_group_IT_number       1

loop_
  _space_group_symop_operation_xyz
  'x, y, z'

loop_
  _atom_site_type_symbol
  _atom_site_label
  _atom_site_symmetry_multiplicity
  _atom_site_fract_x
  _atom_site_fract_y
  _atom_site_fract_z
  _atom_site_occupancy
  Br  Br1       1.0  0.89400  0.75000  0.06590  1.0000
  Br  Br2       1.0  0.50200  0.50200  0.26700  1.0000
  Br  Br3       1.0  0.50200  0.99800  0.26700  1.0000
  Br  Br4       1.0  0.07400  0.25000  0.36300  1.0000
  Br  Br5       1.0  0.92600  0.75000  0.63700  1.0000
  Br  Br6       1.0  0.49800  0.00189  0.73300  1.0000
  Br  Br7       1.0  0.49800  0.49800  0.73300  1.0000
  Br  Br8       1.0  0.10600  0.25000  0.93400  1.0000
  K   K1        1.0  0.70700  0.25000  0.04520  1.0000
  K   K2        1.0  0.22100  0.75000  0.42600  1.0000
  K   K3        1.0  0.77900  0.25000  0.57400  1.0000
  K   K4        1.0  0.29300  0.75000  0.95500  1.0000
  Zn  Zn1       1.0  0.28000  0.25000  0.20600  1.0000
  Zn  Zn2       1.0  0.72000  0.75000  0.79400  1.0000
