data_image0
_chemical_formula_structural       AgIn5Te8
_chemical_formula_sum              "Ag1 In5 Te8"
_cell_length_a       6.32167
_cell_length_b       6.32167
_cell_length_c       12.7625
_cell_angle_alpha    90
_cell_angle_beta     90
_cell_angle_gamma    90

_space_group_name_H-M_alt    "P 1"
_space_group_IT_number       1

loop_
  _space_group_symop_operation_xyz
  'x, y, z'

loop_
  _atom_site_type_symbol
  _atom_site_label
  _atom_site_symmetry_multiplicity
  _atom_site_fract_x
  _atom_site_fract_y
  _atom_site_fract_z
  _atom_site_occupancy
  Ag  Ag1       1.0  0.00000  0.00000  0.50000  1.0000
  In  In1       1.0  0.50000  0.50000  0.00000  1.0000
  In  In2       1.0  0.50000  0.00000  0.25500  1.0000
  In  In3       1.0  0.00000  0.50000  0.25500  1.0000
  In  In4       1.0  0.50000  0.00000  0.74500  1.0000
  In  In5       1.0  0.00000  0.50000  0.74500  1.0000
  Te  Te1       1.0  0.22300  0.22300  0.11100  1.0000
  Te  Te2       1.0  0.77700  0.77700  0.11100  1.0000
  Te  Te3       1.0  0.72800  0.27200  0.38800  1.0000
  Te  Te4       1.0  0.27200  0.72800  0.38800  1.0000
  Te  Te5       1.0  0.27200  0.27200  0.61200  1.0000
  Te  Te6       1.0  0.72800  0.72800  0.61200  1.0000
  Te  Te7       1.0  0.77700  0.22300  0.88900  1.0000
  Te  Te8       1.0  0.22300  0.77700  0.88900  1.0000
