data_image0
_chemical_formula_structural       As6Mn8
_chemical_formula_sum              "As6 Mn8"
_cell_length_a       3.52642
_cell_length_b       6.70731
_cell_length_c       9.35247
_cell_angle_alpha    103.402
_cell_angle_beta     90
_cell_angle_gamma    105.241

_space_group_name_H-M_alt    "P 1"
_space_group_IT_number       1

loop_
  _space_group_symop_operation_xyz
  'x, y, z'

loop_
  _atom_site_type_symbol
  _atom_site_label
  _atom_site_symmetry_multiplicity
  _atom_site_fract_x
  _atom_site_fract_y
  _atom_site_fract_z
  _atom_site_occupancy
  As  As1       1.0  0.36200  0.72500  0.02160  1.0000
  As  As2       1.0  0.06300  0.12600  0.27400  1.0000
  As  As3       1.0  0.81400  0.62700  0.34600  1.0000
  As  As4       1.0  0.18600  0.37300  0.65400  1.0000
  As  As5       1.0  0.93700  0.87400  0.72600  1.0000
  As  As6       1.0  0.63800  0.27500  0.97800  1.0000
  Mn  Mn1       1.0  0.00000  0.00000  0.00000  1.0000
  Mn  Mn2       1.0  0.21700  0.43500  0.16500  1.0000
  Mn  Mn3       1.0  0.43300  0.86600  0.28900  1.0000
  Mn  Mn4       1.0  0.65700  0.31500  0.45000  1.0000
  Mn  Mn5       1.0  0.00000  0.00000  0.50000  1.0000
  Mn  Mn6       1.0  0.34300  0.68500  0.55000  1.0000
  Mn  Mn7       1.0  0.56700  0.13400  0.71100  1.0000
  Mn  Mn8       1.0  0.78300  0.56500  0.83500  1.0000
