data_image0
_chemical_formula_structural       Ge4Ni6Sr2
_chemical_formula_sum              "Ge4 Ni6 Sr2"
_cell_length_a       4.06251
_cell_length_b       4.06239
_cell_length_c       14.2456
_cell_angle_alpha    90
_cell_angle_beta     90
_cell_angle_gamma    120.001

_space_group_name_H-M_alt    "P 1"
_space_group_IT_number       1

loop_
  _space_group_symop_operation_xyz
  'x, y, z'

loop_
  _atom_site_type_symbol
  _atom_site_label
  _atom_site_symmetry_multiplicity
  _atom_site_fract_x
  _atom_site_fract_y
  _atom_site_fract_z
  _atom_site_occupancy
  Ge  Ge1       1.0  0.66700  0.33300  0.09580  1.0000
  Ge  Ge2       1.0  0.66700  0.33300  0.40400  1.0000
  Ge  Ge3       1.0  0.33300  0.66700  0.59600  1.0000
  Ge  Ge4       1.0  0.33300  0.66700  0.90400  1.0000
  Ni  Ni1       1.0  0.00000  0.00000  0.00000  1.0000
  Ni  Ni2       1.0  0.33300  0.66700  0.07270  1.0000
  Ni  Ni3       1.0  0.33300  0.66700  0.42700  1.0000
  Ni  Ni4       1.0  0.00000  0.00000  0.50000  1.0000
  Ni  Ni5       1.0  0.66700  0.33300  0.57300  1.0000
  Ni  Ni6       1.0  0.66700  0.33300  0.92700  1.0000
  Sr  Sr1       1.0  0.00000  0.00000  0.25000  1.0000
  Sr  Sr2       1.0  0.00000  0.00000  0.75000  1.0000
