data_image0
_chemical_formula_structural       Cd4Eu4Pd4
_chemical_formula_sum              "Cd4 Eu4 Pd4"
_cell_length_a       7.39444
_cell_length_b       4.34787
_cell_length_c       8.67482
_cell_angle_alpha    90
_cell_angle_beta     90
_cell_angle_gamma    90

_space_group_name_H-M_alt    "P 1"
_space_group_IT_number       1

loop_
  _space_group_symop_operation_xyz
  'x, y, z'

loop_
  _atom_site_type_symbol
  _atom_site_label
  _atom_site_symmetry_multiplicity
  _atom_site_fract_x
  _atom_site_fract_y
  _atom_site_fract_z
  _atom_site_occupancy
  Cd  Cd1       1.0  0.14200  0.25000  0.06240  1.0000
  Cd  Cd2       1.0  0.64200  0.25000  0.43800  1.0000
  Cd  Cd3       1.0  0.35800  0.75000  0.56200  1.0000
  Cd  Cd4       1.0  0.85800  0.75000  0.93800  1.0000
  Eu  Eu1       1.0  0.46500  0.75000  0.18200  1.0000
  Eu  Eu2       1.0  0.96500  0.75000  0.31800  1.0000
  Eu  Eu3       1.0  0.03460  0.25000  0.68200  1.0000
  Eu  Eu4       1.0  0.53500  0.25000  0.81800  1.0000
  Pd  Pd1       1.0  0.75800  0.25000  0.12900  1.0000
  Pd  Pd2       1.0  0.25800  0.25000  0.37100  1.0000
  Pd  Pd3       1.0  0.74200  0.75000  0.62900  1.0000
  Pd  Pd4       1.0  0.24200  0.75000  0.87100  1.0000
