data_image0
_chemical_formula_structural       Pt2Ta2Te10
_chemical_formula_sum              "Pt2 Ta2 Te10"
_cell_length_a       7.15428
_cell_length_b       3.76347
_cell_length_c       15.7001
_cell_angle_alpha    90
_cell_angle_beta     90
_cell_angle_gamma    105.249

_space_group_name_H-M_alt    "P 1"
_space_group_IT_number       1

loop_
  _space_group_symop_operation_xyz
  'x, y, z'

loop_
  _atom_site_type_symbol
  _atom_site_label
  _atom_site_symmetry_multiplicity
  _atom_site_fract_x
  _atom_site_fract_y
  _atom_site_fract_z
  _atom_site_occupancy
  Pt  Pt1       1.0  0.00000  0.00000  0.00000  1.0000
  Pt  Pt2       1.0  0.00000  0.00000  0.50000  1.0000
  Ta  Ta1       1.0  0.02190  0.51100  0.25000  1.0000
  Ta  Ta2       1.0  0.97800  0.48900  0.75000  1.0000
  Te  Te1       1.0  0.21200  0.60600  0.08250  1.0000
  Te  Te2       1.0  0.80400  0.90200  0.14900  1.0000
  Te  Te3       1.0  0.33400  0.16700  0.25000  1.0000
  Te  Te4       1.0  0.80400  0.90200  0.35100  1.0000
  Te  Te5       1.0  0.21200  0.60600  0.41700  1.0000
  Te  Te6       1.0  0.78800  0.39400  0.58300  1.0000
  Te  Te7       1.0  0.19600  0.09780  0.64900  1.0000
  Te  Te8       1.0  0.66600  0.83300  0.75000  1.0000
  Te  Te9       1.0  0.19600  0.09780  0.85100  1.0000
  Te  Te10      1.0  0.78800  0.39400  0.91700  1.0000
