data_image0
_chemical_formula_structural       Ba2Cd2K4Sb4
_chemical_formula_sum              "Ba2 Cd2 K4 Sb4"
_cell_length_a       5.09763
_cell_length_b       9.92784
_cell_length_c       8.58295
_cell_angle_alpha    90
_cell_angle_beta     90
_cell_angle_gamma    90

_space_group_name_H-M_alt    "P 1"
_space_group_IT_number       1

loop_
  _space_group_symop_operation_xyz
  'x, y, z'

loop_
  _atom_site_type_symbol
  _atom_site_label
  _atom_site_symmetry_multiplicity
  _atom_site_fract_x
  _atom_site_fract_y
  _atom_site_fract_z
  _atom_site_occupancy
  Ba  Ba1       1.0  0.00000  0.04980  0.00003  1.0000
  Ba  Ba2       1.0  0.00000  0.95000  0.50000  1.0000
  Cd  Cd1       1.0  0.50000  0.82300  0.15400  1.0000
  Cd  Cd2       1.0  0.50000  0.17700  0.65400  1.0000
  K   K1        1.0  0.50000  0.42300  0.02060  1.0000
  K   K2        1.0  0.00000  0.34000  0.34400  1.0000
  K   K3        1.0  0.50000  0.57700  0.52100  1.0000
  K   K4        1.0  0.00000  0.66000  0.84400  1.0000
  Sb  Sb1       1.0  0.00000  0.68100  0.23800  1.0000
  Sb  Sb2       1.0  0.50000  0.11400  0.28900  1.0000
  Sb  Sb3       1.0  0.00000  0.31900  0.73800  1.0000
  Sb  Sb4       1.0  0.50000  0.88600  0.78900  1.0000
