data_image0
_chemical_formula_structural       Cd2K4Sb4Sr2
_chemical_formula_sum              "Cd2 K4 Sb4 Sr2"
_cell_length_a       4.98494
_cell_length_b       9.90974
_cell_length_c       8.26515
_cell_angle_alpha    90
_cell_angle_beta     90
_cell_angle_gamma    90

_space_group_name_H-M_alt    "P 1"
_space_group_IT_number       1

loop_
  _space_group_symop_operation_xyz
  'x, y, z'

loop_
  _atom_site_type_symbol
  _atom_site_label
  _atom_site_symmetry_multiplicity
  _atom_site_fract_x
  _atom_site_fract_y
  _atom_site_fract_z
  _atom_site_occupancy
  Cd  Cd1       1.0  0.50000  0.82400  0.15200  1.0000
  Cd  Cd2       1.0  0.50000  0.17600  0.65200  1.0000
  K   K1        1.0  0.50000  0.42300  0.02560  1.0000
  K   K2        1.0  0.00000  0.33900  0.34000  1.0000
  K   K3        1.0  0.50000  0.57700  0.52600  1.0000
  K   K4        1.0  0.00000  0.66100  0.84000  1.0000
  Sb  Sb1       1.0  0.00000  0.68400  0.24800  1.0000
  Sb  Sb2       1.0  0.50000  0.11000  0.28300  1.0000
  Sb  Sb3       1.0  0.00000  0.31600  0.74800  1.0000
  Sb  Sb4       1.0  0.50000  0.89000  0.78300  1.0000
  Sr  Sr1       1.0  0.00000  0.95400  0.49700  1.0000
  Sr  Sr2       1.0  0.00000  0.04590  0.99700  1.0000
