data_image0
_chemical_formula_structural       Pb2Pd3S2
_chemical_formula_sum              "Pb2 Pd3 S2"
_cell_length_a       5.84556
_cell_length_b       5.84557
_cell_length_c       5.84557
_cell_angle_alpha    62.8179
_cell_angle_beta     62.8179
_cell_angle_gamma    62.8179

_space_group_name_H-M_alt    "P 1"
_space_group_IT_number       1

loop_
  _space_group_symop_operation_xyz
  'x, y, z'

loop_
  _atom_site_type_symbol
  _atom_site_label
  _atom_site_symmetry_multiplicity
  _atom_site_fract_x
  _atom_site_fract_y
  _atom_site_fract_z
  _atom_site_occupancy
  Pb  Pb1       1.0  0.00000  0.00000  0.00000  1.0000
  Pb  Pb2       1.0  0.50000  0.50000  0.50000  1.0000
  Pd  Pd1       1.0  0.00000  0.00000  0.50000  1.0000
  Pd  Pd2       1.0  0.50000  0.00000  0.00000  1.0000
  Pd  Pd3       1.0  0.00000  0.50000  0.00000  1.0000
  S   S1        1.0  0.27900  0.27900  0.27900  1.0000
  S   S2        1.0  0.72100  0.72100  0.72100  1.0000
