data_image0
_chemical_formula_structural       Cd2Na4Sb4Yb2
_chemical_formula_sum              "Cd2 Na4 Sb4 Yb2"
_cell_length_a       4.67617
_cell_length_b       9.14426
_cell_length_c       7.79997
_cell_angle_alpha    90
_cell_angle_beta     90
_cell_angle_gamma    90

_space_group_name_H-M_alt    "P 1"
_space_group_IT_number       1

loop_
  _space_group_symop_operation_xyz
  'x, y, z'

loop_
  _atom_site_type_symbol
  _atom_site_label
  _atom_site_symmetry_multiplicity
  _atom_site_fract_x
  _atom_site_fract_y
  _atom_site_fract_z
  _atom_site_occupancy
  Cd  Cd1       1.0  0.50000  0.81400  0.16000  1.0000
  Cd  Cd2       1.0  0.50000  0.18600  0.66000  1.0000
  Na  Na1       1.0  0.50000  0.42000  0.05130  1.0000
  Na  Na2       1.0  0.00000  0.33000  0.37000  1.0000
  Na  Na3       1.0  0.50000  0.58000  0.55100  1.0000
  Na  Na4       1.0  0.00000  0.67000  0.87000  1.0000
  Sb  Sb1       1.0  0.00000  0.65700  0.27200  1.0000
  Sb  Sb2       1.0  0.50000  0.12000  0.28200  1.0000
  Sb  Sb3       1.0  0.00000  0.34300  0.77200  1.0000
  Sb  Sb4       1.0  0.50000  0.88000  0.78200  1.0000
  Yb  Yb1       1.0  0.00000  0.05540  0.99800  1.0000
  Yb  Yb2       1.0  0.00000  0.94500  0.49800  1.0000
