data_image0
_chemical_formula_structural       F4O6Te4
_chemical_formula_sum              "F4 O6 Te4"
_cell_length_a       4.98986
_cell_length_b       6.04264
_cell_length_c       6.74164
_cell_angle_alpha    98.797
_cell_angle_beta     110.894
_cell_angle_gamma    91.8166

_space_group_name_H-M_alt    "P 1"
_space_group_IT_number       1

loop_
  _space_group_symop_operation_xyz
  'x, y, z'

loop_
  _atom_site_type_symbol
  _atom_site_label
  _atom_site_symmetry_multiplicity
  _atom_site_fract_x
  _atom_site_fract_y
  _atom_site_fract_z
  _atom_site_occupancy
  F   F1        1.0  0.31400  0.05220  0.29600  1.0000
  F   F2        1.0  0.10000  0.71100  0.48400  1.0000
  F   F3        1.0  0.90000  0.28900  0.51600  1.0000
  F   F4        1.0  0.68600  0.94800  0.70400  1.0000
  O   O1        1.0  0.65400  0.18500  0.06580  1.0000
  O   O2        1.0  0.88600  0.65900  0.07020  1.0000
  O   O3        1.0  0.49600  0.61800  0.30600  1.0000
  O   O4        1.0  0.50400  0.38200  0.69400  1.0000
  O   O5        1.0  0.11400  0.34100  0.93000  1.0000
  O   O6        1.0  0.34600  0.81500  0.93400  1.0000
  Te  Te1       1.0  0.62500  0.90200  0.22100  1.0000
  Te  Te2       1.0  0.13000  0.46000  0.24800  1.0000
  Te  Te3       1.0  0.87000  0.54000  0.75200  1.0000
  Te  Te4       1.0  0.37500  0.09850  0.77900  1.0000
