data_image0
_chemical_formula_structural       B2S6Tl6
_chemical_formula_sum              "B2 S6 Tl6"
_cell_length_a       5.63678
_cell_length_b       9.93879
_cell_length_c       6.71517
_cell_angle_alpha    90
_cell_angle_beta     97.9923
_cell_angle_gamma    90

_space_group_name_H-M_alt    "P 1"
_space_group_IT_number       1

loop_
  _space_group_symop_operation_xyz
  'x, y, z'

loop_
  _atom_site_type_symbol
  _atom_site_label
  _atom_site_symmetry_multiplicity
  _atom_site_fract_x
  _atom_site_fract_y
  _atom_site_fract_z
  _atom_site_occupancy
  B   B1        1.0  0.38900  0.25000  0.25800  1.0000
  B   B2        1.0  0.61100  0.75000  0.74200  1.0000
  S   S1        1.0  0.25000  0.09010  0.17400  1.0000
  S   S2        1.0  0.25000  0.41000  0.17400  1.0000
  S   S3        1.0  0.67000  0.25000  0.43100  1.0000
  S   S4        1.0  0.33000  0.75000  0.56900  1.0000
  S   S5        1.0  0.75000  0.59000  0.82600  1.0000
  S   S6        1.0  0.75000  0.91000  0.82600  1.0000
  Tl  Tl1       1.0  0.17000  0.75000  0.01580  1.0000
  Tl  Tl2       1.0  0.72100  0.55000  0.33000  1.0000
  Tl  Tl3       1.0  0.72100  0.95000  0.33000  1.0000
  Tl  Tl4       1.0  0.27900  0.05000  0.67000  1.0000
  Tl  Tl5       1.0  0.27900  0.45000  0.67000  1.0000
  Tl  Tl6       1.0  0.83000  0.25000  0.98400  1.0000
