data_image0
_chemical_formula_structural       Bi2Br8Te4
_chemical_formula_sum              "Bi2 Br8 Te4"
_cell_length_a       7.40871
_cell_length_b       7.87631
_cell_length_c       9.27005
_cell_angle_alpha    92.1142
_cell_angle_beta     102.152
_cell_angle_gamma    93.8756

_space_group_name_H-M_alt    "P 1"
_space_group_IT_number       1

loop_
  _space_group_symop_operation_xyz
  'x, y, z'

loop_
  _atom_site_type_symbol
  _atom_site_label
  _atom_site_symmetry_multiplicity
  _atom_site_fract_x
  _atom_site_fract_y
  _atom_site_fract_z
  _atom_site_occupancy
  Bi  Bi1       1.0  0.71500  0.91100  0.38600  1.0000
  Bi  Bi2       1.0  0.28500  0.08910  0.61400  1.0000
  Br  Br1       1.0  0.80000  0.92400  0.11600  1.0000
  Br  Br2       1.0  0.37900  0.06230  0.29900  1.0000
  Br  Br3       1.0  0.54800  0.57800  0.31200  1.0000
  Br  Br4       1.0  0.93800  0.24900  0.46000  1.0000
  Br  Br5       1.0  0.06180  0.75100  0.54000  1.0000
  Br  Br6       1.0  0.45200  0.42200  0.68800  1.0000
  Br  Br7       1.0  0.62100  0.93800  0.70100  1.0000
  Br  Br8       1.0  0.20000  0.07600  0.88400  1.0000
  Te  Te1       1.0  0.77800  0.36400  0.01590  1.0000
  Te  Te2       1.0  0.11700  0.45500  0.20000  1.0000
  Te  Te3       1.0  0.88300  0.54500  0.80000  1.0000
  Te  Te4       1.0  0.22200  0.63600  0.98400  1.0000
