data_image0
_chemical_formula_structural       C4Eu2N4S4
_chemical_formula_sum              "C4 Eu2 N4 S4"
_cell_length_a       5.82807
_cell_length_b       5.82807
_cell_length_c       7.88945
_cell_angle_alpha    90.8547
_cell_angle_beta     90.8547
_cell_angle_gamma    67.3424

_space_group_name_H-M_alt    "P 1"
_space_group_IT_number       1

loop_
  _space_group_symop_operation_xyz
  'x, y, z'

loop_
  _atom_site_type_symbol
  _atom_site_label
  _atom_site_symmetry_multiplicity
  _atom_site_fract_x
  _atom_site_fract_y
  _atom_site_fract_z
  _atom_site_occupancy
  C   C1        1.0  0.51900  0.24400  0.10300  1.0000
  C   C2        1.0  0.75600  0.48100  0.39700  1.0000
  C   C3        1.0  0.24400  0.51900  0.60300  1.0000
  C   C4        1.0  0.48100  0.75600  0.89700  1.0000
  Eu  Eu1       1.0  0.09220  0.90800  0.25000  1.0000
  Eu  Eu2       1.0  0.90800  0.09220  0.75000  1.0000
  N   N1        1.0  0.72600  0.15900  0.05150  1.0000
  N   N2        1.0  0.84100  0.27400  0.44800  1.0000
  N   N3        1.0  0.15900  0.72600  0.55200  1.0000
  N   N4        1.0  0.27400  0.84100  0.94800  1.0000
  S   S1        1.0  0.23800  0.35300  0.17500  1.0000
  S   S2        1.0  0.64700  0.76200  0.32500  1.0000
  S   S3        1.0  0.35300  0.23800  0.67500  1.0000
  S   S4        1.0  0.76200  0.64700  0.82500  1.0000
