data_image0
_chemical_formula_structural       BaGeO8P2
_chemical_formula_sum              "Ba1 Ge1 O8 P2"
_cell_length_a       4.70742
_cell_length_b       4.70742
_cell_length_c       7.66579
_cell_angle_alpha    94.4063
_cell_angle_beta     94.4063
_cell_angle_gamma    65.5734

_space_group_name_H-M_alt    "P 1"
_space_group_IT_number       1

loop_
  _space_group_symop_operation_xyz
  'x, y, z'

loop_
  _atom_site_type_symbol
  _atom_site_label
  _atom_site_symmetry_multiplicity
  _atom_site_fract_x
  _atom_site_fract_y
  _atom_site_fract_z
  _atom_site_occupancy
  Ba  Ba1       1.0  0.00000  0.00000  0.50000  1.0000
  Ge  Ge1       1.0  0.00000  0.00000  0.00000  1.0000
  O   O1        1.0  0.23300  0.23300  0.04640  1.0000
  O   O2        1.0  0.73200  0.23800  0.18100  1.0000
  O   O3        1.0  0.23800  0.73200  0.18100  1.0000
  O   O4        1.0  0.31700  0.31700  0.38500  1.0000
  O   O5        1.0  0.68300  0.68300  0.61500  1.0000
  O   O6        1.0  0.76200  0.26800  0.81900  1.0000
  O   O7        1.0  0.26800  0.76200  0.81900  1.0000
  O   O8        1.0  0.76700  0.76700  0.95400  1.0000
  P   P1        1.0  0.37100  0.37100  0.20000  1.0000
  P   P2        1.0  0.62900  0.62900  0.80000  1.0000
