data_image0
_chemical_formula_structural       Cu2Lu2Se6Sr2
_chemical_formula_sum              "Cu2 Lu2 Se6 Sr2"
_cell_length_a       4.05449
_cell_length_b       7.08226
_cell_length_c       10.4541
_cell_angle_alpha    90
_cell_angle_beta     90
_cell_angle_gamma    73.3669

_space_group_name_H-M_alt    "P 1"
_space_group_IT_number       1

loop_
  _space_group_symop_operation_xyz
  'x, y, z'

loop_
  _atom_site_type_symbol
  _atom_site_label
  _atom_site_symmetry_multiplicity
  _atom_site_fract_x
  _atom_site_fract_y
  _atom_site_fract_z
  _atom_site_occupancy
  Cu  Cu1       1.0  0.47100  0.05870  0.25000  1.0000
  Cu  Cu2       1.0  0.52900  0.94100  0.75000  1.0000
  Lu  Lu1       1.0  0.00000  0.00000  0.00000  1.0000
  Lu  Lu2       1.0  0.00000  0.00000  0.50000  1.0000
  Se  Se1       1.0  0.36200  0.27500  0.06170  1.0000
  Se  Se2       1.0  0.07730  0.84500  0.25000  1.0000
  Se  Se3       1.0  0.36200  0.27500  0.43800  1.0000
  Se  Se4       1.0  0.63800  0.72500  0.56200  1.0000
  Se  Se5       1.0  0.92300  0.15500  0.75000  1.0000
  Se  Se6       1.0  0.63800  0.72500  0.93800  1.0000
  Sr  Sr1       1.0  0.75200  0.49700  0.25000  1.0000
  Sr  Sr2       1.0  0.24800  0.50300  0.75000  1.0000
