data_image0
_chemical_formula_structural       K2Sb4Se8
_chemical_formula_sum              "K2 Sb4 Se8"
_cell_length_a       6.82255
_cell_length_b       7.06073
_cell_length_c       9.47496
_cell_angle_alpha    79.7209
_cell_angle_beta     82.9923
_cell_angle_gamma    75.386

_space_group_name_H-M_alt    "P 1"
_space_group_IT_number       1

loop_
  _space_group_symop_operation_xyz
  'x, y, z'

loop_
  _atom_site_type_symbol
  _atom_site_label
  _atom_site_symmetry_multiplicity
  _atom_site_fract_x
  _atom_site_fract_y
  _atom_site_fract_z
  _atom_site_occupancy
  K   K1        1.0  0.80000  0.81000  0.43400  1.0000
  K   K2        1.0  0.20000  0.19000  0.56600  1.0000
  Sb  Sb1       1.0  0.14900  0.18800  0.04430  1.0000
  Sb  Sb2       1.0  0.42400  0.60500  0.16300  1.0000
  Sb  Sb3       1.0  0.57600  0.39500  0.83700  1.0000
  Sb  Sb4       1.0  0.85100  0.81200  0.95600  1.0000
  Se  Se1       1.0  0.78200  0.14600  0.12200  1.0000
  Se  Se2       1.0  0.08520  0.48400  0.22300  1.0000
  Se  Se3       1.0  0.30600  0.93500  0.27400  1.0000
  Se  Se4       1.0  0.59800  0.40800  0.40800  1.0000
  Se  Se5       1.0  0.40200  0.59200  0.59200  1.0000
  Se  Se6       1.0  0.69400  0.06500  0.72600  1.0000
  Se  Se7       1.0  0.91500  0.51600  0.77700  1.0000
  Se  Se8       1.0  0.21800  0.85400  0.87800  1.0000
