data_image0
_chemical_formula_structural       Au6K2Sn6
_chemical_formula_sum              "Au6 K2 Sn6"
_cell_length_a       4.77129
_cell_length_b       7.85366
_cell_length_c       9.49713
_cell_angle_alpha    90
_cell_angle_beta     90
_cell_angle_gamma    90

_space_group_name_H-M_alt    "P 1"
_space_group_IT_number       1

loop_
  _space_group_symop_operation_xyz
  'x, y, z'

loop_
  _atom_site_type_symbol
  _atom_site_label
  _atom_site_symmetry_multiplicity
  _atom_site_fract_x
  _atom_site_fract_y
  _atom_site_fract_z
  _atom_site_occupancy
  Au  Au1       1.0  0.25000  0.25000  0.07100  1.0000
  Au  Au2       1.0  0.75000  0.03690  0.41700  1.0000
  Au  Au3       1.0  0.75000  0.46300  0.41700  1.0000
  Au  Au4       1.0  0.25000  0.53700  0.58300  1.0000
  Au  Au5       1.0  0.25000  0.96300  0.58300  1.0000
  Au  Au6       1.0  0.75000  0.75000  0.92900  1.0000
  K   K1        1.0  0.25000  0.75000  0.26200  1.0000
  K   K2        1.0  0.75000  0.25000  0.73800  1.0000
  Sn  Sn1       1.0  0.75000  0.04810  0.12200  1.0000
  Sn  Sn2       1.0  0.75000  0.45200  0.12200  1.0000
  Sn  Sn3       1.0  0.25000  0.25000  0.38500  1.0000
  Sn  Sn4       1.0  0.75000  0.75000  0.61500  1.0000
  Sn  Sn5       1.0  0.25000  0.54800  0.87800  1.0000
  Sn  Sn6       1.0  0.25000  0.95200  0.87800  1.0000
