data_image0
_chemical_formula_structural       In8Pd2Sr2
_chemical_formula_sum              "In8 Pd2 Sr2"
_cell_length_a       4.60691
_cell_length_b       7.58918
_cell_length_c       8.94982
_cell_angle_alpha    90
_cell_angle_beta     75.0857
_cell_angle_gamma    90

_space_group_name_H-M_alt    "P 1"
_space_group_IT_number       1

loop_
  _space_group_symop_operation_xyz
  'x, y, z'

loop_
  _atom_site_type_symbol
  _atom_site_label
  _atom_site_symmetry_multiplicity
  _atom_site_fract_x
  _atom_site_fract_y
  _atom_site_fract_z
  _atom_site_occupancy
  In  In1       1.0  0.50000  0.00000  0.00000  1.0000
  In  In2       1.0  0.50000  0.50000  0.00000  1.0000
  In  In3       1.0  0.93000  0.75000  0.13900  1.0000
  In  In4       1.0  0.31500  0.55100  0.36900  1.0000
  In  In5       1.0  0.31500  0.94900  0.36900  1.0000
  In  In6       1.0  0.68500  0.05130  0.63100  1.0000
  In  In7       1.0  0.68500  0.44900  0.63100  1.0000
  In  In8       1.0  0.06970  0.25000  0.86100  1.0000
  Pd  Pd1       1.0  0.77400  0.75000  0.45200  1.0000
  Pd  Pd2       1.0  0.22600  0.25000  0.54800  1.0000
  Sr  Sr1       1.0  0.87600  0.25000  0.24800  1.0000
  Sr  Sr2       1.0  0.12400  0.75000  0.75200  1.0000
