data_image0
_chemical_formula_structural       Au4Ce4Zn4
_chemical_formula_sum              "Au4 Ce4 Zn4"
_cell_length_a       7.33027
_cell_length_b       4.66517
_cell_length_c       8.01814
_cell_angle_alpha    90
_cell_angle_beta     90
_cell_angle_gamma    90

_space_group_name_H-M_alt    "P 1"
_space_group_IT_number       1

loop_
  _space_group_symop_operation_xyz
  'x, y, z'

loop_
  _atom_site_type_symbol
  _atom_site_label
  _atom_site_symmetry_multiplicity
  _atom_site_fract_x
  _atom_site_fract_y
  _atom_site_fract_z
  _atom_site_occupancy
  Au  Au1       1.0  0.78400  0.25000  0.08890  1.0000
  Au  Au2       1.0  0.28400  0.25000  0.41100  1.0000
  Au  Au3       1.0  0.71600  0.75000  0.58900  1.0000
  Au  Au4       1.0  0.21600  0.75000  0.91100  1.0000
  Ce  Ce1       1.0  0.49200  0.75000  0.21200  1.0000
  Ce  Ce2       1.0  0.99200  0.75000  0.28800  1.0000
  Ce  Ce3       1.0  0.00767  0.25000  0.71200  1.0000
  Ce  Ce4       1.0  0.50800  0.25000  0.78800  1.0000
  Zn  Zn1       1.0  0.19100  0.25000  0.08020  1.0000
  Zn  Zn2       1.0  0.69100  0.25000  0.42000  1.0000
  Zn  Zn3       1.0  0.30900  0.75000  0.58000  1.0000
  Zn  Zn4       1.0  0.80900  0.75000  0.92000  1.0000
