data_image0
_chemical_formula_structural       As2Cu2O8Pb2
_chemical_formula_sum              "As2 Cu2 O8 Pb2"
_cell_length_a       4.86021
_cell_length_b       5.75526
_cell_length_c       7.86177
_cell_angle_alpha    79.6694
_cell_angle_beta     73.6192
_cell_angle_gamma    85.1548

_space_group_name_H-M_alt    "P 1"
_space_group_IT_number       1

loop_
  _space_group_symop_operation_xyz
  'x, y, z'

loop_
  _atom_site_type_symbol
  _atom_site_label
  _atom_site_symmetry_multiplicity
  _atom_site_fract_x
  _atom_site_fract_y
  _atom_site_fract_z
  _atom_site_occupancy
  As  As1       1.0  0.58400  0.79400  0.31200  1.0000
  As  As2       1.0  0.41600  0.20600  0.68800  1.0000
  Cu  Cu1       1.0  0.63400  0.19500  0.00454  1.0000
  Cu  Cu2       1.0  0.36600  0.80500  0.99500  1.0000
  O   O1        1.0  0.51900  0.62100  0.16800  1.0000
  O   O2        1.0  0.78800  0.03040  0.18200  1.0000
  O   O3        1.0  0.27000  0.90900  0.43700  1.0000
  O   O4        1.0  0.77800  0.61900  0.44000  1.0000
  O   O5        1.0  0.22200  0.38100  0.56000  1.0000
  O   O6        1.0  0.73000  0.09120  0.56300  1.0000
  O   O7        1.0  0.21200  0.97000  0.81800  1.0000
  O   O8        1.0  0.48100  0.37900  0.83200  1.0000
  Pb  Pb1       1.0  0.07670  0.29000  0.30900  1.0000
  Pb  Pb2       1.0  0.92300  0.71000  0.69100  1.0000
