data_image0
_chemical_formula_structural       Hg11K3
_chemical_formula_sum              "Hg11 K3"
_cell_length_a       5.43491
_cell_length_b       9.79475
_cell_length_c       9.79475
_cell_angle_alpha    104.59
_cell_angle_beta     106.107
_cell_angle_gamma    106.107

_space_group_name_H-M_alt    "P 1"
_space_group_IT_number       1

loop_
  _space_group_symop_operation_xyz
  'x, y, z'

loop_
  _atom_site_type_symbol
  _atom_site_label
  _atom_site_symmetry_multiplicity
  _atom_site_fract_x
  _atom_site_fract_y
  _atom_site_fract_z
  _atom_site_occupancy
  Hg  Hg1       1.0  0.35700  0.69600  0.01800  1.0000
  Hg  Hg2       1.0  0.29000  0.43100  0.14900  1.0000
  Hg  Hg3       1.0  0.64300  0.98200  0.30400  1.0000
  Hg  Hg4       1.0  0.82000  0.32000  0.32000  1.0000
  Hg  Hg5       1.0  0.29000  0.14900  0.43100  1.0000
  Hg  Hg6       1.0  0.50000  0.50000  0.50000  1.0000
  Hg  Hg7       1.0  0.71000  0.85100  0.56900  1.0000
  Hg  Hg8       1.0  0.18000  0.68000  0.68000  1.0000
  Hg  Hg9       1.0  0.35700  0.01800  0.69600  1.0000
  Hg  Hg10      1.0  0.71000  0.56900  0.85100  1.0000
  Hg  Hg11      1.0  0.64300  0.30400  0.98200  1.0000
  K   K1        1.0  0.00000  0.00000  0.00000  1.0000
  K   K2        1.0  0.00000  0.70400  0.29600  1.0000
  K   K3        1.0  0.00000  0.29600  0.70400  1.0000
