data_image0
_chemical_formula_structural       Sb6Y8
_chemical_formula_sum              "Sb6 Y8"
_cell_length_a       7.9716
_cell_length_b       7.9716
_cell_length_c       7.9716
_cell_angle_alpha    109.471
_cell_angle_beta     109.471
_cell_angle_gamma    109.471

_space_group_name_H-M_alt    "P 1"
_space_group_IT_number       1

loop_
  _space_group_symop_operation_xyz
  'x, y, z'

loop_
  _atom_site_type_symbol
  _atom_site_label
  _atom_site_symmetry_multiplicity
  _atom_site_fract_x
  _atom_site_fract_y
  _atom_site_fract_z
  _atom_site_occupancy
  Sb  Sb1       1.0  0.87500  0.75000  0.12500  1.0000
  Sb  Sb2       1.0  0.12500  0.37500  0.25000  1.0000
  Sb  Sb3       1.0  0.62500  0.25000  0.37500  1.0000
  Sb  Sb4       1.0  0.75000  0.87500  0.62500  1.0000
  Sb  Sb5       1.0  0.37500  0.12500  0.75000  1.0000
  Sb  Sb6       1.0  0.25000  0.62500  0.87500  1.0000
  Y   Y1        1.0  0.14500  0.00000  0.00000  1.0000
  Y   Y2        1.0  0.64500  0.00000  0.00000  1.0000
  Y   Y3        1.0  0.50000  0.50000  0.14500  1.0000
  Y   Y4        1.0  0.35500  0.85500  0.35500  1.0000
  Y   Y5        1.0  0.00000  0.64500  0.50000  1.0000
  Y   Y6        1.0  0.00000  0.14500  0.50000  1.0000
  Y   Y7        1.0  0.50000  0.50000  0.64500  1.0000
  Y   Y8        1.0  0.85500  0.35500  0.85500  1.0000
