data_image0
_chemical_formula_structural       Cs4Te10
_chemical_formula_sum              "Cs4 Te10"
_cell_length_a       7.8289
_cell_length_b       7.8289
_cell_length_c       10.3402
_cell_angle_alpha    90
_cell_angle_beta     90
_cell_angle_gamma    103.835

_space_group_name_H-M_alt    "P 1"
_space_group_IT_number       1

loop_
  _space_group_symop_operation_xyz
  'x, y, z'

loop_
  _atom_site_type_symbol
  _atom_site_label
  _atom_site_symmetry_multiplicity
  _atom_site_fract_x
  _atom_site_fract_y
  _atom_site_fract_z
  _atom_site_occupancy
  Cs  Cs1       1.0  0.79100  0.20900  0.25000  1.0000
  Cs  Cs2       1.0  0.43100  0.56900  0.25000  1.0000
  Cs  Cs3       1.0  0.56900  0.43100  0.75000  1.0000
  Cs  Cs4       1.0  0.20900  0.79100  0.75000  1.0000
  Te  Te1       1.0  0.33600  0.11900  0.04120  1.0000
  Te  Te2       1.0  0.88100  0.66400  0.04120  1.0000
  Te  Te3       1.0  0.11200  0.88800  0.25000  1.0000
  Te  Te4       1.0  0.33600  0.11900  0.45900  1.0000
  Te  Te5       1.0  0.88100  0.66400  0.45900  1.0000
  Te  Te6       1.0  0.11900  0.33600  0.54100  1.0000
  Te  Te7       1.0  0.66400  0.88100  0.54100  1.0000
  Te  Te8       1.0  0.88800  0.11200  0.75000  1.0000
  Te  Te9       1.0  0.11900  0.33600  0.95900  1.0000
  Te  Te10      1.0  0.66400  0.88100  0.95900  1.0000
