data_image0
_chemical_formula_structural       Ge2K2La2Se8
_chemical_formula_sum              "Ge2 K2 La2 Se8"
_cell_length_a       6.99225
_cell_length_b       7.11626
_cell_length_c       9.17695
_cell_angle_alpha    90
_cell_angle_beta     107.72
_cell_angle_gamma    90

_space_group_name_H-M_alt    "P 1"
_space_group_IT_number       1

loop_
  _space_group_symop_operation_xyz
  'x, y, z'

loop_
  _atom_site_type_symbol
  _atom_site_label
  _atom_site_symmetry_multiplicity
  _atom_site_fract_x
  _atom_site_fract_y
  _atom_site_fract_z
  _atom_site_occupancy
  Ge  Ge1       1.0  0.21800  0.52900  0.31800  1.0000
  Ge  Ge2       1.0  0.78200  0.02940  0.68200  1.0000
  K   K1        1.0  0.25700  0.00697  0.06330  1.0000
  K   K2        1.0  0.74300  0.50700  0.93700  1.0000
  La  La1       1.0  0.76800  0.49700  0.44600  1.0000
  La  La2       1.0  0.23200  0.99700  0.55400  1.0000
  Se  Se1       1.0  0.41800  0.53300  0.15300  1.0000
  Se  Se2       1.0  0.97000  0.77200  0.26900  1.0000
  Se  Se3       1.0  0.01370  0.25400  0.28400  1.0000
  Se  Se4       1.0  0.58000  0.08400  0.42400  1.0000
  Se  Se5       1.0  0.42000  0.58400  0.57600  1.0000
  Se  Se6       1.0  0.98600  0.75400  0.71600  1.0000
  Se  Se7       1.0  0.03010  0.27200  0.73100  1.0000
  Se  Se8       1.0  0.58200  0.03300  0.84700  1.0000
