data_image0
_chemical_formula_structural       Au6In6Sr2
_chemical_formula_sum              "Au6 In6 Sr2"
_cell_length_a       4.59892
_cell_length_b       7.85816
_cell_length_c       9.21562
_cell_angle_alpha    90
_cell_angle_beta     90
_cell_angle_gamma    90

_space_group_name_H-M_alt    "P 1"
_space_group_IT_number       1

loop_
  _space_group_symop_operation_xyz
  'x, y, z'

loop_
  _atom_site_type_symbol
  _atom_site_label
  _atom_site_symmetry_multiplicity
  _atom_site_fract_x
  _atom_site_fract_y
  _atom_site_fract_z
  _atom_site_occupancy
  Au  Au1       1.0  0.25000  0.25000  0.04530  1.0000
  Au  Au2       1.0  0.75000  0.02000  0.41000  1.0000
  Au  Au3       1.0  0.75000  0.48000  0.41000  1.0000
  Au  Au4       1.0  0.25000  0.52000  0.59000  1.0000
  Au  Au5       1.0  0.25000  0.98000  0.59000  1.0000
  Au  Au6       1.0  0.75000  0.75000  0.95500  1.0000
  In  In1       1.0  0.75000  0.05260  0.11500  1.0000
  In  In2       1.0  0.75000  0.44700  0.11500  1.0000
  In  In3       1.0  0.25000  0.25000  0.36700  1.0000
  In  In4       1.0  0.75000  0.75000  0.63300  1.0000
  In  In5       1.0  0.25000  0.55300  0.88500  1.0000
  In  In6       1.0  0.25000  0.94700  0.88500  1.0000
  Sr  Sr1       1.0  0.25000  0.75000  0.27300  1.0000
  Sr  Sr2       1.0  0.75000  0.25000  0.72700  1.0000
