data_image0
_chemical_formula_structural       Al8Mg4
_chemical_formula_sum              "Al8 Mg4"
_cell_length_a       4.19663
_cell_length_b       4.19663
_cell_length_c       12.8253
_cell_angle_alpha    99.4163
_cell_angle_beta     99.4163
_cell_angle_gamma    90

_space_group_name_H-M_alt    "P 1"
_space_group_IT_number       1

loop_
  _space_group_symop_operation_xyz
  'x, y, z'

loop_
  _atom_site_type_symbol
  _atom_site_label
  _atom_site_symmetry_multiplicity
  _atom_site_fract_x
  _atom_site_fract_y
  _atom_site_fract_z
  _atom_site_occupancy
  Al  Al1       1.0  0.49900  0.99900  0.99900  1.0000
  Al  Al2       1.0  0.00051  0.50100  0.00102  1.0000
  Al  Al3       1.0  0.58200  0.58200  0.16400  1.0000
  Al  Al4       1.0  0.66800  0.16800  0.33600  1.0000
  Al  Al5       1.0  0.24900  0.24900  0.49900  1.0000
  Al  Al6       1.0  0.75100  0.75100  0.50100  1.0000
  Al  Al7       1.0  0.83200  0.33200  0.66400  1.0000
  Al  Al8       1.0  0.41800  0.41800  0.83600  1.0000
  Mg  Mg1       1.0  0.08190  0.08190  0.16400  1.0000
  Mg  Mg2       1.0  0.16800  0.66800  0.33600  1.0000
  Mg  Mg3       1.0  0.33200  0.83200  0.66400  1.0000
  Mg  Mg4       1.0  0.91800  0.91800  0.83600  1.0000
