data_image0
_chemical_formula_structural       Ba4Ge2Se4Te4
_chemical_formula_sum              "Ba4 Ge2 Se4 Te4"
_cell_length_a       7.57299
_cell_length_b       7.29217
_cell_length_c       9.46901
_cell_angle_alpha    90
_cell_angle_beta     108.19
_cell_angle_gamma    90

_space_group_name_H-M_alt    "P 1"
_space_group_IT_number       1

loop_
  _space_group_symop_operation_xyz
  'x, y, z'

loop_
  _atom_site_type_symbol
  _atom_site_label
  _atom_site_symmetry_multiplicity
  _atom_site_fract_x
  _atom_site_fract_y
  _atom_site_fract_z
  _atom_site_occupancy
  Ba  Ba1       1.0  0.23000  0.25000  0.05710  1.0000
  Ba  Ba2       1.0  0.78300  0.75000  0.44700  1.0000
  Ba  Ba3       1.0  0.21700  0.25000  0.55300  1.0000
  Ba  Ba4       1.0  0.77000  0.75000  0.94300  1.0000
  Ge  Ge1       1.0  0.21400  0.75000  0.29900  1.0000
  Ge  Ge2       1.0  0.78600  0.25000  0.70100  1.0000
  Se  Se1       1.0  0.00381  0.00395  0.24400  1.0000
  Se  Se2       1.0  0.00381  0.49600  0.24400  1.0000
  Se  Se3       1.0  0.99600  0.50400  0.75600  1.0000
  Se  Se4       1.0  0.99600  0.99600  0.75600  1.0000
  Te  Te1       1.0  0.39800  0.75000  0.10900  1.0000
  Te  Te2       1.0  0.61800  0.25000  0.41600  1.0000
  Te  Te3       1.0  0.38200  0.75000  0.58400  1.0000
  Te  Te4       1.0  0.60200  0.25000  0.89100  1.0000
