data_image0
_chemical_formula_structural       C8Fe2Yb4
_chemical_formula_sum              "C8 Fe2 Yb4"
_cell_length_a       4.97618
_cell_length_b       6.72894
_cell_length_c       6.72894
_cell_angle_alpha    68.0442
_cell_angle_beta     111.701
_cell_angle_gamma    111.701

_space_group_name_H-M_alt    "P 1"
_space_group_IT_number       1

loop_
  _space_group_symop_operation_xyz
  'x, y, z'

loop_
  _atom_site_type_symbol
  _atom_site_label
  _atom_site_symmetry_multiplicity
  _atom_site_fract_x
  _atom_site_fract_y
  _atom_site_fract_z
  _atom_site_occupancy
  C   C1        1.0  0.92100  0.75000  0.09150  1.0000
  C   C2        1.0  0.87300  0.54000  0.20500  1.0000
  C   C3        1.0  0.57900  0.90800  0.25000  1.0000
  C   C4        1.0  0.62700  0.79500  0.46000  1.0000
  C   C5        1.0  0.37300  0.20500  0.54000  1.0000
  C   C6        1.0  0.42100  0.09150  0.75000  1.0000
  C   C7        1.0  0.12700  0.46000  0.79500  1.0000
  C   C8        1.0  0.07940  0.25000  0.90800  1.0000
  Fe  Fe1       1.0  0.25000  0.00000  0.00000  1.0000
  Fe  Fe2       1.0  0.75000  0.00000  0.00000  1.0000
  Yb  Yb1       1.0  0.35400  0.51700  0.19100  1.0000
  Yb  Yb2       1.0  0.14600  0.80900  0.48300  1.0000
  Yb  Yb3       1.0  0.85400  0.19100  0.51700  1.0000
  Yb  Yb4       1.0  0.64600  0.48300  0.80900  1.0000
