data_image0
_chemical_formula_structural       Eu2Ga4Te8
_chemical_formula_sum              "Eu2 Ga4 Te8"
_cell_length_a       6.72088
_cell_length_b       6.72088
_cell_length_c       11.6416
_cell_angle_alpha    90
_cell_angle_beta     90
_cell_angle_gamma    119.164

_space_group_name_H-M_alt    "P 1"
_space_group_IT_number       1

loop_
  _space_group_symop_operation_xyz
  'x, y, z'

loop_
  _atom_site_type_symbol
  _atom_site_label
  _atom_site_symmetry_multiplicity
  _atom_site_fract_x
  _atom_site_fract_y
  _atom_site_fract_z
  _atom_site_occupancy
  Eu  Eu1       1.0  0.50000  0.50000  0.25000  1.0000
  Eu  Eu2       1.0  0.50000  0.50000  0.75000  1.0000
  Ga  Ga1       1.0  0.75700  0.24000  0.00000  1.0000
  Ga  Ga2       1.0  0.24300  0.76000  0.00000  1.0000
  Ga  Ga3       1.0  0.76000  0.24300  0.50000  1.0000
  Ga  Ga4       1.0  0.24000  0.75700  0.50000  1.0000
  Te  Te1       1.0  0.19300  0.33600  0.00000  1.0000
  Te  Te2       1.0  0.80700  0.66400  0.00000  1.0000
  Te  Te3       1.0  0.50000  1.00000  0.17900  1.0000
  Te  Te4       1.0  0.00000  0.50000  0.32100  1.0000
  Te  Te5       1.0  0.33600  0.19300  0.50000  1.0000
  Te  Te6       1.0  0.66400  0.80700  0.50000  1.0000
  Te  Te7       1.0  0.00000  0.50000  0.67900  1.0000
  Te  Te8       1.0  0.50000  1.00000  0.82100  1.0000
