data_image0
_chemical_formula_structural       Ba4Ge2Se8
_chemical_formula_sum              "Ba4 Ge2 Se8"
_cell_length_a       7.16801
_cell_length_b       7.16468
_cell_length_c       9.30521
_cell_angle_alpha    90
_cell_angle_beta     108.73
_cell_angle_gamma    90

_space_group_name_H-M_alt    "P 1"
_space_group_IT_number       1

loop_
  _space_group_symop_operation_xyz
  'x, y, z'

loop_
  _atom_site_type_symbol
  _atom_site_label
  _atom_site_symmetry_multiplicity
  _atom_site_fract_x
  _atom_site_fract_y
  _atom_site_fract_z
  _atom_site_occupancy
  Ba  Ba1       1.0  0.27800  0.25000  0.07360  1.0000
  Ba  Ba2       1.0  0.78200  0.75000  0.45300  1.0000
  Ba  Ba3       1.0  0.21800  0.25000  0.54700  1.0000
  Ba  Ba4       1.0  0.72200  0.75000  0.92600  1.0000
  Ge  Ge1       1.0  0.20900  0.75000  0.29000  1.0000
  Ge  Ge2       1.0  0.79100  0.25000  0.71000  1.0000
  Se  Se1       1.0  0.41600  0.75000  0.13300  1.0000
  Se  Se2       1.0  0.99200  0.00938  0.22800  1.0000
  Se  Se3       1.0  0.99200  0.49100  0.22800  1.0000
  Se  Se4       1.0  0.63100  0.25000  0.44200  1.0000
  Se  Se5       1.0  0.36900  0.75000  0.55800  1.0000
  Se  Se6       1.0  0.00758  0.50900  0.77200  1.0000
  Se  Se7       1.0  0.00758  0.99100  0.77200  1.0000
  Se  Se8       1.0  0.58400  0.25000  0.86700  1.0000
