data_image0
_chemical_formula_structural       CaMo6S8
_chemical_formula_sum              "Ca1 Mo6 S8"
_cell_length_a       6.53694
_cell_length_b       6.53694
_cell_length_c       6.53694
_cell_angle_alpha    89.6031
_cell_angle_beta     89.6031
_cell_angle_gamma    89.6031

_space_group_name_H-M_alt    "P 1"
_space_group_IT_number       1

loop_
  _space_group_symop_operation_xyz
  'x, y, z'

loop_
  _atom_site_type_symbol
  _atom_site_label
  _atom_site_symmetry_multiplicity
  _atom_site_fract_x
  _atom_site_fract_y
  _atom_site_fract_z
  _atom_site_occupancy
  Ca  Ca1       1.0  0.00000  0.00000  0.00000  1.0000
  Mo  Mo1       1.0  0.41800  0.56000  0.22500  1.0000
  Mo  Mo2       1.0  0.56000  0.22500  0.41800  1.0000
  Mo  Mo3       1.0  0.77500  0.58200  0.44000  1.0000
  Mo  Mo4       1.0  0.22500  0.41800  0.56000  1.0000
  Mo  Mo5       1.0  0.44000  0.77500  0.58200  1.0000
  Mo  Mo6       1.0  0.58200  0.44000  0.77500  1.0000
  S   S1        1.0  0.74500  0.37800  0.12700  1.0000
  S   S2        1.0  0.23900  0.23900  0.23900  1.0000
  S   S3        1.0  0.62200  0.87300  0.25500  1.0000
  S   S4        1.0  0.12700  0.74500  0.37800  1.0000
  S   S5        1.0  0.87300  0.25500  0.62200  1.0000
  S   S6        1.0  0.37800  0.12700  0.74500  1.0000
  S   S7        1.0  0.76100  0.76100  0.76100  1.0000
  S   S8        1.0  0.25500  0.62200  0.87300  1.0000
