data_image0
_chemical_formula_structural       O8Sn6
_chemical_formula_sum              "O8 Sn6"
_cell_length_a       7.06092
_cell_length_b       5.77487
_cell_length_c       6.0496
_cell_angle_alpha    90
_cell_angle_beta     90.4559
_cell_angle_gamma    90

_space_group_name_H-M_alt    "P 1"
_space_group_IT_number       1

loop_
  _space_group_symop_operation_xyz
  'x, y, z'

loop_
  _atom_site_type_symbol
  _atom_site_label
  _atom_site_symmetry_multiplicity
  _atom_site_fract_x
  _atom_site_fract_y
  _atom_site_fract_z
  _atom_site_occupancy
  O   O1        1.0  0.70900  0.71900  1.00000  1.0000
  O   O2        1.0  0.29100  0.28100  0.00001  1.0000
  O   O3        1.0  0.73300  0.26200  0.00038  1.0000
  O   O4        1.0  0.26700  0.26200  0.50000  1.0000
  O   O5        1.0  0.70900  0.28100  0.50000  1.0000
  O   O6        1.0  0.29100  0.71900  0.50000  1.0000
  O   O7        1.0  0.73300  0.73800  0.50000  1.0000
  O   O8        1.0  0.26700  0.73800  1.00000  1.0000
  Sn  Sn1       1.0  0.50000  0.00000  1.00000  1.0000
  Sn  Sn2       1.0  0.20000  0.50000  0.24900  1.0000
  Sn  Sn3       1.0  0.80000  0.50000  0.25100  1.0000
  Sn  Sn4       1.0  0.50000  0.00000  0.50000  1.0000
  Sn  Sn5       1.0  0.20000  0.50000  0.74900  1.0000
  Sn  Sn6       1.0  0.80000  0.50000  0.75100  1.0000
