data_image0
_chemical_formula_structural       Au8In4K2
_chemical_formula_sum              "Au8 In4 K2"
_cell_length_a       7.59886
_cell_length_b       7.59886
_cell_length_c       7.59886
_cell_angle_alpha    111.897
_cell_angle_beta     108.272
_cell_angle_gamma    108.272

_space_group_name_H-M_alt    "P 1"
_space_group_IT_number       1

loop_
  _space_group_symop_operation_xyz
  'x, y, z'

loop_
  _atom_site_type_symbol
  _atom_site_label
  _atom_site_symmetry_multiplicity
  _atom_site_fract_x
  _atom_site_fract_y
  _atom_site_fract_z
  _atom_site_occupancy
  Au  Au1       1.0  0.19700  0.51400  0.01400  1.0000
  Au  Au2       1.0  0.50000  0.98600  0.18400  1.0000
  Au  Au3       1.0  0.80300  0.81600  0.31600  1.0000
  Au  Au4       1.0  0.50000  0.68400  0.48600  1.0000
  Au  Au5       1.0  0.50000  0.31600  0.51400  1.0000
  Au  Au6       1.0  0.19700  0.18400  0.68400  1.0000
  Au  Au7       1.0  0.50000  0.01400  0.81600  1.0000
  Au  Au8       1.0  0.80300  0.48600  0.98600  1.0000
  In  In1       1.0  0.50000  0.35600  0.14400  1.0000
  In  In2       1.0  0.21200  0.85600  0.35600  1.0000
  In  In3       1.0  0.78800  0.14400  0.64400  1.0000
  In  In4       1.0  0.50000  0.64400  0.85600  1.0000
  K   K1        1.0  0.00000  0.25000  0.25000  1.0000
  K   K2        1.0  0.00000  0.75000  0.75000  1.0000
