data_image0
_chemical_formula_structural       Cs4Se8Si2
_chemical_formula_sum              "Cs4 Se8 Si2"
_cell_length_a       7.74529
_cell_length_b       8.6549
_cell_length_c       9.85166
_cell_angle_alpha    92.1289
_cell_angle_beta     113.147
_cell_angle_gamma    116.58

_space_group_name_H-M_alt    "P 1"
_space_group_IT_number       1

loop_
  _space_group_symop_operation_xyz
  'x, y, z'

loop_
  _atom_site_type_symbol
  _atom_site_label
  _atom_site_symmetry_multiplicity
  _atom_site_fract_x
  _atom_site_fract_y
  _atom_site_fract_z
  _atom_site_occupancy
  Cs  Cs1       1.0  0.73500  0.32900  0.14000  1.0000
  Cs  Cs2       1.0  0.12800  0.97000  0.28600  1.0000
  Cs  Cs3       1.0  0.87200  0.03010  0.71400  1.0000
  Cs  Cs4       1.0  0.26500  0.67100  0.86000  1.0000
  Se  Se1       1.0  0.23300  0.35900  0.10800  1.0000
  Se  Se2       1.0  0.57900  0.88800  0.27000  1.0000
  Se  Se3       1.0  0.79000  0.63800  0.46000  1.0000
  Se  Se4       1.0  0.30800  0.63800  0.46000  1.0000
  Se  Se5       1.0  0.69200  0.36200  0.54000  1.0000
  Se  Se6       1.0  0.21000  0.36200  0.54000  1.0000
  Se  Se7       1.0  0.42100  0.11200  0.73000  1.0000
  Se  Se8       1.0  0.76700  0.64100  0.89200  1.0000
  Si  Si1       1.0  0.45300  0.60700  0.29800  1.0000
  Si  Si2       1.0  0.54700  0.39300  0.70200  1.0000
