data_image0
_chemical_formula_structural       K2Mo6Te6
_chemical_formula_sum              "K2 Mo6 Te6"
_cell_length_a       9.83414
_cell_length_b       9.83173
_cell_length_c       4.62574
_cell_angle_alpha    90
_cell_angle_beta     90
_cell_angle_gamma    119.983

_space_group_name_H-M_alt    "P 1"
_space_group_IT_number       1

loop_
  _space_group_symop_operation_xyz
  'x, y, z'

loop_
  _atom_site_type_symbol
  _atom_site_label
  _atom_site_symmetry_multiplicity
  _atom_site_fract_x
  _atom_site_fract_y
  _atom_site_fract_z
  _atom_site_occupancy
  K   K1        1.0  0.33300  0.66700  0.25000  1.0000
  K   K2        1.0  0.66700  0.33300  0.75000  1.0000
  Mo  Mo1       1.0  0.14100  0.16800  0.25000  1.0000
  Mo  Mo2       1.0  0.02720  0.85900  0.25000  1.0000
  Mo  Mo3       1.0  0.83200  0.97300  0.25000  1.0000
  Mo  Mo4       1.0  0.16800  0.02720  0.75000  1.0000
  Mo  Mo5       1.0  0.97300  0.14100  0.75000  1.0000
  Mo  Mo6       1.0  0.85900  0.83200  0.75000  1.0000
  Te  Te1       1.0  0.35800  0.05660  0.25000  1.0000
  Te  Te2       1.0  0.94300  0.30100  0.25000  1.0000
  Te  Te3       1.0  0.69900  0.64200  0.25000  1.0000
  Te  Te4       1.0  0.30100  0.35800  0.75000  1.0000
  Te  Te5       1.0  0.05670  0.69900  0.75000  1.0000
  Te  Te6       1.0  0.64200  0.94300  0.75000  1.0000
