data_image0
_chemical_formula_structural       K2Pr2Se8Si2
_chemical_formula_sum              "K2 Pr2 Se8 Si2"
_cell_length_a       6.85515
_cell_length_b       7.02802
_cell_length_c       9.18375
_cell_angle_alpha    90
_cell_angle_beta     107.814
_cell_angle_gamma    90

_space_group_name_H-M_alt    "P 1"
_space_group_IT_number       1

loop_
  _space_group_symop_operation_xyz
  'x, y, z'

loop_
  _atom_site_type_symbol
  _atom_site_label
  _atom_site_symmetry_multiplicity
  _atom_site_fract_x
  _atom_site_fract_y
  _atom_site_fract_z
  _atom_site_occupancy
  K   K1        1.0  0.76600  0.20800  0.06550  1.0000
  K   K2        1.0  0.23400  0.70800  0.93500  1.0000
  Pr  Pr1       1.0  0.27000  0.69500  0.44900  1.0000
  Pr  Pr2       1.0  0.73000  0.19500  0.55100  1.0000
  Se  Se1       1.0  0.91200  0.72800  0.16000  1.0000
  Se  Se2       1.0  0.47400  0.96400  0.26900  1.0000
  Se  Se3       1.0  0.51500  0.45700  0.28400  1.0000
  Se  Se4       1.0  0.09060  0.27400  0.43200  1.0000
  Se  Se5       1.0  0.90900  0.77400  0.56800  1.0000
  Se  Se6       1.0  0.48500  0.95700  0.71600  1.0000
  Se  Se7       1.0  0.52600  0.46400  0.73100  1.0000
  Se  Se8       1.0  0.08760  0.22800  0.84000  1.0000
  Si  Si1       1.0  0.71600  0.72600  0.31900  1.0000
  Si  Si2       1.0  0.28400  0.22600  0.68100  1.0000
