data_image0
_chemical_formula_structural       Cr4F10
_chemical_formula_sum              "Cr4 F10"
_cell_length_a       5.189
_cell_length_b       5.189
_cell_length_c       6.98965
_cell_angle_alpha    68.5821
_cell_angle_beta     111.418
_cell_angle_gamma    92.3033

_space_group_name_H-M_alt    "P 1"
_space_group_IT_number       1

loop_
  _space_group_symop_operation_xyz
  'x, y, z'

loop_
  _atom_site_type_symbol
  _atom_site_label
  _atom_site_symmetry_multiplicity
  _atom_site_fract_x
  _atom_site_fract_y
  _atom_site_fract_z
  _atom_site_occupancy
  Cr  Cr1       1.0  0.00000  0.00000  0.00000  1.0000
  Cr  Cr2       1.0  0.50000  0.50000  0.00000  1.0000
  Cr  Cr3       1.0  0.50000  0.50000  0.50000  1.0000
  Cr  Cr4       1.0  0.00000  0.00000  0.50000  1.0000
  F   F1        1.0  0.34600  0.15000  0.05090  1.0000
  F   F2        1.0  0.91600  0.17000  0.17700  1.0000
  F   F3        1.0  0.15700  0.65700  0.25000  1.0000
  F   F4        1.0  0.67000  0.41600  0.32300  1.0000
  F   F5        1.0  0.65000  0.84600  0.44900  1.0000
  F   F6        1.0  0.35000  0.15400  0.55100  1.0000
  F   F7        1.0  0.33000  0.58400  0.67700  1.0000
  F   F8        1.0  0.84300  0.34300  0.75000  1.0000
  F   F9        1.0  0.08440  0.83000  0.82300  1.0000
  F   F10       1.0  0.65400  0.85000  0.94900  1.0000
