data_image0
_chemical_formula_structural       Ag2Cs2Np2S6
_chemical_formula_sum              "Ag2 Cs2 Np2 S6"
_cell_length_a       4.13095
_cell_length_b       7.9727
_cell_length_c       10.4672
_cell_angle_alpha    90
_cell_angle_beta     90
_cell_angle_gamma    74.9852

_space_group_name_H-M_alt    "P 1"
_space_group_IT_number       1

loop_
  _space_group_symop_operation_xyz
  'x, y, z'

loop_
  _atom_site_type_symbol
  _atom_site_label
  _atom_site_symmetry_multiplicity
  _atom_site_fract_x
  _atom_site_fract_y
  _atom_site_fract_z
  _atom_site_occupancy
  Ag  Ag1       1.0  0.45600  0.08830  0.25000  1.0000
  Ag  Ag2       1.0  0.54400  0.91200  0.75000  1.0000
  Cs  Cs1       1.0  0.74100  0.51900  0.25000  1.0000
  Cs  Cs2       1.0  0.25900  0.48100  0.75000  1.0000
  Np  Np1       1.0  0.00000  0.00000  0.00000  1.0000
  Np  Np2       1.0  0.00000  0.00000  0.50000  1.0000
  S   S1        1.0  0.38600  0.22700  0.03560  1.0000
  S   S2        1.0  0.05400  0.89200  0.25000  1.0000
  S   S3        1.0  0.38600  0.22700  0.46400  1.0000
  S   S4        1.0  0.61400  0.77300  0.53600  1.0000
  S   S5        1.0  0.94600  0.10800  0.75000  1.0000
  S   S6        1.0  0.61400  0.77300  0.96400  1.0000
