data_image0
_chemical_formula_structural       AgIn5Se8
_chemical_formula_sum              "Ag1 In5 Se8"
_cell_length_a       5.88206
_cell_length_b       5.88206
_cell_length_c       11.9876
_cell_angle_alpha    90
_cell_angle_beta     90
_cell_angle_gamma    90

_space_group_name_H-M_alt    "P 1"
_space_group_IT_number       1

loop_
  _space_group_symop_operation_xyz
  'x, y, z'

loop_
  _atom_site_type_symbol
  _atom_site_label
  _atom_site_symmetry_multiplicity
  _atom_site_fract_x
  _atom_site_fract_y
  _atom_site_fract_z
  _atom_site_occupancy
  Ag  Ag1       1.0  0.00000  0.00000  0.50000  1.0000
  In  In1       1.0  0.50000  0.50000  0.00000  1.0000
  In  In2       1.0  0.50000  0.00000  0.25400  1.0000
  In  In3       1.0  0.00000  0.50000  0.25400  1.0000
  In  In4       1.0  0.50000  0.00000  0.74600  1.0000
  In  In5       1.0  0.00000  0.50000  0.74600  1.0000
  Se  Se1       1.0  0.22600  0.22600  0.11200  1.0000
  Se  Se2       1.0  0.77400  0.77400  0.11200  1.0000
  Se  Se3       1.0  0.72600  0.27400  0.38300  1.0000
  Se  Se4       1.0  0.27400  0.72600  0.38300  1.0000
  Se  Se5       1.0  0.27400  0.27400  0.61700  1.0000
  Se  Se6       1.0  0.72600  0.72600  0.61700  1.0000
  Se  Se7       1.0  0.77400  0.22600  0.88800  1.0000
  Se  Se8       1.0  0.22600  0.77400  0.88800  1.0000
