data_image0
_chemical_formula_structural       Eu10Rh4
_chemical_formula_sum              "Eu10 Rh4"
_cell_length_a       6.63201
_cell_length_b       7.63547
_cell_length_c       8.73595
_cell_angle_alpha    96.0535
_cell_angle_beta     112.308
_cell_angle_gamma    90

_space_group_name_H-M_alt    "P 1"
_space_group_IT_number       1

loop_
  _space_group_symop_operation_xyz
  'x, y, z'

loop_
  _atom_site_type_symbol
  _atom_site_label
  _atom_site_symmetry_multiplicity
  _atom_site_fract_x
  _atom_site_fract_y
  _atom_site_fract_z
  _atom_site_occupancy
  Eu  Eu1       1.0  0.20300  0.41900  0.17500  1.0000
  Eu  Eu2       1.0  0.97200  0.91900  0.17500  1.0000
  Eu  Eu3       1.0  0.79500  0.32300  0.43300  1.0000
  Eu  Eu4       1.0  0.63800  0.82300  0.43300  1.0000
  Eu  Eu5       1.0  0.20500  0.67700  0.56700  1.0000
  Eu  Eu6       1.0  0.36200  0.17700  0.56700  1.0000
  Eu  Eu7       1.0  0.02770  0.08110  0.82500  1.0000
  Eu  Eu8       1.0  0.79700  0.58100  0.82500  1.0000
  Eu  Eu9       1.0  0.56900  0.25000  1.00000  1.0000
  Eu  Eu10      1.0  0.43100  0.75000  0.00000  1.0000
  Rh  Rh1       1.0  0.39000  0.07960  0.22000  1.0000
  Rh  Rh2       1.0  0.83000  0.58000  0.22000  1.0000
  Rh  Rh3       1.0  0.61000  0.92000  0.78000  1.0000
  Rh  Rh4       1.0  0.17000  0.42000  0.78000  1.0000
