data_image0
_chemical_formula_structural       Ce2Ge2K2Se8
_chemical_formula_sum              "Ce2 Ge2 K2 Se8"
_cell_length_a       7.00271
_cell_length_b       7.11742
_cell_length_c       9.23415
_cell_angle_alpha    90
_cell_angle_beta     107.748
_cell_angle_gamma    90

_space_group_name_H-M_alt    "P 1"
_space_group_IT_number       1

loop_
  _space_group_symop_operation_xyz
  'x, y, z'

loop_
  _atom_site_type_symbol
  _atom_site_label
  _atom_site_symmetry_multiplicity
  _atom_site_fract_x
  _atom_site_fract_y
  _atom_site_fract_z
  _atom_site_occupancy
  Ce  Ce1       1.0  0.26900  0.71500  0.44700  1.0000
  Ce  Ce2       1.0  0.73100  0.21500  0.55300  1.0000
  Ge  Ge1       1.0  0.71900  0.74500  0.31900  1.0000
  Ge  Ge2       1.0  0.28100  0.24500  0.68100  1.0000
  K   K1        1.0  0.75800  0.22400  0.06360  1.0000
  K   K2        1.0  0.24200  0.72400  0.93600  1.0000
  Se  Se1       1.0  0.91800  0.75000  0.15600  1.0000
  Se  Se2       1.0  0.46900  0.98700  0.27000  1.0000
  Se  Se3       1.0  0.51300  0.47100  0.28500  1.0000
  Se  Se4       1.0  0.07930  0.30400  0.42500  1.0000
  Se  Se5       1.0  0.92100  0.80400  0.57500  1.0000
  Se  Se6       1.0  0.48700  0.97100  0.71500  1.0000
  Se  Se7       1.0  0.53100  0.48700  0.73000  1.0000
  Se  Se8       1.0  0.08180  0.25000  0.84400  1.0000
