data_image0
_chemical_formula_structural       Eu2In4Te8
_chemical_formula_sum              "Eu2 In4 Te8"
_cell_length_a       6.84114
_cell_length_b       6.84114
_cell_length_c       11.7666
_cell_angle_alpha    90
_cell_angle_beta     90
_cell_angle_gamma    116.517

_space_group_name_H-M_alt    "P 1"
_space_group_IT_number       1

loop_
  _space_group_symop_operation_xyz
  'x, y, z'

loop_
  _atom_site_type_symbol
  _atom_site_label
  _atom_site_symmetry_multiplicity
  _atom_site_fract_x
  _atom_site_fract_y
  _atom_site_fract_z
  _atom_site_occupancy
  Eu  Eu1       1.0  0.50000  0.50000  0.25000  1.0000
  Eu  Eu2       1.0  0.50000  0.50000  0.75000  1.0000
  In  In1       1.0  0.76300  0.23200  0.00000  1.0000
  In  In2       1.0  0.23700  0.76800  0.00000  1.0000
  In  In3       1.0  0.76800  0.23700  0.50000  1.0000
  In  In4       1.0  0.23200  0.76300  0.50000  1.0000
  Te  Te1       1.0  0.21300  0.33700  0.00000  1.0000
  Te  Te2       1.0  0.78700  0.66300  0.00000  1.0000
  Te  Te3       1.0  0.50000  0.00000  0.18900  1.0000
  Te  Te4       1.0  0.00000  0.50000  0.31100  1.0000
  Te  Te5       1.0  0.33700  0.21300  0.50000  1.0000
  Te  Te6       1.0  0.66300  0.78700  0.50000  1.0000
  Te  Te7       1.0  0.00000  0.50000  0.68900  1.0000
  Te  Te8       1.0  0.50000  0.00000  0.81100  1.0000
