data_image0
_chemical_formula_structural       Ge2K2Pr2Se8
_chemical_formula_sum              "Ge2 K2 Pr2 Se8"
_cell_length_a       6.96287
_cell_length_b       7.10203
_cell_length_c       9.20321
_cell_angle_alpha    90
_cell_angle_beta     107.858
_cell_angle_gamma    90

_space_group_name_H-M_alt    "P 1"
_space_group_IT_number       1

loop_
  _space_group_symop_operation_xyz
  'x, y, z'

loop_
  _atom_site_type_symbol
  _atom_site_label
  _atom_site_symmetry_multiplicity
  _atom_site_fract_x
  _atom_site_fract_y
  _atom_site_fract_z
  _atom_site_occupancy
  Ge  Ge1       1.0  0.21900  0.53100  0.32100  1.0000
  Ge  Ge2       1.0  0.78100  0.03110  0.67900  1.0000
  K   K1        1.0  0.25700  0.00907  0.06310  1.0000
  K   K2        1.0  0.74300  0.50900  0.93700  1.0000
  Pr  Pr1       1.0  0.77000  0.50000  0.44700  1.0000
  Pr  Pr2       1.0  0.23000  0.00000  0.55300  1.0000
  Se  Se1       1.0  0.41900  0.53500  0.15600  1.0000
  Se  Se2       1.0  0.96800  0.77300  0.27100  1.0000
  Se  Se3       1.0  0.01250  0.25600  0.28700  1.0000
  Se  Se4       1.0  0.57500  0.09270  0.42400  1.0000
  Se  Se5       1.0  0.42500  0.59300  0.57600  1.0000
  Se  Se6       1.0  0.98800  0.75600  0.71300  1.0000
  Se  Se7       1.0  0.03240  0.27300  0.72900  1.0000
  Se  Se8       1.0  0.58100  0.03530  0.84400  1.0000
