data_image0
_chemical_formula_structural       Mn2Na4O8
_chemical_formula_sum              "Mn2 Na4 O8"
_cell_length_a       5.65251
_cell_length_b       5.68971
_cell_length_c       6.59031
_cell_angle_alpha    90
_cell_angle_beta     90
_cell_angle_gamma    119.784

_space_group_name_H-M_alt    "P 1"
_space_group_IT_number       1

loop_
  _space_group_symop_operation_xyz
  'x, y, z'

loop_
  _atom_site_type_symbol
  _atom_site_label
  _atom_site_symmetry_multiplicity
  _atom_site_fract_x
  _atom_site_fract_y
  _atom_site_fract_z
  _atom_site_occupancy
  Mn  Mn1       1.0  0.66600  0.33200  0.16900  1.0000
  Mn  Mn2       1.0  0.33400  0.66800  0.66900  1.0000
  Na  Na1       1.0  0.33400  0.66800  0.09900  1.0000
  Na  Na2       1.0  0.99900  0.99800  0.49700  1.0000
  Na  Na3       1.0  0.66600  0.33200  0.59900  1.0000
  Na  Na4       1.0  0.00090  0.00179  0.99700  1.0000
  O   O1        1.0  0.82500  0.65000  0.25300  1.0000
  O   O2        1.0  0.34900  0.17300  0.25900  1.0000
  O   O3        1.0  0.82400  0.17300  0.25900  1.0000
  O   O4        1.0  0.33100  0.66300  0.42300  1.0000
  O   O5        1.0  0.17500  0.35000  0.75300  1.0000
  O   O6        1.0  0.17600  0.82700  0.75900  1.0000
  O   O7        1.0  0.65100  0.82700  0.75900  1.0000
  O   O8        1.0  0.66900  0.33700  0.92300  1.0000
