data_image0
_chemical_formula_structural       Cu2O3Sr2
_chemical_formula_sum              "Cu2 O3 Sr2"
_cell_length_a       4.09239
_cell_length_b       6.10836
_cell_length_c       7.17002
_cell_angle_alpha    95.4857
_cell_angle_beta     73.4183
_cell_angle_gamma    109.571

_space_group_name_H-M_alt    "P 1"
_space_group_IT_number       1

loop_
  _space_group_symop_operation_xyz
  'x, y, z'

loop_
  _atom_site_type_symbol
  _atom_site_label
  _atom_site_symmetry_multiplicity
  _atom_site_fract_x
  _atom_site_fract_y
  _atom_site_fract_z
  _atom_site_occupancy
  Cu  Cu1       1.0  0.32900  0.65800  0.00000  1.0000
  Cu  Cu2       1.0  0.67100  0.34200  0.00000  1.0000
  O   O1        1.0  0.16000  0.32100  0.00000  1.0000
  O   O2        1.0  0.84000  0.67900  0.00000  1.0000
  O   O3        1.0  0.50000  0.00000  0.00000  1.0000
  Sr  Sr1       1.0  0.88600  0.00000  0.22800  1.0000
  Sr  Sr2       1.0  0.11400  0.00000  0.77200  1.0000
