data_image0
_chemical_formula_structural       K6N2O6
_chemical_formula_sum              "K6 N2 O6"
_cell_length_a       7.10626
_cell_length_b       7.10626
_cell_length_c       7.1504
_cell_angle_alpha    119.796
_cell_angle_beta     119.796
_cell_angle_gamma    90

_space_group_name_H-M_alt    "P 1"
_space_group_IT_number       1

loop_
  _space_group_symop_operation_xyz
  'x, y, z'

loop_
  _atom_site_type_symbol
  _atom_site_label
  _atom_site_symmetry_multiplicity
  _atom_site_fract_x
  _atom_site_fract_y
  _atom_site_fract_z
  _atom_site_occupancy
  K   K1        1.0  0.70000  0.20000  0.02670  1.0000
  K   K2        1.0  0.20000  0.32700  0.02670  1.0000
  K   K3        1.0  0.82700  0.70000  0.02670  1.0000
  K   K4        1.0  0.32700  0.82700  0.02670  1.0000
  K   K5        1.0  0.25400  0.25400  0.50800  1.0000
  K   K6        1.0  0.75400  0.75400  0.50800  1.0000
  N   N1        1.0  0.78700  0.28700  0.57500  1.0000
  N   N2        1.0  0.28700  0.78700  0.57500  1.0000
  O   O1        1.0  0.00036  0.00036  0.00072  1.0000
  O   O2        1.0  0.50000  0.50000  0.00072  1.0000
  O   O3        1.0  0.82600  0.11100  0.43800  1.0000
  O   O4        1.0  0.61100  0.32600  0.43800  1.0000
  O   O5        1.0  0.11100  0.61100  0.43800  1.0000
  O   O6        1.0  0.32600  0.82600  0.43800  1.0000
