data_image0
_chemical_formula_structural       Cl6ISe6W
_chemical_formula_sum              "Cl6 I1 Se6 W1"
_cell_length_a       6.80077
_cell_length_b       7.66441
_cell_length_c       8.20578
_cell_angle_alpha    92.5854
_cell_angle_beta     97.5785
_cell_angle_gamma    96.2407

_space_group_name_H-M_alt    "P 1"
_space_group_IT_number       1

loop_
  _space_group_symop_operation_xyz
  'x, y, z'

loop_
  _atom_site_type_symbol
  _atom_site_label
  _atom_site_symmetry_multiplicity
  _atom_site_fract_x
  _atom_site_fract_y
  _atom_site_fract_z
  _atom_site_occupancy
  Cl  Cl1       1.0  0.42200  0.48700  0.21300  1.0000
  Cl  Cl2       1.0  0.81800  0.64300  0.47800  1.0000
  Cl  Cl3       1.0  0.62400  0.22800  0.48200  1.0000
  Cl  Cl4       1.0  0.37600  0.77200  0.51800  1.0000
  Cl  Cl5       1.0  0.18200  0.35700  0.52200  1.0000
  Cl  Cl6       1.0  0.57800  0.51300  0.78700  1.0000
  I   I1        1.0  0.50000  0.00000  0.00000  1.0000
  Se  Se1       1.0  0.97800  0.75100  0.11900  1.0000
  Se  Se2       1.0  0.85000  0.21300  0.12200  1.0000
  Se  Se3       1.0  0.05920  0.01800  0.26900  1.0000
  Se  Se4       1.0  0.94100  0.98200  0.73100  1.0000
  Se  Se5       1.0  0.15000  0.78700  0.87800  1.0000
  Se  Se6       1.0  0.02150  0.24900  0.88100  1.0000
  W   W1        1.0  0.50000  0.50000  0.50000  1.0000
