data_image0
_chemical_formula_structural       Ag2Bi4Cl2Se6
_chemical_formula_sum              "Ag2 Bi4 Cl2 Se6"
_cell_length_a       8.17264
_cell_length_b       4.16171
_cell_length_c       11.2421
_cell_angle_alpha    90
_cell_angle_beta     104.02
_cell_angle_gamma    90

_space_group_name_H-M_alt    "P 1"
_space_group_IT_number       1

loop_
  _space_group_symop_operation_xyz
  'x, y, z'

loop_
  _atom_site_type_symbol
  _atom_site_label
  _atom_site_symmetry_multiplicity
  _atom_site_fract_x
  _atom_site_fract_y
  _atom_site_fract_z
  _atom_site_occupancy
  Ag  Ag1       1.0  0.04870  0.25000  0.41200  1.0000
  Ag  Ag2       1.0  0.95100  0.75000  0.58800  1.0000
  Bi  Bi1       1.0  0.80800  0.75000  0.06440  1.0000
  Bi  Bi2       1.0  0.53500  0.25000  0.34400  1.0000
  Bi  Bi3       1.0  0.46500  0.75000  0.65600  1.0000
  Bi  Bi4       1.0  0.19200  0.25000  0.93600  1.0000
  Cl  Cl1       1.0  0.40300  0.75000  0.09660  1.0000
  Cl  Cl2       1.0  0.59700  0.25000  0.90300  1.0000
  Se  Se1       1.0  0.04130  0.25000  0.15100  1.0000
  Se  Se2       1.0  0.79700  0.75000  0.33500  1.0000
  Se  Se3       1.0  0.31100  0.75000  0.41100  1.0000
  Se  Se4       1.0  0.68900  0.25000  0.58900  1.0000
  Se  Se5       1.0  0.20300  0.25000  0.66500  1.0000
  Se  Se6       1.0  0.95900  0.75000  0.84900  1.0000
