data_image0
_chemical_formula_structural       Cd2Dy4Te8
_chemical_formula_sum              "Cd2 Dy4 Te8"
_cell_length_a       8.93147
_cell_length_b       8.93147
_cell_length_c       8.93147
_cell_angle_alpha    120
_cell_angle_beta     90
_cell_angle_gamma    120

_space_group_name_H-M_alt    "P 1"
_space_group_IT_number       1

loop_
  _space_group_symop_operation_xyz
  'x, y, z'

loop_
  _atom_site_type_symbol
  _atom_site_label
  _atom_site_symmetry_multiplicity
  _atom_site_fract_x
  _atom_site_fract_y
  _atom_site_fract_z
  _atom_site_occupancy
  Cd  Cd1       1.0  0.37500  0.75000  0.12500  1.0000
  Cd  Cd2       1.0  0.62500  0.25000  0.87500  1.0000
  Dy  Dy1       1.0  0.00000  0.00000  0.00000  1.0000
  Dy  Dy2       1.0  0.00000  0.00000  0.50000  1.0000
  Dy  Dy3       1.0  0.00000  0.50000  0.50000  1.0000
  Dy  Dy4       1.0  0.50000  0.50000  0.50000  1.0000
  Te  Te1       1.0  0.76800  0.01180  0.25600  1.0000
  Te  Te2       1.0  0.24400  0.01180  0.25600  1.0000
  Te  Te3       1.0  0.24400  0.48800  0.25600  1.0000
  Te  Te4       1.0  0.75600  0.51200  0.26800  1.0000
  Te  Te5       1.0  0.24400  0.48800  0.73200  1.0000
  Te  Te6       1.0  0.75600  0.51200  0.74400  1.0000
  Te  Te7       1.0  0.75600  0.98800  0.74400  1.0000
  Te  Te8       1.0  0.23200  0.98800  0.74400  1.0000
