data_image0
_chemical_formula_structural       Eu9Pd6
_chemical_formula_sum              "Eu9 Pd6"
_cell_length_a       7.7592
_cell_length_b       7.7592
_cell_length_c       7.7592
_cell_angle_alpha    70.8881
_cell_angle_beta     109.112
_cell_angle_gamma    109.112

_space_group_name_H-M_alt    "P 1"
_space_group_IT_number       1

loop_
  _space_group_symop_operation_xyz
  'x, y, z'

loop_
  _atom_site_type_symbol
  _atom_site_label
  _atom_site_symmetry_multiplicity
  _atom_site_fract_x
  _atom_site_fract_y
  _atom_site_fract_z
  _atom_site_occupancy
  Eu  Eu1       1.0  0.65500  0.82800  0.10300  1.0000
  Eu  Eu2       1.0  0.10300  0.65500  0.17200  1.0000
  Eu  Eu3       1.0  0.70100  0.29900  0.29900  1.0000
  Eu  Eu4       1.0  0.17200  0.10300  0.34500  1.0000
  Eu  Eu5       1.0  0.50000  0.50000  0.50000  1.0000
  Eu  Eu6       1.0  0.82800  0.89700  0.65500  1.0000
  Eu  Eu7       1.0  0.29900  0.70100  0.70100  1.0000
  Eu  Eu8       1.0  0.89700  0.34500  0.82800  1.0000
  Eu  Eu9       1.0  0.34500  0.17200  0.89700  1.0000
  Pd  Pd1       1.0  0.34100  0.45800  0.09060  1.0000
  Pd  Pd2       1.0  0.45800  0.90900  0.34100  1.0000
  Pd  Pd3       1.0  0.90900  0.65900  0.45800  1.0000
  Pd  Pd4       1.0  0.09060  0.34100  0.54200  1.0000
  Pd  Pd5       1.0  0.54200  0.09060  0.65900  1.0000
  Pd  Pd6       1.0  0.65900  0.54200  0.90900  1.0000
