data_image0
_chemical_formula_structural       N8Si6Sr
_chemical_formula_sum              "N8 Si6 Sr1"
_cell_length_a       4.81433
_cell_length_b       6.54312
_cell_length_c       6.54312
_cell_angle_alpha    90.2789
_cell_angle_beta     111.586
_cell_angle_gamma    111.586

_space_group_name_H-M_alt    "P 1"
_space_group_IT_number       1

loop_
  _space_group_symop_operation_xyz
  'x, y, z'

loop_
  _atom_site_type_symbol
  _atom_site_label
  _atom_site_symmetry_multiplicity
  _atom_site_fract_x
  _atom_site_fract_y
  _atom_site_fract_z
  _atom_site_occupancy
  N   N1        1.0  0.61000  0.62100  0.01370  1.0000
  N   N2        1.0  0.29400  0.81600  0.18400  1.0000
  N   N3        1.0  0.51200  0.29400  0.29400  1.0000
  N   N4        1.0  0.97600  0.98600  0.37900  1.0000
  N   N5        1.0  0.61000  0.01370  0.62100  1.0000
  N   N6        1.0  0.92400  0.70600  0.70600  1.0000
  N   N7        1.0  0.29400  0.18400  0.81600  1.0000
  N   N8        1.0  0.97600  0.37900  0.98600  1.0000
  Si  Si1       1.0  0.35200  0.36400  0.04380  1.0000
  Si  Si2       1.0  0.64000  0.87400  0.12600  1.0000
  Si  Si3       1.0  0.35200  0.04380  0.36400  1.0000
  Si  Si4       1.0  0.94400  0.95600  0.63600  1.0000
  Si  Si5       1.0  0.64000  0.12600  0.87400  1.0000
  Si  Si6       1.0  0.94400  0.63600  0.95600  1.0000
  Sr  Sr1       1.0  0.15800  0.50000  0.50000  1.0000
