data_image0
_chemical_formula_structural       Mo6PbS8
_chemical_formula_sum              "Mo6 Pb1 S8"
_cell_length_a       6.58229
_cell_length_b       6.58229
_cell_length_c       6.58229
_cell_angle_alpha    90.9009
_cell_angle_beta     89.0991
_cell_angle_gamma    90.9009

_space_group_name_H-M_alt    "P 1"
_space_group_IT_number       1

loop_
  _space_group_symop_operation_xyz
  'x, y, z'

loop_
  _atom_site_type_symbol
  _atom_site_label
  _atom_site_symmetry_multiplicity
  _atom_site_fract_x
  _atom_site_fract_y
  _atom_site_fract_z
  _atom_site_occupancy
  Mo  Mo1       1.0  0.56300  0.58400  0.22700  1.0000
  Mo  Mo2       1.0  0.22700  0.43700  0.41600  1.0000
  Mo  Mo3       1.0  0.58400  0.22700  0.43700  1.0000
  Mo  Mo4       1.0  0.41600  0.77300  0.56300  1.0000
  Mo  Mo5       1.0  0.77300  0.56300  0.58400  1.0000
  Mo  Mo6       1.0  0.43700  0.41600  0.77300  1.0000
  Pb  Pb1       1.0  0.00000  0.00000  0.00000  1.0000
  S   S1        1.0  0.38400  0.25800  0.12600  1.0000
  S   S2        1.0  0.24400  0.75600  0.24400  1.0000
  S   S3        1.0  0.87400  0.38400  0.25800  1.0000
  S   S4        1.0  0.74200  0.87400  0.38400  1.0000
  S   S5        1.0  0.25800  0.12600  0.61600  1.0000
  S   S6        1.0  0.12600  0.61600  0.74200  1.0000
  S   S7        1.0  0.75600  0.24400  0.75600  1.0000
  S   S8        1.0  0.61600  0.74200  0.87400  1.0000
