data_image0
_chemical_formula_structural       La3O10Os2
_chemical_formula_sum              "La3 O10 Os2"
_cell_length_a       5.59353
_cell_length_b       5.59353
_cell_length_c       6.9147
_cell_angle_alpha    107.771
_cell_angle_beta     107.771
_cell_angle_gamma    90.711

_space_group_name_H-M_alt    "P 1"
_space_group_IT_number       1

loop_
  _space_group_symop_operation_xyz
  'x, y, z'

loop_
  _atom_site_type_symbol
  _atom_site_label
  _atom_site_symmetry_multiplicity
  _atom_site_fract_x
  _atom_site_fract_y
  _atom_site_fract_z
  _atom_site_occupancy
  La  La1       1.0  0.50000  0.50000  0.00000  1.0000
  La  La2       1.0  0.75800  0.24200  0.50000  1.0000
  La  La3       1.0  0.24200  0.75800  0.50000  1.0000
  O   O1        1.0  0.85700  0.85700  0.10800  1.0000
  O   O2        1.0  0.90000  0.37900  0.21100  1.0000
  O   O3        1.0  0.37900  0.90000  0.21100  1.0000
  O   O4        1.0  0.40600  0.40600  0.28500  1.0000
  O   O5        1.0  0.17600  0.17600  0.47900  1.0000
  O   O6        1.0  0.82400  0.82400  0.52100  1.0000
  O   O7        1.0  0.59400  0.59400  0.71500  1.0000
  O   O8        1.0  0.62100  0.10000  0.78900  1.0000
  O   O9        1.0  0.10000  0.62100  0.78900  1.0000
  O   O10       1.0  0.14300  0.14300  0.89200  1.0000
  Os  Os1       1.0  0.13300  0.13300  0.17800  1.0000
  Os  Os2       1.0  0.86700  0.86700  0.82200  1.0000
