data_image0
_chemical_formula_structural       Al2Cs2O9P2
_chemical_formula_sum              "Al2 Cs2 O9 P2"
_cell_length_a       4.89266
_cell_length_b       7.10167
_cell_length_c       7.92559
_cell_angle_alpha    96.6317
_cell_angle_beta     107.351
_cell_angle_gamma    108.56

_space_group_name_H-M_alt    "P 1"
_space_group_IT_number       1

loop_
  _space_group_symop_operation_xyz
  'x, y, z'

loop_
  _atom_site_type_symbol
  _atom_site_label
  _atom_site_symmetry_multiplicity
  _atom_site_fract_x
  _atom_site_fract_y
  _atom_site_fract_z
  _atom_site_occupancy
  Al  Al1       1.0  0.84500  0.76400  0.03340  1.0000
  Al  Al2       1.0  0.15500  0.23600  0.96700  1.0000
  Cs  Cs1       1.0  0.76600  0.20100  0.34500  1.0000
  Cs  Cs2       1.0  0.23400  0.79900  0.65500  1.0000
  O   O1        1.0  0.00000  0.00000  0.00000  1.0000
  O   O2        1.0  0.51100  0.74200  0.08680  1.0000
  O   O3        1.0  0.28400  0.41400  0.17700  1.0000
  O   O4        1.0  0.08610  0.69700  0.21100  1.0000
  O   O5        1.0  0.61200  0.74200  0.42400  1.0000
  O   O6        1.0  0.38800  0.25800  0.57600  1.0000
  O   O7        1.0  0.91400  0.30300  0.78900  1.0000
  O   O8        1.0  0.71600  0.58600  0.82300  1.0000
  O   O9        1.0  0.48900  0.25800  0.91300  1.0000
  P   P1        1.0  0.38700  0.65100  0.23300  1.0000
  P   P2        1.0  0.61300  0.34900  0.76700  1.0000
