data_image0
_chemical_formula_structural       Al12Mo3
_chemical_formula_sum              "Al12 Mo3"
_cell_length_a       5.23228
_cell_length_b       5.27264
_cell_length_c       9.29925
_cell_angle_alpha    73.5309
_cell_angle_beta     92.8023
_cell_angle_gamma    99.9305

_space_group_name_H-M_alt    "P 1"
_space_group_IT_number       1

loop_
  _space_group_symop_operation_xyz
  'x, y, z'

loop_
  _atom_site_type_symbol
  _atom_site_label
  _atom_site_symmetry_multiplicity
  _atom_site_fract_x
  _atom_site_fract_y
  _atom_site_fract_z
  _atom_site_occupancy
  Al  Al1       1.0  0.52100  0.16300  0.00000  1.0000
  Al  Al2       1.0  0.16000  0.51800  0.00000  1.0000
  Al  Al3       1.0  0.69600  0.60100  0.15400  1.0000
  Al  Al4       1.0  0.22600  0.71600  0.23600  1.0000
  Al  Al5       1.0  0.82200  0.07830  0.24600  1.0000
  Al  Al6       1.0  0.59500  0.47000  0.47000  1.0000
  Al  Al7       1.0  0.08490  0.29100  0.50000  1.0000
  Al  Al8       1.0  0.08490  0.79100  0.50000  1.0000
  Al  Al9       1.0  0.59500  0.94000  0.53000  1.0000
  Al  Al10      1.0  0.82200  0.32500  0.75400  1.0000
  Al  Al11      1.0  0.22600  0.95200  0.76400  1.0000
  Al  Al12      1.0  0.69600  0.75500  0.84600  1.0000
  Mo  Mo1       1.0  0.00256  0.00727  0.00000  1.0000
  Mo  Mo2       1.0  0.34300  0.21200  0.27500  1.0000
  Mo  Mo3       1.0  0.34300  0.48600  0.72500  1.0000
