data_image0
_chemical_formula_structural       Ba3NiO9Ta2
_chemical_formula_sum              "Ba3 Ni1 O9 Ta2"
_cell_length_a       5.76417
_cell_length_b       5.76418
_cell_length_c       7.09114
_cell_angle_alpha    90
_cell_angle_beta     90.0001
_cell_angle_gamma    120

_space_group_name_H-M_alt    "P 1"
_space_group_IT_number       1

loop_
  _space_group_symop_operation_xyz
  'x, y, z'

loop_
  _atom_site_type_symbol
  _atom_site_label
  _atom_site_symmetry_multiplicity
  _atom_site_fract_x
  _atom_site_fract_y
  _atom_site_fract_z
  _atom_site_occupancy
  Ba  Ba1       1.0  0.00000  0.00000  0.00000  1.0000
  Ba  Ba2       1.0  0.66700  0.33300  0.33800  1.0000
  Ba  Ba3       1.0  0.33300  0.66700  0.66200  1.0000
  Ni  Ni1       1.0  0.00000  0.00000  0.50000  1.0000
  O   O1        1.0  0.00000  0.50000  1.00000  1.0000
  O   O2        1.0  0.50000  0.00000  0.00000  1.0000
  O   O3        1.0  0.50000  0.50000  0.00000  1.0000
  O   O4        1.0  0.17000  0.83000  0.32600  1.0000
  O   O5        1.0  0.65900  0.83000  0.32600  1.0000
  O   O6        1.0  0.17000  0.34100  0.32600  1.0000
  O   O7        1.0  0.83000  0.17000  0.67400  1.0000
  O   O8        1.0  0.83000  0.65900  0.67400  1.0000
  O   O9        1.0  0.34100  0.17000  0.67400  1.0000
  Ta  Ta1       1.0  0.33300  0.66700  0.17700  1.0000
  Ta  Ta2       1.0  0.66700  0.33300  0.82300  1.0000
