data_image0
_chemical_formula_structural       Ba2Cu4O8Pr
_chemical_formula_sum              "Ba2 Cu4 O8 Pr1"
_cell_length_a       13.764
_cell_length_b       3.88681
_cell_length_c       3.89491
_cell_angle_alpha    90
_cell_angle_beta     98.134
_cell_angle_gamma    90

_space_group_name_H-M_alt    "P 1"
_space_group_IT_number       1

loop_
  _space_group_symop_operation_xyz
  'x, y, z'

loop_
  _atom_site_type_symbol
  _atom_site_label
  _atom_site_symmetry_multiplicity
  _atom_site_fract_x
  _atom_site_fract_y
  _atom_site_fract_z
  _atom_site_occupancy
  Ba  Ba1       1.0  0.72500  0.50000  0.36300  1.0000
  Ba  Ba2       1.0  0.27500  0.50000  0.63700  1.0000
  Cu  Cu1       1.0  0.13000  0.00000  0.06520  1.0000
  Cu  Cu2       1.0  0.42700  0.00000  0.21400  1.0000
  Cu  Cu3       1.0  0.57300  0.00000  0.78600  1.0000
  Cu  Cu4       1.0  0.87000  0.00000  0.93500  1.0000
  O   O1        1.0  0.11400  0.50000  0.05690  1.0000
  O   O2        1.0  0.29400  0.00000  0.14700  1.0000
  O   O3        1.0  0.56500  0.00000  0.28200  1.0000
  O   O4        1.0  0.88800  0.00000  0.44400  1.0000
  O   O5        1.0  0.11200  0.00000  0.55600  1.0000
  O   O6        1.0  0.43500  0.00000  0.71800  1.0000
  O   O7        1.0  0.70600  0.00000  0.85300  1.0000
  O   O8        1.0  0.88600  0.50000  0.94300  1.0000
  Pr  Pr1       1.0  0.00000  0.50000  0.50000  1.0000
