data_image0
_chemical_formula_structural       Cu3S8V4
_chemical_formula_sum              "Cu3 S8 V4"
_cell_length_a       6.63099
_cell_length_b       6.6394
_cell_length_c       7.31859
_cell_angle_alpha    90.0846
_cell_angle_beta     116.938
_cell_angle_gamma    119.958

_space_group_name_H-M_alt    "P 1"
_space_group_IT_number       1

loop_
  _space_group_symop_operation_xyz
  'x, y, z'

loop_
  _atom_site_type_symbol
  _atom_site_label
  _atom_site_symmetry_multiplicity
  _atom_site_fract_x
  _atom_site_fract_y
  _atom_site_fract_z
  _atom_site_occupancy
  Cu  Cu1       1.0  0.76900  0.10900  0.42900  1.0000
  Cu  Cu2       1.0  0.31700  0.65700  0.43000  1.0000
  Cu  Cu3       1.0  0.77000  0.65700  0.43000  1.0000
  S   S1        1.0  0.45100  0.72400  0.17900  1.0000
  S   S2        1.0  0.99200  0.74800  0.23700  1.0000
  S   S3        1.0  0.48600  0.24100  0.23900  1.0000
  S   S4        1.0  0.99400  0.24100  0.23900  1.0000
  S   S5        1.0  0.48600  0.24100  0.73100  1.0000
  S   S6        1.0  0.02070  0.26000  0.78200  1.0000
  S   S7        1.0  0.02130  0.75700  0.78300  1.0000
  S   S8        1.0  0.51800  0.75700  0.78300  1.0000
  V   V1        1.0  0.99500  0.99600  0.99400  1.0000
  V   V2        1.0  0.52100  0.46500  0.99200  1.0000
  V   V3        1.0  0.93700  0.46500  0.99200  1.0000
  V   V4        1.0  0.52200  0.05110  0.99300  1.0000
