data_image0
_chemical_formula_structural       Ca6Cu2Sn7
_chemical_formula_sum              "Ca6 Cu2 Sn7"
_cell_length_a       4.56768
_cell_length_b       7.52699
_cell_length_c       12.4282
_cell_angle_alpha    93.784
_cell_angle_beta     90
_cell_angle_gamma    107.663

_space_group_name_H-M_alt    "P 1"
_space_group_IT_number       1

loop_
  _space_group_symop_operation_xyz
  'x, y, z'

loop_
  _atom_site_type_symbol
  _atom_site_label
  _atom_site_symmetry_multiplicity
  _atom_site_fract_x
  _atom_site_fract_y
  _atom_site_fract_z
  _atom_site_occupancy
  Ca  Ca1       1.0  0.63700  0.27300  0.00266  1.0000
  Ca  Ca2       1.0  0.19500  0.39100  0.29400  1.0000
  Ca  Ca3       1.0  0.46200  0.92400  0.29900  1.0000
  Ca  Ca4       1.0  0.53800  0.07650  0.70100  1.0000
  Ca  Ca5       1.0  0.80500  0.60900  0.70600  1.0000
  Ca  Ca6       1.0  0.36300  0.72700  0.99700  1.0000
  Cu  Cu1       1.0  0.83000  0.66000  0.38900  1.0000
  Cu  Cu2       1.0  0.17000  0.34000  0.61100  1.0000
  Sn  Sn1       1.0  0.01120  0.02250  0.11900  1.0000
  Sn  Sn2       1.0  0.81700  0.63400  0.17500  1.0000
  Sn  Sn3       1.0  0.66000  0.31900  0.48100  1.0000
  Sn  Sn4       1.0  0.00000  0.00000  0.50000  1.0000
  Sn  Sn5       1.0  0.34000  0.68100  0.51900  1.0000
  Sn  Sn6       1.0  0.18300  0.36600  0.82500  1.0000
  Sn  Sn7       1.0  0.98900  0.97800  0.88100  1.0000
