data_image0
_chemical_formula_structural       Ni6P6Sr3
_chemical_formula_sum              "Ni6 P6 Sr3"
_cell_length_a       3.95436
_cell_length_b       8.14768
_cell_length_c       8.14768
_cell_angle_alpha    93.4607
_cell_angle_beta     104.044
_cell_angle_gamma    104.044

_space_group_name_H-M_alt    "P 1"
_space_group_IT_number       1

loop_
  _space_group_symop_operation_xyz
  'x, y, z'

loop_
  _atom_site_type_symbol
  _atom_site_label
  _atom_site_symmetry_multiplicity
  _atom_site_fract_x
  _atom_site_fract_y
  _atom_site_fract_z
  _atom_site_occupancy
  Ni  Ni1       1.0  0.26000  0.41700  0.10200  1.0000
  Ni  Ni2       1.0  0.77000  0.27000  0.27000  1.0000
  Ni  Ni3       1.0  0.26000  0.10200  0.41700  1.0000
  Ni  Ni4       1.0  0.74000  0.89800  0.58300  1.0000
  Ni  Ni5       1.0  0.23000  0.73000  0.73000  1.0000
  Ni  Ni6       1.0  0.74000  0.58300  0.89800  1.0000
  P   P1        1.0  0.34300  0.67800  0.00692  1.0000
  P   P2        1.0  0.65700  0.99300  0.32200  1.0000
  P   P3        1.0  0.38200  0.38200  0.38200  1.0000
  P   P4        1.0  0.61800  0.61800  0.61800  1.0000
  P   P5        1.0  0.34300  0.00692  0.67800  1.0000
  P   P6        1.0  0.65700  0.32200  0.99300  1.0000
  Sr  Sr1       1.0  0.00000  0.00000  0.00000  1.0000
  Sr  Sr2       1.0  0.00000  0.68200  0.31800  1.0000
  Sr  Sr3       1.0  0.00000  0.31800  0.68200  1.0000
