data_image0
_chemical_formula_structural       Tc8Zr4
_chemical_formula_sum              "Tc8 Zr4"
_cell_length_a       5.23927
_cell_length_b       5.23914
_cell_length_c       8.69539
_cell_angle_alpha    90
_cell_angle_beta     90
_cell_angle_gamma    120.001

_space_group_name_H-M_alt    "P 1"
_space_group_IT_number       1

loop_
  _space_group_symop_operation_xyz
  'x, y, z'

loop_
  _atom_site_type_symbol
  _atom_site_label
  _atom_site_symmetry_multiplicity
  _atom_site_fract_x
  _atom_site_fract_y
  _atom_site_fract_z
  _atom_site_occupancy
  Tc  Tc1       1.0  0.00000  0.00000  0.00000  1.0000
  Tc  Tc2       1.0  0.34200  0.17100  0.25000  1.0000
  Tc  Tc3       1.0  0.82900  0.17100  0.25000  1.0000
  Tc  Tc4       1.0  0.82900  0.65800  0.25000  1.0000
  Tc  Tc5       1.0  0.00000  0.00000  0.50000  1.0000
  Tc  Tc6       1.0  0.17100  0.34200  0.75000  1.0000
  Tc  Tc7       1.0  0.17100  0.82900  0.75000  1.0000
  Tc  Tc8       1.0  0.65800  0.82900  0.75000  1.0000
  Zr  Zr1       1.0  0.33300  0.66700  0.06240  1.0000
  Zr  Zr2       1.0  0.33300  0.66700  0.43800  1.0000
  Zr  Zr3       1.0  0.66700  0.33300  0.56200  1.0000
  Zr  Zr4       1.0  0.66700  0.33300  0.93800  1.0000
