data_image0
_chemical_formula_structural       P12Ru3
_chemical_formula_sum              "P12 Ru3"
_cell_length_a       7.57165
_cell_length_b       7.19326
_cell_length_c       4.7409
_cell_angle_alpha    100.462
_cell_angle_beta     90.3522
_cell_angle_gamma    111.2

_space_group_name_H-M_alt    "P 1"
_space_group_IT_number       1

loop_
  _space_group_symop_operation_xyz
  'x, y, z'

loop_
  _atom_site_type_symbol
  _atom_site_label
  _atom_site_symmetry_multiplicity
  _atom_site_fract_x
  _atom_site_fract_y
  _atom_site_fract_z
  _atom_site_occupancy
  P   P1        1.0  0.78500  0.16200  0.17700  1.0000
  P   P2        1.0  0.87500  0.70400  0.20500  1.0000
  P   P3        1.0  0.45100  0.42700  0.27300  1.0000
  P   P4        1.0  0.56200  0.91400  0.34000  1.0000
  P   P5        1.0  0.23100  0.16800  0.39200  1.0000
  P   P6        1.0  0.09940  0.63200  0.40100  1.0000
  P   P7        1.0  0.90100  0.36800  0.59900  1.0000
  P   P8        1.0  0.76900  0.83200  0.60800  1.0000
  P   P9        1.0  0.43700  0.08580  0.66000  1.0000
  P   P10       1.0  0.54900  0.57300  0.72700  1.0000
  P   P11       1.0  0.12500  0.29600  0.79500  1.0000
  P   P12       1.0  0.21500  0.83800  0.82300  1.0000
  Ru  Ru1       1.0  0.00000  0.00000  0.00000  1.0000
  Ru  Ru2       1.0  0.32800  0.62600  0.05830  1.0000
  Ru  Ru3       1.0  0.67200  0.37400  0.94200  1.0000
