data_image0
_chemical_formula_structural       Mo6NaSe8
_chemical_formula_sum              "Mo6 Na1 Se8"
_cell_length_a       6.84083
_cell_length_b       6.84083
_cell_length_c       6.84083
_cell_angle_alpha    89.8915
_cell_angle_beta     89.8915
_cell_angle_gamma    89.8915

_space_group_name_H-M_alt    "P 1"
_space_group_IT_number       1

loop_
  _space_group_symop_operation_xyz
  'x, y, z'

loop_
  _atom_site_type_symbol
  _atom_site_label
  _atom_site_symmetry_multiplicity
  _atom_site_fract_x
  _atom_site_fract_y
  _atom_site_fract_z
  _atom_site_occupancy
  Mo  Mo1       1.0  0.42100  0.55700  0.23600  1.0000
  Mo  Mo2       1.0  0.55700  0.23600  0.42100  1.0000
  Mo  Mo3       1.0  0.76400  0.57900  0.44300  1.0000
  Mo  Mo4       1.0  0.23600  0.42100  0.55700  1.0000
  Mo  Mo5       1.0  0.44300  0.76400  0.57900  1.0000
  Mo  Mo6       1.0  0.57900  0.44300  0.76400  1.0000
  Na  Na1       1.0  0.00000  0.00000  0.00000  1.0000
  Se  Se1       1.0  0.74500  0.38200  0.12300  1.0000
  Se  Se2       1.0  0.23600  0.23600  0.23600  1.0000
  Se  Se3       1.0  0.61800  0.87700  0.25500  1.0000
  Se  Se4       1.0  0.12300  0.74500  0.38200  1.0000
  Se  Se5       1.0  0.87700  0.25500  0.61800  1.0000
  Se  Se6       1.0  0.38200  0.12300  0.74500  1.0000
  Se  Se7       1.0  0.76400  0.76400  0.76400  1.0000
  Se  Se8       1.0  0.25500  0.61800  0.87700  1.0000
