data_image0
_chemical_formula_structural       Ca3Ir6P6
_chemical_formula_sum              "Ca3 Ir6 P6"
_cell_length_a       6.65663
_cell_length_b       6.65663
_cell_length_c       7.09916
_cell_angle_alpha    90
_cell_angle_beta     90
_cell_angle_gamma    120

_space_group_name_H-M_alt    "P 1"
_space_group_IT_number       1

loop_
  _space_group_symop_operation_xyz
  'x, y, z'

loop_
  _atom_site_type_symbol
  _atom_site_label
  _atom_site_symmetry_multiplicity
  _atom_site_fract_x
  _atom_site_fract_y
  _atom_site_fract_z
  _atom_site_occupancy
  Ca  Ca1       1.0  0.60500  0.00000  0.16700  1.0000
  Ca  Ca2       1.0  0.39500  0.39500  0.50000  1.0000
  Ca  Ca3       1.0  0.00001  0.60500  0.83300  1.0000
  Ir  Ir1       1.0  0.48500  0.48500  0.00000  1.0000
  Ir  Ir2       1.0  0.13600  0.00000  0.16700  1.0000
  Ir  Ir3       1.0  0.00000  0.51500  0.33300  1.0000
  Ir  Ir4       1.0  0.86400  0.86400  0.50000  1.0000
  Ir  Ir5       1.0  0.51500  0.00000  0.66700  1.0000
  Ir  Ir6       1.0  0.00000  0.13600  0.83300  1.0000
  P   P1        1.0  0.11500  0.34000  0.12300  1.0000
  P   P2        1.0  0.77500  0.66000  0.21000  1.0000
  P   P3        1.0  0.22500  0.88500  0.45700  1.0000
  P   P4        1.0  0.88500  0.22500  0.54300  1.0000
  P   P5        1.0  0.66000  0.77500  0.79000  1.0000
  P   P6        1.0  0.34000  0.11500  0.87700  1.0000
