data_image0
_chemical_formula_structural       Ba4Pd4Si4
_chemical_formula_sum              "Ba4 Pd4 Si4"
_cell_length_a       6.71577
_cell_length_b       6.71577
_cell_length_c       6.71577
_cell_angle_alpha    90
_cell_angle_beta     90
_cell_angle_gamma    90

_space_group_name_H-M_alt    "P 1"
_space_group_IT_number       1

loop_
  _space_group_symop_operation_xyz
  'x, y, z'

loop_
  _atom_site_type_symbol
  _atom_site_label
  _atom_site_symmetry_multiplicity
  _atom_site_fract_x
  _atom_site_fract_y
  _atom_site_fract_z
  _atom_site_occupancy
  Ba  Ba1       1.0  0.13300  0.13300  0.13300  1.0000
  Ba  Ba2       1.0  0.86700  0.63300  0.36700  1.0000
  Ba  Ba3       1.0  0.36700  0.86700  0.63300  1.0000
  Ba  Ba4       1.0  0.63300  0.36700  0.86700  1.0000
  Pd  Pd1       1.0  0.59400  0.90600  0.09380  1.0000
  Pd  Pd2       1.0  0.40600  0.40600  0.40600  1.0000
  Pd  Pd3       1.0  0.90600  0.09380  0.59400  1.0000
  Pd  Pd4       1.0  0.09380  0.59400  0.90600  1.0000
  Si  Si1       1.0  0.34300  0.65700  0.15700  1.0000
  Si  Si2       1.0  0.65700  0.15700  0.34300  1.0000
  Si  Si3       1.0  0.15700  0.34300  0.65700  1.0000
  Si  Si4       1.0  0.84300  0.84300  0.84300  1.0000
