data_image0
_chemical_formula_structural       F11NaVZr2
_chemical_formula_sum              "F11 Na1 V1 Zr2"
_cell_length_a       5.59761
_cell_length_b       5.59761
_cell_length_c       7.71374
_cell_angle_alpha    111.061
_cell_angle_beta     68.9388
_cell_angle_gamma    107.348

_space_group_name_H-M_alt    "P 1"
_space_group_IT_number       1

loop_
  _space_group_symop_operation_xyz
  'x, y, z'

loop_
  _atom_site_type_symbol
  _atom_site_label
  _atom_site_symmetry_multiplicity
  _atom_site_fract_x
  _atom_site_fract_y
  _atom_site_fract_z
  _atom_site_occupancy
  F   F1        1.0  0.32500  0.32500  0.00000  1.0000
  F   F2        1.0  0.67500  0.67500  0.00000  1.0000
  F   F3        1.0  0.74200  0.25800  0.10300  1.0000
  F   F4        1.0  0.18300  0.21200  0.30600  1.0000
  F   F5        1.0  0.78800  0.81700  0.30600  1.0000
  F   F6        1.0  0.24600  0.75400  0.35300  1.0000
  F   F7        1.0  0.50000  0.50000  0.50000  1.0000
  F   F8        1.0  0.75400  0.24600  0.64700  1.0000
  F   F9        1.0  0.21200  0.18300  0.69400  1.0000
  F   F10       1.0  0.81700  0.78800  0.69400  1.0000
  F   F11       1.0  0.25800  0.74200  0.89700  1.0000
  Na  Na1       1.0  0.00000  0.00000  0.00000  1.0000
  V   V1        1.0  0.00000  0.00000  0.50000  1.0000
  Zr  Zr1       1.0  0.49800  0.50200  0.23300  1.0000
  Zr  Zr2       1.0  0.50200  0.49800  0.76700  1.0000
