data_image0
_chemical_formula_structural       Cl12OsS2
_chemical_formula_sum              "Cl12 Os1 S2"
_cell_length_a       8.16071
_cell_length_b       8.16071
_cell_length_c       8.16071
_cell_angle_alpha    103.002
_cell_angle_beta     76.9984
_cell_angle_gamma    103.002

_space_group_name_H-M_alt    "P 1"
_space_group_IT_number       1

loop_
  _space_group_symop_operation_xyz
  'x, y, z'

loop_
  _atom_site_type_symbol
  _atom_site_label
  _atom_site_symmetry_multiplicity
  _atom_site_fract_x
  _atom_site_fract_y
  _atom_site_fract_z
  _atom_site_occupancy
  Cl  Cl1       1.0  0.81200  0.18800  0.13600  1.0000
  Cl  Cl2       1.0  0.16300  0.52800  0.16300  1.0000
  Cl  Cl3       1.0  0.47200  0.83700  0.16300  1.0000
  Cl  Cl4       1.0  0.18800  0.13600  0.18800  1.0000
  Cl  Cl5       1.0  0.86400  0.81200  0.18800  1.0000
  Cl  Cl6       1.0  0.16300  0.83700  0.47200  1.0000
  Cl  Cl7       1.0  0.83700  0.16300  0.52800  1.0000
  Cl  Cl8       1.0  0.13600  0.18800  0.81200  1.0000
  Cl  Cl9       1.0  0.81200  0.86400  0.81200  1.0000
  Cl  Cl10      1.0  0.52800  0.16300  0.83700  1.0000
  Cl  Cl11      1.0  0.83700  0.47200  0.83700  1.0000
  Cl  Cl12      1.0  0.18800  0.81200  0.86400  1.0000
  Os  Os1       1.0  0.00000  0.00000  0.00000  1.0000
  S   S1        1.0  0.21100  0.78900  0.21100  1.0000
  S   S2        1.0  0.78900  0.21100  0.78900  1.0000
