data_image0
_chemical_formula_structural       Ge2Li4N6Sr3
_chemical_formula_sum              "Ge2 Li4 N6 Sr3"
_cell_length_a       5.87785
_cell_length_b       5.87785
_cell_length_c       6.30732
_cell_angle_alpha    90.7203
_cell_angle_beta     90.7203
_cell_angle_gamma    116.951

_space_group_name_H-M_alt    "P 1"
_space_group_IT_number       1

loop_
  _space_group_symop_operation_xyz
  'x, y, z'

loop_
  _atom_site_type_symbol
  _atom_site_label
  _atom_site_symmetry_multiplicity
  _atom_site_fract_x
  _atom_site_fract_y
  _atom_site_fract_z
  _atom_site_occupancy
  Ge  Ge1       1.0  0.61200  0.61200  0.32000  1.0000
  Ge  Ge2       1.0  0.38800  0.38800  0.68000  1.0000
  Li  Li1       1.0  0.54200  0.18400  0.12000  1.0000
  Li  Li2       1.0  0.18400  0.54200  0.12000  1.0000
  Li  Li3       1.0  0.81600  0.45800  0.88000  1.0000
  Li  Li4       1.0  0.45800  0.81600  0.88000  1.0000
  N   N1        1.0  0.86100  0.54800  0.19800  1.0000
  N   N2        1.0  0.54800  0.86100  0.19800  1.0000
  N   N3        1.0  0.29900  0.29900  0.36600  1.0000
  N   N4        1.0  0.70100  0.70100  0.63400  1.0000
  N   N5        1.0  0.45200  0.13900  0.80200  1.0000
  N   N6        1.0  0.13900  0.45200  0.80200  1.0000
  Sr  Sr1       1.0  0.00000  0.00000  0.00000  1.0000
  Sr  Sr2       1.0  0.81100  0.18900  0.50000  1.0000
  Sr  Sr3       1.0  0.18900  0.81100  0.50000  1.0000
