data_image0
_chemical_formula_structural       B12C3
_chemical_formula_sum              "B12 C3"
_cell_length_a       5.18435
_cell_length_b       5.18435
_cell_length_c       5.18435
_cell_angle_alpha    65.9329
_cell_angle_beta     114.067
_cell_angle_gamma    114.067

_space_group_name_H-M_alt    "P 1"
_space_group_IT_number       1

loop_
  _space_group_symop_operation_xyz
  'x, y, z'

loop_
  _atom_site_type_symbol
  _atom_site_label
  _atom_site_symmetry_multiplicity
  _atom_site_fract_x
  _atom_site_fract_y
  _atom_site_fract_z
  _atom_site_occupancy
  B   B1        1.0  0.67000  0.00618  0.00618  1.0000
  B   B2        1.0  0.99400  0.33000  0.00618  1.0000
  B   B3        1.0  0.30900  0.19400  0.19400  1.0000
  B   B4        1.0  0.80600  0.69100  0.19400  1.0000
  B   B5        1.0  0.19400  0.80600  0.30900  1.0000
  B   B6        1.0  0.99400  0.00618  0.33000  1.0000
  B   B7        1.0  0.00618  0.99400  0.67000  1.0000
  B   B8        1.0  0.80600  0.19400  0.69100  1.0000
  B   B9        1.0  0.19400  0.30900  0.80600  1.0000
  B   B10       1.0  0.69100  0.80600  0.80600  1.0000
  B   B11       1.0  0.00618  0.67000  0.99400  1.0000
  B   B12       1.0  0.33000  0.99400  0.99400  1.0000
  C   C1        1.0  0.61000  0.39000  0.39000  1.0000
  C   C2        1.0  0.50000  0.50000  0.50000  1.0000
  C   C3        1.0  0.39000  0.61000  0.61000  1.0000
