data_image0
_chemical_formula_structural       Al12W3
_chemical_formula_sum              "Al12 W3"
_cell_length_a       5.24468
_cell_length_b       5.27902
_cell_length_c       9.29912
_cell_angle_alpha    73.5102
_cell_angle_beta     92.8335
_cell_angle_gamma    100.03

_space_group_name_H-M_alt    "P 1"
_space_group_IT_number       1

loop_
  _space_group_symop_operation_xyz
  'x, y, z'

loop_
  _atom_site_type_symbol
  _atom_site_label
  _atom_site_symmetry_multiplicity
  _atom_site_fract_x
  _atom_site_fract_y
  _atom_site_fract_z
  _atom_site_occupancy
  Al  Al1       1.0  0.51300  0.14500  0.00000  1.0000
  Al  Al2       1.0  0.15100  0.50400  0.00000  1.0000
  Al  Al3       1.0  0.68600  0.58200  0.15400  1.0000
  Al  Al4       1.0  0.21400  0.69500  0.23700  1.0000
  Al  Al5       1.0  0.80800  0.05790  0.24700  1.0000
  Al  Al6       1.0  0.58300  0.45000  0.47000  1.0000
  Al  Al7       1.0  0.07320  0.77400  0.50000  1.0000
  Al  Al8       1.0  0.07320  0.27400  0.50000  1.0000
  Al  Al9       1.0  0.58300  0.92100  0.53000  1.0000
  Al  Al10      1.0  0.80800  0.30500  0.75300  1.0000
  Al  Al11      1.0  0.21400  0.93200  0.76300  1.0000
  Al  Al12      1.0  0.68600  0.73600  0.84600  1.0000
  W   W1        1.0  0.99300  0.99000  0.00000  1.0000
  W   W2        1.0  0.33100  0.19200  0.27400  1.0000
  W   W3        1.0  0.33100  0.46600  0.72600  1.0000
