data_image0
_chemical_formula_structural       F11NaZnZr2
_chemical_formula_sum              "F11 Na1 Zn1 Zr2"
_cell_length_a       5.56802
_cell_length_b       5.56802
_cell_length_c       7.69409
_cell_angle_alpha    110.995
_cell_angle_beta     69.0055
_cell_angle_gamma    107.3

_space_group_name_H-M_alt    "P 1"
_space_group_IT_number       1

loop_
  _space_group_symop_operation_xyz
  'x, y, z'

loop_
  _atom_site_type_symbol
  _atom_site_label
  _atom_site_symmetry_multiplicity
  _atom_site_fract_x
  _atom_site_fract_y
  _atom_site_fract_z
  _atom_site_occupancy
  F   F1        1.0  0.32400  0.32400  0.00000  1.0000
  F   F2        1.0  0.67600  0.67600  0.00000  1.0000
  F   F3        1.0  0.74100  0.25900  0.10100  1.0000
  F   F4        1.0  0.17900  0.21800  0.31000  1.0000
  F   F5        1.0  0.78200  0.82100  0.31000  1.0000
  F   F6        1.0  0.24500  0.75500  0.34400  1.0000
  F   F7        1.0  0.50000  0.50000  0.50000  1.0000
  F   F8        1.0  0.75500  0.24500  0.65600  1.0000
  F   F9        1.0  0.21800  0.17900  0.69000  1.0000
  F   F10       1.0  0.82100  0.78200  0.69000  1.0000
  F   F11       1.0  0.25900  0.74100  0.89900  1.0000
  Na  Na1       1.0  0.00000  0.00000  0.00000  1.0000
  Zn  Zn1       1.0  1.00000  0.00000  0.50000  1.0000
  Zr  Zr1       1.0  0.49600  0.50400  0.23400  1.0000
  Zr  Zr2       1.0  0.50400  0.49600  0.76600  1.0000
