data_image0
_chemical_formula_structural       EuMo6Se8
_chemical_formula_sum              "Eu1 Mo6 Se8"
_cell_length_a       6.82667
_cell_length_b       6.82667
_cell_length_c       6.82667
_cell_angle_alpha    91.2369
_cell_angle_beta     91.2369
_cell_angle_gamma    88.7631

_space_group_name_H-M_alt    "P 1"
_space_group_IT_number       1

loop_
  _space_group_symop_operation_xyz
  'x, y, z'

loop_
  _atom_site_type_symbol
  _atom_site_label
  _atom_site_symmetry_multiplicity
  _atom_site_fract_x
  _atom_site_fract_y
  _atom_site_fract_z
  _atom_site_occupancy
  Eu  Eu1       1.0  0.00000  0.00000  0.00000  1.0000
  Mo  Mo1       1.0  0.44000  0.57600  0.23600  1.0000
  Mo  Mo2       1.0  0.76400  0.44000  0.42400  1.0000
  Mo  Mo3       1.0  0.42400  0.23600  0.44000  1.0000
  Mo  Mo4       1.0  0.57600  0.76400  0.56000  1.0000
  Mo  Mo5       1.0  0.23600  0.56000  0.57600  1.0000
  Mo  Mo6       1.0  0.56000  0.42400  0.76400  1.0000
  Se  Se1       1.0  0.62300  0.24900  0.12100  1.0000
  Se  Se2       1.0  0.75800  0.75800  0.24200  1.0000
  Se  Se3       1.0  0.12100  0.37700  0.24900  1.0000
  Se  Se4       1.0  0.24900  0.87900  0.37700  1.0000
  Se  Se5       1.0  0.75100  0.12100  0.62300  1.0000
  Se  Se6       1.0  0.87900  0.62300  0.75100  1.0000
  Se  Se7       1.0  0.24200  0.24200  0.75800  1.0000
  Se  Se8       1.0  0.37700  0.75100  0.87900  1.0000
