data_image0
_chemical_formula_structural       Al8C3N4
_chemical_formula_sum              "Al8 C3 N4"
_cell_length_a       18.5683
_cell_length_b       18.5683
_cell_length_c       18.5683
_cell_angle_alpha    9.94744
_cell_angle_beta     9.94744
_cell_angle_gamma    9.94744

_space_group_name_H-M_alt    "P 1"
_space_group_IT_number       1

loop_
  _space_group_symop_operation_xyz
  'x, y, z'

loop_
  _atom_site_type_symbol
  _atom_site_label
  _atom_site_symmetry_multiplicity
  _atom_site_fract_x
  _atom_site_fract_y
  _atom_site_fract_z
  _atom_site_occupancy
  Al  Al1       1.0  0.06280  0.06280  0.06280  1.0000
  Al  Al2       1.0  0.15000  0.15000  0.15000  1.0000
  Al  Al3       1.0  0.22600  0.22600  0.22600  1.0000
  Al  Al4       1.0  0.31600  0.31600  0.31600  1.0000
  Al  Al5       1.0  0.68400  0.68400  0.68400  1.0000
  Al  Al6       1.0  0.77500  0.77500  0.77500  1.0000
  Al  Al7       1.0  0.85000  0.85000  0.85000  1.0000
  Al  Al8       1.0  0.93800  0.93800  0.93800  1.0000
  C   C1        1.0  0.00026  0.00025  0.00025  1.0000
  C   C2        1.0  0.19000  0.19000  0.19000  1.0000
  C   C3        1.0  0.81000  0.81000  0.81000  1.0000
  N   N1        1.0  0.09620  0.09620  0.09620  1.0000
  N   N2        1.0  0.28300  0.28300  0.28300  1.0000
  N   N3        1.0  0.71800  0.71800  0.71800  1.0000
  N   N4        1.0  0.90400  0.90400  0.90400  1.0000
