data_image0
_chemical_formula_structural       Au2O8Sr5
_chemical_formula_sum              "Au2 O8 Sr5"
_cell_length_a       6.50851
_cell_length_b       6.7224
_cell_length_c       6.72525
_cell_angle_alpha    103.547
_cell_angle_beta     61.0605
_cell_angle_gamma    118.953

_space_group_name_H-M_alt    "P 1"
_space_group_IT_number       1

loop_
  _space_group_symop_operation_xyz
  'x, y, z'

loop_
  _atom_site_type_symbol
  _atom_site_label
  _atom_site_symmetry_multiplicity
  _atom_site_fract_x
  _atom_site_fract_y
  _atom_site_fract_z
  _atom_site_occupancy
  Au  Au1       1.0  0.00000  0.00000  0.00000  1.0000
  Au  Au2       1.0  0.50000  0.00000  0.00000  1.0000
  O   O1        1.0  0.98900  0.24600  0.24600  1.0000
  O   O2        1.0  0.76500  0.75400  0.24600  1.0000
  O   O3        1.0  0.51100  0.24600  0.24600  1.0000
  O   O4        1.0  0.24300  0.75400  0.24600  1.0000
  O   O5        1.0  0.73500  0.24600  0.75400  1.0000
  O   O6        1.0  0.51100  0.75400  0.75400  1.0000
  O   O7        1.0  0.25700  0.24600  0.75400  1.0000
  O   O8        1.0  0.98900  0.75400  0.75400  1.0000
  Sr  Sr1       1.0  0.02770  0.50000  0.94500  1.0000
  Sr  Sr2       1.0  0.47200  0.50000  0.05550  1.0000
  Sr  Sr3       1.0  0.02840  0.05680  0.50000  1.0000
  Sr  Sr4       1.0  0.75000  0.50000  0.50000  1.0000
  Sr  Sr5       1.0  0.47200  0.94300  0.50000  1.0000
