data_image0
_chemical_formula_structural       Mo6S8Sr
_chemical_formula_sum              "Mo6 S8 Sr1"
_cell_length_a       6.59775
_cell_length_b       6.59775
_cell_length_c       6.59775
_cell_angle_alpha    88.962
_cell_angle_beta     88.962
_cell_angle_gamma    88.962

_space_group_name_H-M_alt    "P 1"
_space_group_IT_number       1

loop_
  _space_group_symop_operation_xyz
  'x, y, z'

loop_
  _atom_site_type_symbol
  _atom_site_label
  _atom_site_symmetry_multiplicity
  _atom_site_fract_x
  _atom_site_fract_y
  _atom_site_fract_z
  _atom_site_occupancy
  Mo  Mo1       1.0  0.41800  0.56300  0.22800  1.0000
  Mo  Mo2       1.0  0.56300  0.22800  0.41800  1.0000
  Mo  Mo3       1.0  0.77200  0.58200  0.43700  1.0000
  Mo  Mo4       1.0  0.22800  0.41800  0.56300  1.0000
  Mo  Mo5       1.0  0.43700  0.77200  0.58200  1.0000
  Mo  Mo6       1.0  0.58200  0.43700  0.77200  1.0000
  S   S1        1.0  0.74100  0.38400  0.12600  1.0000
  S   S2        1.0  0.24600  0.24600  0.24600  1.0000
  S   S3        1.0  0.61600  0.87400  0.25900  1.0000
  S   S4        1.0  0.12600  0.74100  0.38400  1.0000
  S   S5        1.0  0.87400  0.25900  0.61600  1.0000
  S   S6        1.0  0.38400  0.12600  0.74100  1.0000
  S   S7        1.0  0.75400  0.75400  0.75400  1.0000
  S   S8        1.0  0.25900  0.61600  0.87400  1.0000
  Sr  Sr1       1.0  0.00000  0.00000  0.00000  1.0000
