data_image0
_chemical_formula_structural       I10La4
_chemical_formula_sum              "I10 La4"
_cell_length_a       9.15306
_cell_length_b       4.39866
_cell_length_c       14.9545
_cell_angle_alpha    90
_cell_angle_beta     87.4173
_cell_angle_gamma    90

_space_group_name_H-M_alt    "P 1"
_space_group_IT_number       1

loop_
  _space_group_symop_operation_xyz
  'x, y, z'

loop_
  _atom_site_type_symbol
  _atom_site_label
  _atom_site_symmetry_multiplicity
  _atom_site_fract_x
  _atom_site_fract_y
  _atom_site_fract_z
  _atom_site_occupancy
  I   I1        1.0  0.14400  0.75000  0.07070  1.0000
  I   I2        1.0  0.65200  0.75000  0.12600  1.0000
  I   I3        1.0  0.35500  0.25000  0.27900  1.0000
  I   I4        1.0  0.94200  0.75000  0.31300  1.0000
  I   I5        1.0  0.68800  0.25000  0.48900  1.0000
  I   I6        1.0  0.31200  0.75000  0.51100  1.0000
  I   I7        1.0  0.05830  0.25000  0.68700  1.0000
  I   I8        1.0  0.64500  0.75000  0.72100  1.0000
  I   I9        1.0  0.34800  0.25000  0.87400  1.0000
  I   I10       1.0  0.85600  0.25000  0.92900  1.0000
  La  La1       1.0  0.90700  0.25000  0.15300  1.0000
  La  La2       1.0  0.58200  0.75000  0.34400  1.0000
  La  La3       1.0  0.41800  0.25000  0.65600  1.0000
  La  La4       1.0  0.09300  0.75000  0.84700  1.0000
