data_image0
_chemical_formula_structural       Er9Ni6
_chemical_formula_sum              "Er9 Ni6"
_cell_length_a       7.13474
_cell_length_b       7.13474
_cell_length_c       7.13474
_cell_angle_alpha    107.303
_cell_angle_beta     107.303
_cell_angle_gamma    72.6974

_space_group_name_H-M_alt    "P 1"
_space_group_IT_number       1

loop_
  _space_group_symop_operation_xyz
  'x, y, z'

loop_
  _atom_site_type_symbol
  _atom_site_label
  _atom_site_symmetry_multiplicity
  _atom_site_fract_x
  _atom_site_fract_y
  _atom_site_fract_z
  _atom_site_occupancy
  Er  Er1       1.0  0.16200  0.67100  0.11200  1.0000
  Er  Er2       1.0  0.32900  0.11200  0.16200  1.0000
  Er  Er3       1.0  0.70800  0.70800  0.29200  1.0000
  Er  Er4       1.0  0.88800  0.16200  0.32900  1.0000
  Er  Er5       1.0  0.50000  0.50000  0.50000  1.0000
  Er  Er6       1.0  0.11200  0.83800  0.67100  1.0000
  Er  Er7       1.0  0.29200  0.29200  0.70800  1.0000
  Er  Er8       1.0  0.67100  0.88800  0.83800  1.0000
  Er  Er9       1.0  0.83800  0.32900  0.88800  1.0000
  Ni  Ni1       1.0  0.54000  0.35600  0.08700  1.0000
  Ni  Ni2       1.0  0.08700  0.46000  0.35600  1.0000
  Ni  Ni3       1.0  0.35600  0.91300  0.46000  1.0000
  Ni  Ni4       1.0  0.64400  0.08700  0.54000  1.0000
  Ni  Ni5       1.0  0.91300  0.54000  0.64400  1.0000
  Ni  Ni6       1.0  0.46000  0.64400  0.91300  1.0000
