data_image0
_chemical_formula_structural       Al11Mn4
_chemical_formula_sum              "Al11 Mn4"
_cell_length_a       5.04133
_cell_length_b       8.77115
_cell_length_c       5.01042
_cell_angle_alpha    89.8872
_cell_angle_beta     100.458
_cell_angle_gamma    105.325

_space_group_name_H-M_alt    "P 1"
_space_group_IT_number       1

loop_
  _space_group_symop_operation_xyz
  'x, y, z'

loop_
  _atom_site_type_symbol
  _atom_site_label
  _atom_site_symmetry_multiplicity
  _atom_site_fract_x
  _atom_site_fract_y
  _atom_site_fract_z
  _atom_site_occupancy
  Al  Al1       1.0  0.00000  0.00000  0.00000  1.0000
  Al  Al2       1.0  0.17400  0.32300  0.05390  1.0000
  Al  Al3       1.0  0.46900  0.87300  0.15400  1.0000
  Al  Al4       1.0  0.72500  0.36900  0.19700  1.0000
  Al  Al5       1.0  0.67100  0.62700  0.43000  1.0000
  Al  Al6       1.0  0.89200  0.12500  0.49200  1.0000
  Al  Al7       1.0  0.10800  0.87500  0.50800  1.0000
  Al  Al8       1.0  0.32900  0.37300  0.57000  1.0000
  Al  Al9       1.0  0.27500  0.63100  0.80300  1.0000
  Al  Al10      1.0  0.53100  0.12700  0.84600  1.0000
  Al  Al11      1.0  0.82600  0.67700  0.94600  1.0000
  Mn  Mn1       1.0  0.14900  0.59800  0.28700  1.0000
  Mn  Mn2       1.0  0.38800  0.13300  0.33600  1.0000
  Mn  Mn3       1.0  0.61200  0.86700  0.66400  1.0000
  Mn  Mn4       1.0  0.85100  0.40200  0.71300  1.0000
