data_image0
_chemical_formula_structural       As2CuNa4O8
_chemical_formula_sum              "As2 Cu1 Na4 O8"
_cell_length_a       4.85761
_cell_length_b       5.80118
_cell_length_c       6.95103
_cell_angle_alpha    97.9152
_cell_angle_beta     90.7212
_cell_angle_gamma    105.967

_space_group_name_H-M_alt    "P 1"
_space_group_IT_number       1

loop_
  _space_group_symop_operation_xyz
  'x, y, z'

loop_
  _atom_site_type_symbol
  _atom_site_label
  _atom_site_symmetry_multiplicity
  _atom_site_fract_x
  _atom_site_fract_y
  _atom_site_fract_z
  _atom_site_occupancy
  As  As1       1.0  0.60100  0.19600  0.26600  1.0000
  As  As2       1.0  0.39900  0.80400  0.73400  1.0000
  Cu  Cu1       1.0  0.00000  0.00000  0.00000  1.0000
  Na  Na1       1.0  0.28600  0.57100  0.16800  1.0000
  Na  Na2       1.0  0.83900  0.74000  0.42400  1.0000
  Na  Na3       1.0  0.16100  0.26000  0.57600  1.0000
  Na  Na4       1.0  0.71400  0.42900  0.83200  1.0000
  O   O1        1.0  0.76900  0.43600  0.15400  1.0000
  O   O2        1.0  0.67900  0.93000  0.16800  1.0000
  O   O3        1.0  0.23100  0.14600  0.24200  1.0000
  O   O4        1.0  0.31100  0.72300  0.49000  1.0000
  O   O5        1.0  0.68900  0.27700  0.51000  1.0000
  O   O6        1.0  0.76900  0.85400  0.75800  1.0000
  O   O7        1.0  0.32100  0.06960  0.83200  1.0000
  O   O8        1.0  0.23100  0.56400  0.84600  1.0000
