data_image0
_chemical_formula_structural       K4P2PdS8
_chemical_formula_sum              "K4 P2 Pd1 S8"
_cell_length_a       6.4475
_cell_length_b       6.97366
_cell_length_c       9.0876
_cell_angle_alpha    87.878
_cell_angle_beta     82.3254
_cell_angle_gamma    84.5612

_space_group_name_H-M_alt    "P 1"
_space_group_IT_number       1

loop_
  _space_group_symop_operation_xyz
  'x, y, z'

loop_
  _atom_site_type_symbol
  _atom_site_label
  _atom_site_symmetry_multiplicity
  _atom_site_fract_x
  _atom_site_fract_y
  _atom_site_fract_z
  _atom_site_occupancy
  K   K1        1.0  0.29000  0.33700  0.13900  1.0000
  K   K2        1.0  0.74600  0.22000  0.47600  1.0000
  K   K3        1.0  0.25400  0.78000  0.52400  1.0000
  K   K4        1.0  0.71000  0.66300  0.86100  1.0000
  P   P1        1.0  0.82700  0.73200  0.26200  1.0000
  P   P2        1.0  0.17300  0.26800  0.73800  1.0000
  Pd  Pd1       1.0  0.00000  0.00000  0.00000  1.0000
  S   S1        1.0  0.67600  0.96000  0.14900  1.0000
  S   S2        1.0  0.77600  0.47400  0.18600  1.0000
  S   S3        1.0  0.13300  0.80300  0.18900  1.0000
  S   S4        1.0  0.76000  0.74700  0.48600  1.0000
  S   S5        1.0  0.24000  0.25300  0.51400  1.0000
  S   S6        1.0  0.86700  0.19700  0.81100  1.0000
  S   S7        1.0  0.22400  0.52600  0.81400  1.0000
  S   S8        1.0  0.32400  0.04040  0.85100  1.0000
