data_image0
_chemical_formula_structural       Mo6Se8Sm
_chemical_formula_sum              "Mo6 Se8 Sm1"
_cell_length_a       6.7748
_cell_length_b       6.7748
_cell_length_c       6.7748
_cell_angle_alpha    91.1661
_cell_angle_beta     91.1661
_cell_angle_gamma    88.8339

_space_group_name_H-M_alt    "P 1"
_space_group_IT_number       1

loop_
  _space_group_symop_operation_xyz
  'x, y, z'

loop_
  _atom_site_type_symbol
  _atom_site_label
  _atom_site_symmetry_multiplicity
  _atom_site_fract_x
  _atom_site_fract_y
  _atom_site_fract_z
  _atom_site_occupancy
  Mo  Mo1       1.0  0.44000  0.57700  0.23400  1.0000
  Mo  Mo2       1.0  0.76600  0.44000  0.42300  1.0000
  Mo  Mo3       1.0  0.42300  0.23400  0.44000  1.0000
  Mo  Mo4       1.0  0.57700  0.76600  0.56000  1.0000
  Mo  Mo5       1.0  0.23400  0.56000  0.57700  1.0000
  Mo  Mo6       1.0  0.56000  0.42300  0.76600  1.0000
  Se  Se1       1.0  0.62700  0.24300  0.12200  1.0000
  Se  Se2       1.0  0.76100  0.76100  0.23900  1.0000
  Se  Se3       1.0  0.12200  0.37300  0.24300  1.0000
  Se  Se4       1.0  0.24300  0.87800  0.37300  1.0000
  Se  Se5       1.0  0.75700  0.12200  0.62700  1.0000
  Se  Se6       1.0  0.87800  0.62700  0.75700  1.0000
  Se  Se7       1.0  0.23900  0.23900  0.76100  1.0000
  Se  Se8       1.0  0.37300  0.75700  0.87800  1.0000
  Sm  Sm1       1.0  0.00000  0.00000  0.00000  1.0000
