data_image0
_chemical_formula_structural       Hg6O7Si2
_chemical_formula_sum              "Hg6 O7 Si2"
_cell_length_a       6.03823
_cell_length_b       7.08123
_cell_length_c       7.08123
_cell_angle_alpha    65.0771
_cell_angle_beta     107.916
_cell_angle_gamma    107.916

_space_group_name_H-M_alt    "P 1"
_space_group_IT_number       1

loop_
  _space_group_symop_operation_xyz
  'x, y, z'

loop_
  _atom_site_type_symbol
  _atom_site_label
  _atom_site_symmetry_multiplicity
  _atom_site_fract_x
  _atom_site_fract_y
  _atom_site_fract_z
  _atom_site_occupancy
  Hg  Hg1       1.0  0.04450  0.11500  0.11500  1.0000
  Hg  Hg2       1.0  0.41800  0.64500  0.12300  1.0000
  Hg  Hg3       1.0  0.58200  0.87700  0.35500  1.0000
  Hg  Hg4       1.0  0.41800  0.12300  0.64500  1.0000
  Hg  Hg5       1.0  0.58200  0.35500  0.87700  1.0000
  Hg  Hg6       1.0  0.95600  0.88500  0.88500  1.0000
  O   O1        1.0  0.73900  0.48700  0.12900  1.0000
  O   O2        1.0  0.12700  0.30800  0.30800  1.0000
  O   O3        1.0  0.73900  0.12900  0.48700  1.0000
  O   O4        1.0  0.00000  0.50000  0.50000  1.0000
  O   O5        1.0  0.26100  0.87100  0.51300  1.0000
  O   O6        1.0  0.87300  0.69200  0.69200  1.0000
  O   O7        1.0  0.26100  0.51300  0.87100  1.0000
  Si  Si1       1.0  0.89900  0.35400  0.35400  1.0000
  Si  Si2       1.0  0.10100  0.64600  0.64600  1.0000
