data_image0
_chemical_formula_structural       Mo6S8Sn
_chemical_formula_sum              "Mo6 S8 Sn1"
_cell_length_a       6.54522
_cell_length_b       6.54522
_cell_length_c       6.54522
_cell_angle_alpha    90.6568
_cell_angle_beta     89.3432
_cell_angle_gamma    90.6568

_space_group_name_H-M_alt    "P 1"
_space_group_IT_number       1

loop_
  _space_group_symop_operation_xyz
  'x, y, z'

loop_
  _atom_site_type_symbol
  _atom_site_label
  _atom_site_symmetry_multiplicity
  _atom_site_fract_x
  _atom_site_fract_y
  _atom_site_fract_z
  _atom_site_occupancy
  Mo  Mo1       1.0  0.41700  0.43900  0.22400  1.0000
  Mo  Mo2       1.0  0.56100  0.77600  0.41700  1.0000
  Mo  Mo3       1.0  0.77600  0.41700  0.43900  1.0000
  Mo  Mo4       1.0  0.22400  0.58300  0.56100  1.0000
  Mo  Mo5       1.0  0.43900  0.22400  0.58300  1.0000
  Mo  Mo6       1.0  0.58300  0.56100  0.77600  1.0000
  S   S1        1.0  0.74300  0.62100  0.12700  1.0000
  S   S2        1.0  0.24100  0.75900  0.24100  1.0000
  S   S3        1.0  0.62100  0.12700  0.25700  1.0000
  S   S4        1.0  0.12700  0.25700  0.37900  1.0000
  S   S5        1.0  0.87300  0.74300  0.62100  1.0000
  S   S6        1.0  0.37900  0.87300  0.74300  1.0000
  S   S7        1.0  0.75900  0.24100  0.75900  1.0000
  S   S8        1.0  0.25700  0.37900  0.87300  1.0000
  Sn  Sn1       1.0  0.00000  0.00000  0.00000  1.0000
