data_image0
_chemical_formula_structural       CdCl8Na6
_chemical_formula_sum              "Cd1 Cl8 Na6"
_cell_length_a       7.94916
_cell_length_b       7.94916
_cell_length_c       7.94916
_cell_angle_alpha    120
_cell_angle_beta     90
_cell_angle_gamma    120

_space_group_name_H-M_alt    "P 1"
_space_group_IT_number       1

loop_
  _space_group_symop_operation_xyz
  'x, y, z'

loop_
  _atom_site_type_symbol
  _atom_site_label
  _atom_site_symmetry_multiplicity
  _atom_site_fract_x
  _atom_site_fract_y
  _atom_site_fract_z
  _atom_site_occupancy
  Cd  Cd1       1.0  0.00000  0.00000  0.00000  1.0000
  Cl  Cl1       1.0  0.76200  0.00000  0.23800  1.0000
  Cl  Cl2       1.0  0.23800  0.00000  0.23800  1.0000
  Cl  Cl3       1.0  0.23800  0.47500  0.23800  1.0000
  Cl  Cl4       1.0  0.75000  0.50000  0.25000  1.0000
  Cl  Cl5       1.0  0.25000  0.50000  0.75000  1.0000
  Cl  Cl6       1.0  0.23800  0.00000  0.76200  1.0000
  Cl  Cl7       1.0  0.76200  0.00000  0.76200  1.0000
  Cl  Cl8       1.0  0.76200  0.52500  0.76200  1.0000
  Na  Na1       1.0  0.50000  0.00000  0.00000  1.0000
  Na  Na2       1.0  0.00000  0.50000  0.00000  1.0000
  Na  Na3       1.0  0.50000  0.50000  0.00000  1.0000
  Na  Na4       1.0  0.00000  0.00000  0.50000  1.0000
  Na  Na5       1.0  0.00000  0.50000  0.50000  1.0000
  Na  Na6       1.0  0.50000  0.50000  0.50000  1.0000
