data_image0
_chemical_formula_structural       Au6Sr9
_chemical_formula_sum              "Au6 Sr9"
_cell_length_a       8.29294
_cell_length_b       8.29294
_cell_length_c       8.29294
_cell_angle_alpha    71.0214
_cell_angle_beta     108.979
_cell_angle_gamma    108.979

_space_group_name_H-M_alt    "P 1"
_space_group_IT_number       1

loop_
  _space_group_symop_operation_xyz
  'x, y, z'

loop_
  _atom_site_type_symbol
  _atom_site_label
  _atom_site_symmetry_multiplicity
  _atom_site_fract_x
  _atom_site_fract_y
  _atom_site_fract_z
  _atom_site_occupancy
  Au  Au1       1.0  0.34100  0.45400  0.09150  1.0000
  Au  Au2       1.0  0.45400  0.90800  0.34100  1.0000
  Au  Au3       1.0  0.90800  0.65900  0.45400  1.0000
  Au  Au4       1.0  0.09150  0.34100  0.54600  1.0000
  Au  Au5       1.0  0.54600  0.09150  0.65900  1.0000
  Au  Au6       1.0  0.65900  0.54600  0.90800  1.0000
  Sr  Sr1       1.0  0.65600  0.83400  0.10200  1.0000
  Sr  Sr2       1.0  0.10200  0.65600  0.16600  1.0000
  Sr  Sr3       1.0  0.70100  0.29900  0.29900  1.0000
  Sr  Sr4       1.0  0.16600  0.10200  0.34400  1.0000
  Sr  Sr5       1.0  0.50000  0.50000  0.50000  1.0000
  Sr  Sr6       1.0  0.83400  0.89800  0.65600  1.0000
  Sr  Sr7       1.0  0.29900  0.70100  0.70100  1.0000
  Sr  Sr8       1.0  0.89800  0.34400  0.83400  1.0000
  Sr  Sr9       1.0  0.34400  0.16600  0.89800  1.0000
