data_image0
_chemical_formula_structural       Ag6Ba9
_chemical_formula_sum              "Ag6 Ba9"
_cell_length_a       8.83726
_cell_length_b       8.83726
_cell_length_c       8.83726
_cell_angle_alpha    107.748
_cell_angle_beta     107.748
_cell_angle_gamma    72.2521

_space_group_name_H-M_alt    "P 1"
_space_group_IT_number       1

loop_
  _space_group_symop_operation_xyz
  'x, y, z'

loop_
  _atom_site_type_symbol
  _atom_site_label
  _atom_site_symmetry_multiplicity
  _atom_site_fract_x
  _atom_site_fract_y
  _atom_site_fract_z
  _atom_site_occupancy
  Ag  Ag1       1.0  0.36100  0.53900  0.08890  1.0000
  Ag  Ag2       1.0  0.46100  0.08890  0.36100  1.0000
  Ag  Ag3       1.0  0.91100  0.36100  0.46100  1.0000
  Ag  Ag4       1.0  0.08890  0.63900  0.53900  1.0000
  Ag  Ag5       1.0  0.53900  0.91100  0.63900  1.0000
  Ag  Ag6       1.0  0.63900  0.46100  0.91100  1.0000
  Ba  Ba1       1.0  0.66600  0.16300  0.11000  1.0000
  Ba  Ba2       1.0  0.11000  0.33400  0.16300  1.0000
  Ba  Ba3       1.0  0.70600  0.70600  0.29400  1.0000
  Ba  Ba4       1.0  0.16300  0.89000  0.33400  1.0000
  Ba  Ba5       1.0  0.50000  0.50000  0.50000  1.0000
  Ba  Ba6       1.0  0.83700  0.11000  0.66600  1.0000
  Ba  Ba7       1.0  0.29400  0.29400  0.70600  1.0000
  Ba  Ba8       1.0  0.89000  0.66600  0.83700  1.0000
  Ba  Ba9       1.0  0.33400  0.83700  0.89000  1.0000
