data_image0
_chemical_formula_structural       Ba2Cu4ErO8
_chemical_formula_sum              "Ba2 Cu4 Er1 O8"
_cell_length_a       13.6376
_cell_length_b       3.81635
_cell_length_c       3.86358
_cell_angle_alpha    90
_cell_angle_beta     98.1434
_cell_angle_gamma    90

_space_group_name_H-M_alt    "P 1"
_space_group_IT_number       1

loop_
  _space_group_symop_operation_xyz
  'x, y, z'

loop_
  _atom_site_type_symbol
  _atom_site_label
  _atom_site_symmetry_multiplicity
  _atom_site_fract_x
  _atom_site_fract_y
  _atom_site_fract_z
  _atom_site_occupancy
  Ba  Ba1       1.0  0.72900  0.50000  0.36400  1.0000
  Ba  Ba2       1.0  0.27100  0.50000  0.63600  1.0000
  Cu  Cu1       1.0  0.12200  0.00000  0.06090  1.0000
  Cu  Cu2       1.0  0.42600  0.00000  0.21300  1.0000
  Cu  Cu3       1.0  0.57400  0.00000  0.78700  1.0000
  Cu  Cu4       1.0  0.87800  0.00000  0.93900  1.0000
  Er  Er1       1.0  0.00000  0.50000  0.50000  1.0000
  O   O1        1.0  0.10300  0.50000  0.05150  1.0000
  O   O2        1.0  0.29100  0.00000  0.14500  1.0000
  O   O3        1.0  0.56500  0.00000  0.28300  1.0000
  O   O4        1.0  0.89700  0.00000  0.44900  1.0000
  O   O5        1.0  0.10300  0.00000  0.55100  1.0000
  O   O6        1.0  0.43500  0.00000  0.71700  1.0000
  O   O7        1.0  0.70900  0.00000  0.85500  1.0000
  O   O8        1.0  0.89700  0.50000  0.94900  1.0000
