data_image0
_chemical_formula_structural       CdMo6Se8
_chemical_formula_sum              "Cd1 Mo6 Se8"
_cell_length_a       6.81656
_cell_length_b       6.81656
_cell_length_c       6.81656
_cell_angle_alpha    91.6026
_cell_angle_beta     91.6026
_cell_angle_gamma    91.6026

_space_group_name_H-M_alt    "P 1"
_space_group_IT_number       1

loop_
  _space_group_symop_operation_xyz
  'x, y, z'

loop_
  _atom_site_type_symbol
  _atom_site_label
  _atom_site_symmetry_multiplicity
  _atom_site_fract_x
  _atom_site_fract_y
  _atom_site_fract_z
  _atom_site_occupancy
  Cd  Cd1       1.0  0.00000  0.00000  0.00000  1.0000
  Mo  Mo1       1.0  0.55300  0.42000  0.23300  1.0000
  Mo  Mo2       1.0  0.23300  0.55300  0.42000  1.0000
  Mo  Mo3       1.0  0.58000  0.76700  0.44700  1.0000
  Mo  Mo4       1.0  0.42000  0.23300  0.55300  1.0000
  Mo  Mo5       1.0  0.76700  0.44700  0.58000  1.0000
  Mo  Mo6       1.0  0.44700  0.58000  0.76700  1.0000
  Se  Se1       1.0  0.37300  0.74000  0.12600  1.0000
  Se  Se2       1.0  0.22900  0.22900  0.22900  1.0000
  Se  Se3       1.0  0.87400  0.62700  0.26000  1.0000
  Se  Se4       1.0  0.74000  0.12600  0.37300  1.0000
  Se  Se5       1.0  0.26000  0.87400  0.62700  1.0000
  Se  Se6       1.0  0.12600  0.37300  0.74000  1.0000
  Se  Se7       1.0  0.77100  0.77100  0.77100  1.0000
  Se  Se8       1.0  0.62700  0.26000  0.87400  1.0000
