data_image0
_chemical_formula_structural       F11Hf2NaV
_chemical_formula_sum              "F11 Hf2 Na1 V1"
_cell_length_a       5.57168
_cell_length_b       5.57168
_cell_length_c       7.64288
_cell_angle_alpha    110.904
_cell_angle_beta     69.0964
_cell_angle_gamma    107.2

_space_group_name_H-M_alt    "P 1"
_space_group_IT_number       1

loop_
  _space_group_symop_operation_xyz
  'x, y, z'

loop_
  _atom_site_type_symbol
  _atom_site_label
  _atom_site_symmetry_multiplicity
  _atom_site_fract_x
  _atom_site_fract_y
  _atom_site_fract_z
  _atom_site_occupancy
  F   F1        1.0  0.32700  0.32700  0.00000  1.0000
  F   F2        1.0  0.67300  0.67300  0.00000  1.0000
  F   F3        1.0  0.73900  0.26100  0.10500  1.0000
  F   F4        1.0  0.18800  0.21500  0.30500  1.0000
  F   F5        1.0  0.78500  0.81200  0.30500  1.0000
  F   F6        1.0  0.25000  0.75000  0.35200  1.0000
  F   F7        1.0  0.50000  0.50000  0.50000  1.0000
  F   F8        1.0  0.75000  0.25000  0.64800  1.0000
  F   F9        1.0  0.21500  0.18800  0.69500  1.0000
  F   F10       1.0  0.81200  0.78500  0.69500  1.0000
  F   F11       1.0  0.26100  0.73900  0.89500  1.0000
  Hf  Hf1       1.0  0.49800  0.50200  0.23300  1.0000
  Hf  Hf2       1.0  0.50200  0.49800  0.76700  1.0000
  Na  Na1       1.0  0.00000  0.00000  0.00000  1.0000
  V   V1        1.0  1.00000  0.00000  0.50000  1.0000
