data_image0
_chemical_formula_structural       As2Ge5Te8
_chemical_formula_sum              "As2 Ge5 Te8"
_cell_length_a       4.19159
_cell_length_b       4.1916
_cell_length_c       27.1783
_cell_angle_alpha    90
_cell_angle_beta     89.9998
_cell_angle_gamma    120

_space_group_name_H-M_alt    "P 1"
_space_group_IT_number       1

loop_
  _space_group_symop_operation_xyz
  'x, y, z'

loop_
  _atom_site_type_symbol
  _atom_site_label
  _atom_site_symmetry_multiplicity
  _atom_site_fract_x
  _atom_site_fract_y
  _atom_site_fract_z
  _atom_site_occupancy
  As  As1       1.0  0.00000  0.00000  0.39000  1.0000
  As  As2       1.0  0.00002  0.00001  0.61000  1.0000
  Ge  Ge1       1.0  0.00000  0.00000  0.00000  1.0000
  Ge  Ge2       1.0  0.33300  0.66700  0.12800  1.0000
  Ge  Ge3       1.0  0.66700  0.33300  0.25800  1.0000
  Ge  Ge4       1.0  0.33300  0.66700  0.74200  1.0000
  Ge  Ge5       1.0  0.66700  0.33300  0.87200  1.0000
  Te  Te1       1.0  0.66700  0.33300  0.06400  1.0000
  Te  Te2       1.0  0.00001  0.00000  0.19200  1.0000
  Te  Te3       1.0  0.33300  0.66700  0.32200  1.0000
  Te  Te4       1.0  0.66700  0.33300  0.44700  1.0000
  Te  Te5       1.0  0.33300  0.66700  0.55300  1.0000
  Te  Te6       1.0  0.66700  0.33300  0.67800  1.0000
  Te  Te7       1.0  0.00000  0.00000  0.80800  1.0000
  Te  Te8       1.0  0.33300  0.66700  0.93600  1.0000
