data_image0
_chemical_formula_structural       Cl9Cs3Mn3
_chemical_formula_sum              "Cl9 Cs3 Mn3"
_cell_length_a       7.32806
_cell_length_b       7.32806
_cell_length_c       10.0493
_cell_angle_alpha    68.6166
_cell_angle_beta     111.383
_cell_angle_gamma    120

_space_group_name_H-M_alt    "P 1"
_space_group_IT_number       1

loop_
  _space_group_symop_operation_xyz
  'x, y, z'

loop_
  _atom_site_type_symbol
  _atom_site_label
  _atom_site_symmetry_multiplicity
  _atom_site_fract_x
  _atom_site_fract_y
  _atom_site_fract_z
  _atom_site_occupancy
  Cl  Cl1       1.0  0.50000  0.00000  0.00000  1.0000
  Cl  Cl2       1.0  0.50000  0.50000  0.00000  1.0000
  Cl  Cl3       1.0  0.00000  0.50000  0.00000  1.0000
  Cl  Cl4       1.0  0.28600  0.24400  0.32800  1.0000
  Cl  Cl5       1.0  0.75600  0.71400  0.32800  1.0000
  Cl  Cl6       1.0  0.28600  0.71400  0.32800  1.0000
  Cl  Cl7       1.0  0.71400  0.28600  0.67200  1.0000
  Cl  Cl8       1.0  0.24400  0.28600  0.67200  1.0000
  Cl  Cl9       1.0  0.71400  0.75600  0.67200  1.0000
  Cs  Cs1       1.0  0.00000  0.00000  0.00000  1.0000
  Cs  Cs2       1.0  0.78100  0.21900  0.34300  1.0000
  Cs  Cs3       1.0  0.21900  0.78100  0.65700  1.0000
  Mn  Mn1       1.0  0.38400  0.61600  0.15200  1.0000
  Mn  Mn2       1.0  0.50000  0.50000  0.50000  1.0000
  Mn  Mn3       1.0  0.61600  0.38400  0.84800  1.0000
