data_image0
_chemical_formula_structural       CdMo6S8
_chemical_formula_sum              "Cd1 Mo6 S8"
_cell_length_a       6.53067
_cell_length_b       6.53067
_cell_length_c       6.53067
_cell_angle_alpha    92.1141
_cell_angle_beta     92.1141
_cell_angle_gamma    92.1141

_space_group_name_H-M_alt    "P 1"
_space_group_IT_number       1

loop_
  _space_group_symop_operation_xyz
  'x, y, z'

loop_
  _atom_site_type_symbol
  _atom_site_label
  _atom_site_symmetry_multiplicity
  _atom_site_fract_x
  _atom_site_fract_y
  _atom_site_fract_z
  _atom_site_occupancy
  Cd  Cd1       1.0  0.00000  0.00000  0.00000  1.0000
  Mo  Mo1       1.0  0.41200  0.55400  0.22000  1.0000
  Mo  Mo2       1.0  0.55400  0.22000  0.41200  1.0000
  Mo  Mo3       1.0  0.78000  0.58800  0.44600  1.0000
  Mo  Mo4       1.0  0.22000  0.41200  0.55400  1.0000
  Mo  Mo5       1.0  0.44600  0.78000  0.58800  1.0000
  Mo  Mo6       1.0  0.58800  0.44600  0.78000  1.0000
  S   S1        1.0  0.73100  0.37700  0.13100  1.0000
  S   S2        1.0  0.22700  0.22700  0.22700  1.0000
  S   S3        1.0  0.62300  0.86900  0.26900  1.0000
  S   S4        1.0  0.13100  0.73100  0.37700  1.0000
  S   S5        1.0  0.86900  0.26900  0.62300  1.0000
  S   S6        1.0  0.37700  0.13100  0.73100  1.0000
  S   S7        1.0  0.77300  0.77300  0.77300  1.0000
  S   S8        1.0  0.26900  0.62300  0.86900  1.0000
