data_image0
_chemical_formula_structural       Ag3Al6Pr3
_chemical_formula_sum              "Ag3 Al6 Pr3"
_cell_length_a       5.68098
_cell_length_b       5.68098
_cell_length_c       9.54385
_cell_angle_alpha    107.315
_cell_angle_beta     72.685
_cell_angle_gamma    120

_space_group_name_H-M_alt    "P 1"
_space_group_IT_number       1

loop_
  _space_group_symop_operation_xyz
  'x, y, z'

loop_
  _atom_site_type_symbol
  _atom_site_label
  _atom_site_symmetry_multiplicity
  _atom_site_fract_x
  _atom_site_fract_y
  _atom_site_fract_z
  _atom_site_occupancy
  Ag  Ag1       1.0  0.33600  0.66400  0.99300  1.0000
  Ag  Ag2       1.0  0.66400  0.33600  0.00657  1.0000
  Ag  Ag3       1.0  0.50000  0.50000  0.50000  1.0000
  Al  Al1       1.0  0.92300  0.58600  0.24800  1.0000
  Al  Al2       1.0  0.41400  0.07670  0.24800  1.0000
  Al  Al3       1.0  0.41400  0.58600  0.24800  1.0000
  Al  Al4       1.0  0.58600  0.41400  0.75200  1.0000
  Al  Al5       1.0  0.58600  0.92300  0.75200  1.0000
  Al  Al6       1.0  0.07670  0.41400  0.75200  1.0000
  Pr  Pr1       1.0  0.00000  0.00000  0.00000  1.0000
  Pr  Pr2       1.0  0.85900  0.14100  0.42400  1.0000
  Pr  Pr3       1.0  0.14100  0.85900  0.57600  1.0000
