data_image0
_chemical_formula_structural       Ag6Sr9
_chemical_formula_sum              "Ag6 Sr9"
_cell_length_a       8.43378
_cell_length_b       8.43378
_cell_length_c       8.43378
_cell_angle_alpha    107.994
_cell_angle_beta     107.994
_cell_angle_gamma    72.0065

_space_group_name_H-M_alt    "P 1"
_space_group_IT_number       1

loop_
  _space_group_symop_operation_xyz
  'x, y, z'

loop_
  _atom_site_type_symbol
  _atom_site_label
  _atom_site_symmetry_multiplicity
  _atom_site_fract_x
  _atom_site_fract_y
  _atom_site_fract_z
  _atom_site_occupancy
  Ag  Ag1       1.0  0.35600  0.54200  0.08910  1.0000
  Ag  Ag2       1.0  0.45800  0.08910  0.35600  1.0000
  Ag  Ag3       1.0  0.91100  0.35600  0.45800  1.0000
  Ag  Ag4       1.0  0.08910  0.64400  0.54200  1.0000
  Ag  Ag5       1.0  0.54200  0.91100  0.64400  1.0000
  Ag  Ag6       1.0  0.64400  0.45800  0.91100  1.0000
  Sr  Sr1       1.0  0.66500  0.16000  0.10700  1.0000
  Sr  Sr2       1.0  0.10600  0.33500  0.16000  1.0000
  Sr  Sr3       1.0  0.70600  0.70600  0.29400  1.0000
  Sr  Sr4       1.0  0.16000  0.89300  0.33500  1.0000
  Sr  Sr5       1.0  0.50000  0.50000  0.50000  1.0000
  Sr  Sr6       1.0  0.84000  0.10700  0.66500  1.0000
  Sr  Sr7       1.0  0.29400  0.29400  0.70600  1.0000
  Sr  Sr8       1.0  0.89300  0.66500  0.84000  1.0000
  Sr  Sr9       1.0  0.33500  0.84000  0.89400  1.0000
