data_image0
_chemical_formula_structural       LaMo6S8
_chemical_formula_sum              "La1 Mo6 S8"
_cell_length_a       6.54675
_cell_length_b       6.54675
_cell_length_c       6.54675
_cell_angle_alpha    91.1844
_cell_angle_beta     91.1844
_cell_angle_gamma    88.8156

_space_group_name_H-M_alt    "P 1"
_space_group_IT_number       1

loop_
  _space_group_symop_operation_xyz
  'x, y, z'

loop_
  _atom_site_type_symbol
  _atom_site_label
  _atom_site_symmetry_multiplicity
  _atom_site_fract_x
  _atom_site_fract_y
  _atom_site_fract_z
  _atom_site_occupancy
  La  La1       1.0  0.00000  0.00000  0.00000  1.0000
  Mo  Mo1       1.0  0.43700  0.58000  0.22600  1.0000
  Mo  Mo2       1.0  0.77400  0.43700  0.42000  1.0000
  Mo  Mo3       1.0  0.42000  0.22600  0.43700  1.0000
  Mo  Mo4       1.0  0.58000  0.77400  0.56300  1.0000
  Mo  Mo5       1.0  0.22600  0.56300  0.58000  1.0000
  Mo  Mo6       1.0  0.56300  0.42000  0.77400  1.0000
  S   S1        1.0  0.62400  0.25100  0.12700  1.0000
  S   S2        1.0  0.75600  0.75600  0.24400  1.0000
  S   S3        1.0  0.12700  0.37600  0.25100  1.0000
  S   S4        1.0  0.25100  0.87300  0.37600  1.0000
  S   S5        1.0  0.74900  0.12700  0.62400  1.0000
  S   S6        1.0  0.87300  0.62400  0.74900  1.0000
  S   S7        1.0  0.24400  0.24400  0.75600  1.0000
  S   S8        1.0  0.37600  0.74900  0.87300  1.0000
