data_image0
_chemical_formula_structural       BaN8Si6
_chemical_formula_sum              "Ba1 N8 Si6"
_cell_length_a       4.84537
_cell_length_b       6.59665
_cell_length_c       6.59665
_cell_angle_alpha    90.3924
_cell_angle_beta     111.547
_cell_angle_gamma    111.547

_space_group_name_H-M_alt    "P 1"
_space_group_IT_number       1

loop_
  _space_group_symop_operation_xyz
  'x, y, z'

loop_
  _atom_site_type_symbol
  _atom_site_label
  _atom_site_symmetry_multiplicity
  _atom_site_fract_x
  _atom_site_fract_y
  _atom_site_fract_z
  _atom_site_occupancy
  Ba  Ba1       1.0  0.16800  0.00000  0.00000  1.0000
  N   N1        1.0  0.61900  0.52000  0.11900  1.0000
  N   N2        1.0  0.92200  0.21200  0.21200  1.0000
  N   N3        1.0  0.30100  0.68200  0.31800  1.0000
  N   N4        1.0  0.98000  0.88100  0.48000  1.0000
  N   N5        1.0  0.61900  0.11900  0.52000  1.0000
  N   N6        1.0  0.30100  0.31800  0.68200  1.0000
  N   N7        1.0  0.49900  0.78800  0.78800  1.0000
  N   N8        1.0  0.98000  0.48000  0.88100  1.0000
  Si  Si1       1.0  0.95000  0.45800  0.13800  1.0000
  Si  Si2       1.0  0.64700  0.62700  0.37300  1.0000
  Si  Si3       1.0  0.95000  0.13800  0.45800  1.0000
  Si  Si4       1.0  0.35400  0.86200  0.54200  1.0000
  Si  Si5       1.0  0.64700  0.37300  0.62700  1.0000
  Si  Si6       1.0  0.35400  0.54200  0.86200  1.0000
