data_image0
_chemical_formula_structural       Rh6Sm9
_chemical_formula_sum              "Rh6 Sm9"
_cell_length_a       7.48945
_cell_length_b       7.48945
_cell_length_c       7.48945
_cell_angle_alpha    108.475
_cell_angle_beta     108.475
_cell_angle_gamma    71.5247

_space_group_name_H-M_alt    "P 1"
_space_group_IT_number       1

loop_
  _space_group_symop_operation_xyz
  'x, y, z'

loop_
  _atom_site_type_symbol
  _atom_site_label
  _atom_site_symmetry_multiplicity
  _atom_site_fract_x
  _atom_site_fract_y
  _atom_site_fract_z
  _atom_site_occupancy
  Rh  Rh1       1.0  0.33600  0.54400  0.08970  1.0000
  Rh  Rh2       1.0  0.45600  0.08970  0.33600  1.0000
  Rh  Rh3       1.0  0.91000  0.33600  0.45600  1.0000
  Rh  Rh4       1.0  0.08970  0.66400  0.54400  1.0000
  Rh  Rh5       1.0  0.54400  0.91000  0.66400  1.0000
  Rh  Rh6       1.0  0.66400  0.45600  0.91000  1.0000
  Sm  Sm1       1.0  0.66500  0.16300  0.10600  1.0000
  Sm  Sm2       1.0  0.10600  0.33500  0.16300  1.0000
  Sm  Sm3       1.0  0.70400  0.70400  0.29600  1.0000
  Sm  Sm4       1.0  0.16300  0.89400  0.33500  1.0000
  Sm  Sm5       1.0  0.50000  0.50000  0.50000  1.0000
  Sm  Sm6       1.0  0.83700  0.10600  0.66500  1.0000
  Sm  Sm7       1.0  0.29600  0.29600  0.70400  1.0000
  Sm  Sm8       1.0  0.89400  0.66500  0.83700  1.0000
  Sm  Sm9       1.0  0.33500  0.83700  0.89400  1.0000
