data_image0
_chemical_formula_structural       Ba3MnNb2O9
_chemical_formula_sum              "Ba3 Mn1 Nb2 O9"
_cell_length_a       5.84525
_cell_length_b       5.84526
_cell_length_c       7.18492
_cell_angle_alpha    90
_cell_angle_beta     89.9996
_cell_angle_gamma    120

_space_group_name_H-M_alt    "P 1"
_space_group_IT_number       1

loop_
  _space_group_symop_operation_xyz
  'x, y, z'

loop_
  _atom_site_type_symbol
  _atom_site_label
  _atom_site_symmetry_multiplicity
  _atom_site_fract_x
  _atom_site_fract_y
  _atom_site_fract_z
  _atom_site_occupancy
  Ba  Ba1       1.0  0.00000  0.00000  0.00000  1.0000
  Ba  Ba2       1.0  0.66700  0.33300  0.33500  1.0000
  Ba  Ba3       1.0  0.33300  0.66700  0.66500  1.0000
  Mn  Mn1       1.0  0.00000  1.00000  0.50000  1.0000
  Nb  Nb1       1.0  0.33300  0.66700  0.17500  1.0000
  Nb  Nb2       1.0  0.66700  0.33300  0.82500  1.0000
  O   O1        1.0  0.50000  0.00000  0.00000  1.0000
  O   O2        1.0  0.50000  0.50000  0.00000  1.0000
  O   O3        1.0  0.00000  0.50000  1.00000  1.0000
  O   O4        1.0  0.17200  0.82800  0.32200  1.0000
  O   O5        1.0  0.17200  0.34500  0.32200  1.0000
  O   O6        1.0  0.65500  0.82800  0.32200  1.0000
  O   O7        1.0  0.34500  0.17200  0.67800  1.0000
  O   O8        1.0  0.82800  0.17200  0.67800  1.0000
  O   O9        1.0  0.82800  0.65500  0.67800  1.0000
