data_image0
_chemical_formula_structural       F11NaPdZr2
_chemical_formula_sum              "F11 Na1 Pd1 Zr2"
_cell_length_a       5.67604
_cell_length_b       5.67604
_cell_length_c       7.77904
_cell_angle_alpha    110.797
_cell_angle_beta     69.2033
_cell_angle_gamma    107.271

_space_group_name_H-M_alt    "P 1"
_space_group_IT_number       1

loop_
  _space_group_symop_operation_xyz
  'x, y, z'

loop_
  _atom_site_type_symbol
  _atom_site_label
  _atom_site_symmetry_multiplicity
  _atom_site_fract_x
  _atom_site_fract_y
  _atom_site_fract_z
  _atom_site_occupancy
  F   F1        1.0  0.32800  0.32800  0.00000  1.0000
  F   F2        1.0  0.67200  0.67200  0.00000  1.0000
  F   F3        1.0  0.74400  0.25600  0.10300  1.0000
  F   F4        1.0  0.19200  0.21200  0.29400  1.0000
  F   F5        1.0  0.78800  0.80800  0.29400  1.0000
  F   F6        1.0  0.25900  0.74100  0.34700  1.0000
  F   F7        1.0  0.50000  0.50000  0.50000  1.0000
  F   F8        1.0  0.74100  0.25900  0.65300  1.0000
  F   F9        1.0  0.21200  0.19200  0.70600  1.0000
  F   F10       1.0  0.80800  0.78800  0.70600  1.0000
  F   F11       1.0  0.25600  0.74400  0.89700  1.0000
  Na  Na1       1.0  0.00000  0.00000  0.00000  1.0000
  Pd  Pd1       1.0  0.00000  0.00000  0.50000  1.0000
  Zr  Zr1       1.0  0.50400  0.49600  0.22800  1.0000
  Zr  Zr2       1.0  0.49600  0.50400  0.77200  1.0000
