data_image0
_chemical_formula_structural       Li2O26V12
_chemical_formula_sum              "Li2 O26 V12"
_cell_length_a       3.73316
_cell_length_b       11.1012
_cell_length_c       11.941
_cell_angle_alpha    110.963
_cell_angle_beta     90
_cell_angle_gamma    99.6799

_space_group_name_H-M_alt    "P 1"
_space_group_IT_number       1

loop_
  _space_group_symop_operation_xyz
  'x, y, z'

loop_
  _atom_site_type_symbol
  _atom_site_label
  _atom_site_symmetry_multiplicity
  _atom_site_fract_x
  _atom_site_fract_y
  _atom_site_fract_z
  _atom_site_occupancy
  Li  Li1       1.0  0.81700  0.63300  0.24600  1.0000
  Li  Li2       1.0  0.18300  0.36700  0.75400  1.0000
  O   O1        1.0  0.14800  0.29700  0.03460  1.0000
  O   O2        1.0  0.44200  0.88500  0.06480  1.0000
  O   O3        1.0  0.75500  0.51000  0.07500  1.0000
  O   O4        1.0  0.04140  0.08270  0.10800  1.0000
  O   O5        1.0  0.35200  0.70500  0.19100  1.0000
  O   O6        1.0  0.95600  0.91200  0.21500  1.0000
  O   O7        1.0  0.25200  0.50500  0.25300  1.0000
  O   O8        1.0  0.54800  0.09570  0.30000  1.0000
  O   O9        1.0  0.15200  0.30400  0.32400  1.0000
  O   O10       1.0  0.45800  0.91600  0.39800  1.0000
  O   O11       1.0  0.75200  0.50300  0.43700  1.0000
  O   O12       1.0  0.05990  0.12000  0.44200  1.0000
  O   O13       1.0  0.35000  0.70000  0.45600  1.0000
  O   O14       1.0  0.65000  0.30000  0.54400  1.0000
  O   O15       1.0  0.94000  0.88000  0.55800  1.0000
  O   O16       1.0  0.24800  0.49700  0.56300  1.0000
  O   O17       1.0  0.54200  0.08360  0.60200  1.0000
  O   O18       1.0  0.84800  0.69600  0.67600  1.0000
  O   O19       1.0  0.45200  0.90400  0.70000  1.0000
  O   O20       1.0  0.74800  0.49500  0.74700  1.0000
  O   O21       1.0  0.04420  0.08840  0.78500  1.0000
  O   O22       1.0  0.64800  0.29500  0.80900  1.0000
  O   O23       1.0  0.95900  0.91700  0.89200  1.0000
  O   O24       1.0  0.24500  0.49000  0.92500  1.0000
  O   O25       1.0  0.55800  0.11500  0.93500  1.0000
  O   O26       1.0  0.85200  0.70300  0.96500  1.0000
  V   V1        1.0  0.94600  0.89200  0.03850  1.0000
  V   V2        1.0  0.23000  0.46100  0.08030  1.0000
  V   V3        1.0  0.43400  0.86800  0.22700  1.0000
  V   V4        1.0  0.06980  0.14000  0.28300  1.0000
  V   V5        1.0  0.24800  0.49600  0.39700  1.0000
  V   V6        1.0  0.56800  0.13700  0.47900  1.0000
  V   V7        1.0  0.43200  0.86300  0.52100  1.0000
  V   V8        1.0  0.75200  0.50400  0.60300  1.0000
  V   V9        1.0  0.93000  0.86000  0.71700  1.0000
  V   V10       1.0  0.56600  0.13200  0.77300  1.0000
  V   V11       1.0  0.77000  0.53900  0.92000  1.0000
  V   V12       1.0  0.05410  0.10800  0.96100  1.0000
