data_image0
_chemical_formula_structural       Ce9Rh6
_chemical_formula_sum              "Ce9 Rh6"
_cell_length_a       7.68526
_cell_length_b       7.68526
_cell_length_c       7.68526
_cell_angle_alpha    108.445
_cell_angle_beta     71.5546
_cell_angle_gamma    108.445

_space_group_name_H-M_alt    "P 1"
_space_group_IT_number       1

loop_
  _space_group_symop_operation_xyz
  'x, y, z'

loop_
  _atom_site_type_symbol
  _atom_site_label
  _atom_site_symmetry_multiplicity
  _atom_site_fract_x
  _atom_site_fract_y
  _atom_site_fract_z
  _atom_site_occupancy
  Ce  Ce1       1.0  0.00000  0.00000  0.00000  1.0000
  Ce  Ce2       1.0  0.66300  0.60600  0.16600  1.0000
  Ce  Ce3       1.0  0.20400  0.79600  0.20400  1.0000
  Ce  Ce4       1.0  0.60600  0.16600  0.33700  1.0000
  Ce  Ce5       1.0  0.16600  0.33700  0.39400  1.0000
  Ce  Ce6       1.0  0.83400  0.66300  0.60600  1.0000
  Ce  Ce7       1.0  0.39400  0.83400  0.66300  1.0000
  Ce  Ce8       1.0  0.79600  0.20400  0.79600  1.0000
  Ce  Ce9       1.0  0.33700  0.39400  0.83400  1.0000
  Rh  Rh1       1.0  0.41100  0.16400  0.04370  1.0000
  Rh  Rh2       1.0  0.95600  0.41100  0.16400  1.0000
  Rh  Rh3       1.0  0.83600  0.95600  0.41100  1.0000
  Rh  Rh4       1.0  0.16400  0.04370  0.58900  1.0000
  Rh  Rh5       1.0  0.04370  0.58900  0.83600  1.0000
  Rh  Rh6       1.0  0.58900  0.83600  0.95600  1.0000
