data_image0
_chemical_formula_structural       Ir6P6Sr3
_chemical_formula_sum              "Ir6 P6 Sr3"
_cell_length_a       6.77158
_cell_length_b       6.77158
_cell_length_c       7.14034
_cell_angle_alpha    90
_cell_angle_beta     90
_cell_angle_gamma    120

_space_group_name_H-M_alt    "P 1"
_space_group_IT_number       1

loop_
  _space_group_symop_operation_xyz
  'x, y, z'

loop_
  _atom_site_type_symbol
  _atom_site_label
  _atom_site_symmetry_multiplicity
  _atom_site_fract_x
  _atom_site_fract_y
  _atom_site_fract_z
  _atom_site_occupancy
  Ir  Ir1       1.0  0.13000  0.00000  0.16700  1.0000
  Ir  Ir2       1.0  0.00000  0.51100  0.33300  1.0000
  Ir  Ir3       1.0  0.87000  0.87000  0.50000  1.0000
  Ir  Ir4       1.0  0.51100  0.00000  0.66700  1.0000
  Ir  Ir5       1.0  0.00000  0.13000  0.83300  1.0000
  Ir  Ir6       1.0  0.48900  0.48900  0.00000  1.0000
  P   P1        1.0  0.12200  0.33900  0.12400  1.0000
  P   P2        1.0  0.78300  0.66100  0.20900  1.0000
  P   P3        1.0  0.21700  0.87800  0.45700  1.0000
  P   P4        1.0  0.87800  0.21700  0.54300  1.0000
  P   P5        1.0  0.66100  0.78300  0.79100  1.0000
  P   P6        1.0  0.33900  0.12200  0.87600  1.0000
  Sr  Sr1       1.0  0.60100  0.00000  0.16700  1.0000
  Sr  Sr2       1.0  0.39900  0.39900  0.50000  1.0000
  Sr  Sr3       1.0  0.00000  0.60100  0.83300  1.0000
