data_image0
_chemical_formula_structural       ErMo6Se8
_chemical_formula_sum              "Er1 Mo6 Se8"
_cell_length_a       6.73652
_cell_length_b       6.73652
_cell_length_c       6.73652
_cell_angle_alpha    90.811
_cell_angle_beta     90.811
_cell_angle_gamma    89.189

_space_group_name_H-M_alt    "P 1"
_space_group_IT_number       1

loop_
  _space_group_symop_operation_xyz
  'x, y, z'

loop_
  _atom_site_type_symbol
  _atom_site_label
  _atom_site_symmetry_multiplicity
  _atom_site_fract_x
  _atom_site_fract_y
  _atom_site_fract_z
  _atom_site_occupancy
  Er  Er1       1.0  0.00000  0.00000  0.00000  1.0000
  Mo  Mo1       1.0  0.44200  0.57600  0.23200  1.0000
  Mo  Mo2       1.0  0.76800  0.44200  0.42400  1.0000
  Mo  Mo3       1.0  0.42400  0.23200  0.44200  1.0000
  Mo  Mo4       1.0  0.57600  0.76800  0.55800  1.0000
  Mo  Mo5       1.0  0.23200  0.55800  0.57600  1.0000
  Mo  Mo6       1.0  0.55800  0.42400  0.76800  1.0000
  Se  Se1       1.0  0.63100  0.24100  0.12200  1.0000
  Se  Se2       1.0  0.76400  0.76400  0.23600  1.0000
  Se  Se3       1.0  0.12200  0.36900  0.24100  1.0000
  Se  Se4       1.0  0.24100  0.87800  0.36900  1.0000
  Se  Se5       1.0  0.75900  0.12200  0.63100  1.0000
  Se  Se6       1.0  0.87800  0.63100  0.75900  1.0000
  Se  Se7       1.0  0.23600  0.23600  0.76400  1.0000
  Se  Se8       1.0  0.36900  0.75900  0.87800  1.0000
