data_image0
_chemical_formula_structural       B13C2
_chemical_formula_sum              "B13 C2"
_cell_length_a       5.19396
_cell_length_b       5.19396
_cell_length_c       5.19396
_cell_angle_alpha    114.06
_cell_angle_beta     65.9402
_cell_angle_gamma    114.06

_space_group_name_H-M_alt    "P 1"
_space_group_IT_number       1

loop_
  _space_group_symop_operation_xyz
  'x, y, z'

loop_
  _atom_site_type_symbol
  _atom_site_label
  _atom_site_symmetry_multiplicity
  _atom_site_fract_x
  _atom_site_fract_y
  _atom_site_fract_z
  _atom_site_occupancy
  B   B1        1.0  0.00763  0.67600  0.00763  1.0000
  B   B2        1.0  0.32400  0.99200  0.00763  1.0000
  B   B3        1.0  0.19700  0.31800  0.19700  1.0000
  B   B4        1.0  0.68200  0.80300  0.19700  1.0000
  B   B5        1.0  0.80300  0.19700  0.31800  1.0000
  B   B6        1.0  0.00763  0.99200  0.32400  1.0000
  B   B7        1.0  0.50000  0.50000  0.50000  1.0000
  B   B8        1.0  0.99200  0.00763  0.67600  1.0000
  B   B9        1.0  0.19700  0.80300  0.68200  1.0000
  B   B10       1.0  0.80300  0.68200  0.80300  1.0000
  B   B11       1.0  0.31800  0.19700  0.80300  1.0000
  B   B12       1.0  0.99200  0.32400  0.99200  1.0000
  B   B13       1.0  0.67600  0.00763  0.99200  1.0000
  C   C1        1.0  0.38100  0.61900  0.38100  1.0000
  C   C2        1.0  0.61900  0.38100  0.61900  1.0000
