data_image0
_chemical_formula_structural       B13N2
_chemical_formula_sum              "B13 N2"
_cell_length_a       5.20266
_cell_length_b       5.20266
_cell_length_c       5.20266
_cell_angle_alpha    63.5511
_cell_angle_beta     116.449
_cell_angle_gamma    116.449

_space_group_name_H-M_alt    "P 1"
_space_group_IT_number       1

loop_
  _space_group_symop_operation_xyz
  'x, y, z'

loop_
  _atom_site_type_symbol
  _atom_site_label
  _atom_site_symmetry_multiplicity
  _atom_site_fract_x
  _atom_site_fract_y
  _atom_site_fract_z
  _atom_site_occupancy
  B   B1        1.0  0.00463  0.66900  0.99500  1.0000
  B   B2        1.0  0.33100  0.99500  0.99500  1.0000
  B   B3        1.0  0.66900  0.00463  0.00463  1.0000
  B   B4        1.0  0.99500  0.33100  0.00463  1.0000
  B   B5        1.0  0.80300  0.68000  0.19700  1.0000
  B   B6        1.0  0.32000  0.19700  0.19700  1.0000
  B   B7        1.0  0.19700  0.80300  0.32000  1.0000
  B   B8        1.0  0.99500  0.00463  0.33100  1.0000
  B   B9        1.0  0.50000  0.50000  0.50000  1.0000
  B   B10       1.0  0.00463  0.99500  0.66900  1.0000
  B   B11       1.0  0.80300  0.19700  0.68100  1.0000
  B   B12       1.0  0.19700  0.32000  0.80300  1.0000
  B   B13       1.0  0.68100  0.80300  0.80300  1.0000
  N   N1        1.0  0.61500  0.38500  0.38500  1.0000
  N   N2        1.0  0.38500  0.61500  0.61500  1.0000
