data_image0
_chemical_formula_structural       F11NaTiZr2
_chemical_formula_sum              "F11 Na1 Ti1 Zr2"
_cell_length_a       5.63093
_cell_length_b       5.63093
_cell_length_c       7.7338
_cell_angle_alpha    111.016
_cell_angle_beta     68.9837
_cell_angle_gamma    107.05

_space_group_name_H-M_alt    "P 1"
_space_group_IT_number       1

loop_
  _space_group_symop_operation_xyz
  'x, y, z'

loop_
  _atom_site_type_symbol
  _atom_site_label
  _atom_site_symmetry_multiplicity
  _atom_site_fract_x
  _atom_site_fract_y
  _atom_site_fract_z
  _atom_site_occupancy
  F   F1        1.0  0.32500  0.32500  0.00000  1.0000
  F   F2        1.0  0.67500  0.67500  0.00000  1.0000
  F   F3        1.0  0.74300  0.25700  0.10200  1.0000
  F   F4        1.0  0.18600  0.21100  0.30600  1.0000
  F   F5        1.0  0.78900  0.81400  0.30600  1.0000
  F   F6        1.0  0.24600  0.75400  0.35600  1.0000
  F   F7        1.0  0.50000  0.50000  0.50000  1.0000
  F   F8        1.0  0.75400  0.24600  0.64400  1.0000
  F   F9        1.0  0.21100  0.18600  0.69400  1.0000
  F   F10       1.0  0.81400  0.78900  0.69400  1.0000
  F   F11       1.0  0.25700  0.74300  0.89800  1.0000
  Na  Na1       1.0  0.00000  0.00000  0.00000  1.0000
  Ti  Ti1       1.0  0.00000  0.00000  0.50000  1.0000
  Zr  Zr1       1.0  0.49900  0.50100  0.23100  1.0000
  Zr  Zr2       1.0  0.50100  0.49900  0.76900  1.0000
