data_image0
_chemical_formula_structural       Mo6Se8Yb
_chemical_formula_sum              "Mo6 Se8 Yb1"
_cell_length_a       6.78882
_cell_length_b       6.78882
_cell_length_c       6.78882
_cell_angle_alpha    90.9166
_cell_angle_beta     89.0834
_cell_angle_gamma    90.9166

_space_group_name_H-M_alt    "P 1"
_space_group_IT_number       1

loop_
  _space_group_symop_operation_xyz
  'x, y, z'

loop_
  _atom_site_type_symbol
  _atom_site_label
  _atom_site_symmetry_multiplicity
  _atom_site_fract_x
  _atom_site_fract_y
  _atom_site_fract_z
  _atom_site_occupancy
  Mo  Mo1       1.0  0.42300  0.44100  0.23500  1.0000
  Mo  Mo2       1.0  0.55900  0.76500  0.42300  1.0000
  Mo  Mo3       1.0  0.76500  0.42300  0.44100  1.0000
  Mo  Mo4       1.0  0.23500  0.57700  0.55900  1.0000
  Mo  Mo5       1.0  0.44100  0.23500  0.57700  1.0000
  Mo  Mo6       1.0  0.57700  0.55900  0.76500  1.0000
  Se  Se1       1.0  0.75400  0.62500  0.12200  1.0000
  Se  Se2       1.0  0.23800  0.76200  0.23800  1.0000
  Se  Se3       1.0  0.62500  0.12200  0.24600  1.0000
  Se  Se4       1.0  0.12200  0.24600  0.37500  1.0000
  Se  Se5       1.0  0.87800  0.75400  0.62500  1.0000
  Se  Se6       1.0  0.37500  0.87800  0.75400  1.0000
  Se  Se7       1.0  0.76200  0.23800  0.76200  1.0000
  Se  Se8       1.0  0.24600  0.37500  0.87800  1.0000
  Yb  Yb1       1.0  0.00000  0.00000  0.00000  1.0000
