data_image0
_chemical_formula_structural       Cl4Dy4S4
_chemical_formula_sum              "Cl4 Dy4 S4"
_cell_length_a       6.63654
_cell_length_b       6.68381
_cell_length_c       6.78597
_cell_angle_alpha    90
_cell_angle_beta     100.743
_cell_angle_gamma    90

_space_group_name_H-M_alt    "P 1"
_space_group_IT_number       1

loop_
  _space_group_symop_operation_xyz
  'x, y, z'

loop_
  _atom_site_type_symbol
  _atom_site_label
  _atom_site_symmetry_multiplicity
  _atom_site_fract_x
  _atom_site_fract_y
  _atom_site_fract_z
  _atom_site_occupancy
  Cl  Cl1       1.0  0.93500  0.66200  0.16500  1.0000
  Cl  Cl2       1.0  0.06480  0.16200  0.33500  1.0000
  Cl  Cl3       1.0  0.93500  0.83800  0.66500  1.0000
  Cl  Cl4       1.0  0.06480  0.33800  0.83500  1.0000
  Dy  Dy1       1.0  0.31200  0.45600  0.20600  1.0000
  Dy  Dy2       1.0  0.68800  0.95600  0.29400  1.0000
  Dy  Dy3       1.0  0.31200  0.04400  0.70600  1.0000
  Dy  Dy4       1.0  0.68800  0.54400  0.79400  1.0000
  S   S1        1.0  0.56300  0.24200  0.01140  1.0000
  S   S2        1.0  0.43700  0.74200  0.48900  1.0000
  S   S3        1.0  0.56300  0.25800  0.51100  1.0000
  S   S4        1.0  0.43700  0.75800  0.98900  1.0000
