data_image0
_chemical_formula_structural       B4C4Nb7
_chemical_formula_sum              "B4 C4 Nb7"
_cell_length_a       3.15694
_cell_length_b       3.23961
_cell_length_c       16.416
_cell_angle_alpha    95.6627
_cell_angle_beta     95.5177
_cell_angle_gamma    90

_space_group_name_H-M_alt    "P 1"
_space_group_IT_number       1

loop_
  _space_group_symop_operation_xyz
  'x, y, z'

loop_
  _atom_site_type_symbol
  _atom_site_label
  _atom_site_symmetry_multiplicity
  _atom_site_fract_x
  _atom_site_fract_y
  _atom_site_fract_z
  _atom_site_occupancy
  B   B1        1.0  0.02830  0.52800  0.05660  1.0000
  B   B2        1.0  0.55700  0.55700  0.11500  1.0000
  B   B3        1.0  0.44300  0.44300  0.88500  1.0000
  B   B4        1.0  0.97200  0.47200  0.94300  1.0000
  C   C1        1.0  0.14700  0.14700  0.29400  1.0000
  C   C2        1.0  0.71500  0.71500  0.43000  1.0000
  C   C3        1.0  0.28500  0.28500  0.57000  1.0000
  C   C4        1.0  0.85300  0.85300  0.70600  1.0000
  Nb  Nb1       1.0  0.50000  0.00000  0.00000  1.0000
  Nb  Nb2       1.0  0.08150  0.08150  0.16300  1.0000
  Nb  Nb3       1.0  0.64800  0.64800  0.29500  1.0000
  Nb  Nb4       1.0  0.21400  0.21400  0.42900  1.0000
  Nb  Nb5       1.0  0.78600  0.78600  0.57100  1.0000
  Nb  Nb6       1.0  0.35200  0.35200  0.70500  1.0000
  Nb  Nb7       1.0  0.91800  0.91800  0.83700  1.0000
