data_image0
_chemical_formula_structural       Cu4P10Sn
_chemical_formula_sum              "Cu4 P10 Sn1"
_cell_length_a       7.2816
_cell_length_b       7.2816
_cell_length_c       7.2816
_cell_angle_alpha    59.9216
_cell_angle_beta     59.9216
_cell_angle_gamma    59.9216

_space_group_name_H-M_alt    "P 1"
_space_group_IT_number       1

loop_
  _space_group_symop_operation_xyz
  'x, y, z'

loop_
  _atom_site_type_symbol
  _atom_site_label
  _atom_site_symmetry_multiplicity
  _atom_site_fract_x
  _atom_site_fract_y
  _atom_site_fract_z
  _atom_site_occupancy
  Cu  Cu1       1.0  0.00000  0.00000  0.00000  1.0000
  Cu  Cu2       1.0  0.86300  0.37800  0.37800  1.0000
  Cu  Cu3       1.0  0.37800  0.86300  0.37800  1.0000
  Cu  Cu4       1.0  0.37800  0.37800  0.86300  1.0000
  P   P1        1.0  0.87500  0.87500  0.38000  1.0000
  P   P2        1.0  0.98900  0.50500  0.50500  1.0000
  P   P3        1.0  0.50500  0.98900  0.50500  1.0000
  P   P4        1.0  0.99700  0.99700  0.50500  1.0000
  P   P5        1.0  0.87300  0.87300  0.87300  1.0000
  P   P6        1.0  0.87500  0.38000  0.87500  1.0000
  P   P7        1.0  0.38000  0.87500  0.87500  1.0000
  P   P8        1.0  0.50500  0.50500  0.98900  1.0000
  P   P9        1.0  0.50500  0.99700  0.99700  1.0000
  P   P10       1.0  0.99700  0.50500  0.99700  1.0000
  Sn  Sn1       1.0  0.42700  0.42700  0.42700  1.0000
