data_image0
_chemical_formula_structural       Mo6S8Sm
_chemical_formula_sum              "Mo6 S8 Sm1"
_cell_length_a       6.50572
_cell_length_b       6.50572
_cell_length_c       6.50572
_cell_angle_alpha    91.0584
_cell_angle_beta     91.0584
_cell_angle_gamma    88.9416

_space_group_name_H-M_alt    "P 1"
_space_group_IT_number       1

loop_
  _space_group_symop_operation_xyz
  'x, y, z'

loop_
  _atom_site_type_symbol
  _atom_site_label
  _atom_site_symmetry_multiplicity
  _atom_site_fract_x
  _atom_site_fract_y
  _atom_site_fract_z
  _atom_site_occupancy
  Mo  Mo1       1.0  0.43800  0.58000  0.22400  1.0000
  Mo  Mo2       1.0  0.77600  0.43800  0.42000  1.0000
  Mo  Mo3       1.0  0.42000  0.22400  0.43800  1.0000
  Mo  Mo4       1.0  0.58000  0.77600  0.56200  1.0000
  Mo  Mo5       1.0  0.22400  0.56200  0.58000  1.0000
  Mo  Mo6       1.0  0.56200  0.42000  0.77600  1.0000
  S   S1        1.0  0.62800  0.24700  0.12700  1.0000
  S   S2        1.0  0.75900  0.75900  0.24100  1.0000
  S   S3        1.0  0.12700  0.37200  0.24700  1.0000
  S   S4        1.0  0.24700  0.87300  0.37200  1.0000
  S   S5        1.0  0.75300  0.12700  0.62800  1.0000
  S   S6        1.0  0.87300  0.62800  0.75300  1.0000
  S   S7        1.0  0.24100  0.24100  0.75900  1.0000
  S   S8        1.0  0.37200  0.75300  0.87300  1.0000
  Sm  Sm1       1.0  0.00000  0.00000  0.00000  1.0000
