data_image0
_chemical_formula_structural       Ba4Fe2I5S4
_chemical_formula_sum              "Ba4 Fe2 I5 S4"
_cell_length_a       5.14727
_cell_length_b       10.195
_cell_length_c       10.195
_cell_angle_alpha    93.6537
_cell_angle_beta     104.622
_cell_angle_gamma    75.378

_space_group_name_H-M_alt    "P 1"
_space_group_IT_number       1

loop_
  _space_group_symop_operation_xyz
  'x, y, z'

loop_
  _atom_site_type_symbol
  _atom_site_label
  _atom_site_symmetry_multiplicity
  _atom_site_fract_x
  _atom_site_fract_y
  _atom_site_fract_z
  _atom_site_occupancy
  Ba  Ba1       1.0  0.25000  0.68900  0.19000  1.0000
  Ba  Ba2       1.0  0.06060  0.19000  0.31100  1.0000
  Ba  Ba3       1.0  0.93900  0.81000  0.68900  1.0000
  Ba  Ba4       1.0  0.75000  0.31100  0.81000  1.0000
  Fe  Fe1       1.0  0.25000  0.50000  0.50000  1.0000
  Fe  Fe2       1.0  0.75000  0.50000  0.50000  1.0000
  I   I1        1.0  0.00000  0.00000  0.00000  1.0000
  I   I2        1.0  0.36900  0.33400  0.07280  1.0000
  I   I3        1.0  0.70300  0.92700  0.33400  1.0000
  I   I4        1.0  0.29700  0.07280  0.66600  1.0000
  I   I5        1.0  0.63100  0.66600  0.92700  1.0000
  S   S1        1.0  0.89900  0.51500  0.31300  1.0000
  S   S2        1.0  0.58600  0.31300  0.48500  1.0000
  S   S3        1.0  0.41400  0.68700  0.51500  1.0000
  S   S4        1.0  0.10100  0.48500  0.68700  1.0000
