data_image0
_chemical_formula_structural       Cl12ReTe2
_chemical_formula_sum              "Cl12 Re1 Te2"
_cell_length_a       6.56745
_cell_length_b       7.0187
_cell_length_c       10.7865
_cell_angle_alpha    70.5434
_cell_angle_beta     104.759
_cell_angle_gamma    115.345

_space_group_name_H-M_alt    "P 1"
_space_group_IT_number       1

loop_
  _space_group_symop_operation_xyz
  'x, y, z'

loop_
  _atom_site_type_symbol
  _atom_site_label
  _atom_site_symmetry_multiplicity
  _atom_site_fract_x
  _atom_site_fract_y
  _atom_site_fract_z
  _atom_site_occupancy
  Cl  Cl1       1.0  0.39500  0.20500  0.01190  1.0000
  Cl  Cl2       1.0  0.07470  0.67800  0.10100  1.0000
  Cl  Cl3       1.0  0.00000  0.02710  0.21300  1.0000
  Cl  Cl4       1.0  0.56400  0.43500  0.30400  1.0000
  Cl  Cl5       1.0  0.51800  0.90500  0.35800  1.0000
  Cl  Cl6       1.0  0.03020  0.30500  0.42800  1.0000
  Cl  Cl7       1.0  0.97000  0.69500  0.57200  1.0000
  Cl  Cl8       1.0  0.48200  0.09450  0.64200  1.0000
  Cl  Cl9       1.0  0.43600  0.56500  0.69600  1.0000
  Cl  Cl10      1.0  0.00044  0.97300  0.78700  1.0000
  Cl  Cl11      1.0  0.92500  0.32200  0.89900  1.0000
  Cl  Cl12      1.0  0.60500  0.79500  0.98800  1.0000
  Re  Re1       1.0  0.00000  0.00000  0.00000  1.0000
  Te  Te1       1.0  0.74400  0.25500  0.24600  1.0000
  Te  Te2       1.0  0.25600  0.74500  0.75400  1.0000
