data_image0
_chemical_formula_structural       C6FeMn2N6
_chemical_formula_sum              "C6 Fe1 Mn2 N6"
_cell_length_a       5.96819
_cell_length_b       5.96819
_cell_length_c       6.37973
_cell_angle_alpha    90
_cell_angle_beta     90.0001
_cell_angle_gamma    120

_space_group_name_H-M_alt    "P 1"
_space_group_IT_number       1

loop_
  _space_group_symop_operation_xyz
  'x, y, z'

loop_
  _atom_site_type_symbol
  _atom_site_label
  _atom_site_symmetry_multiplicity
  _atom_site_fract_x
  _atom_site_fract_y
  _atom_site_fract_z
  _atom_site_occupancy
  C   C1        1.0  0.00238  0.24600  0.17900  1.0000
  C   C2        1.0  0.24300  0.99800  0.17900  1.0000
  C   C3        1.0  0.75400  0.75700  0.17900  1.0000
  C   C4        1.0  0.99800  0.75400  0.82100  1.0000
  C   C5        1.0  0.24600  0.24300  0.82100  1.0000
  C   C6        1.0  0.75700  0.00238  0.82100  1.0000
  Fe  Fe1       1.0  0.00000  0.00000  0.00000  1.0000
  Mn  Mn1       1.0  0.66700  0.33300  0.49900  1.0000
  Mn  Mn2       1.0  0.33300  0.66700  0.50100  1.0000
  N   N1        1.0  0.00004  0.38600  0.30900  1.0000
  N   N2        1.0  0.38600  0.00000  0.30900  1.0000
  N   N3        1.0  0.61400  0.61400  0.30900  1.0000
  N   N4        1.0  0.00000  0.61400  0.69100  1.0000
  N   N5        1.0  0.38600  0.38600  0.69100  1.0000
  N   N6        1.0  0.61400  0.00004  0.69100  1.0000
