data_image0
_chemical_formula_structural       Ca9Pd6
_chemical_formula_sum              "Ca9 Pd6"
_cell_length_a       7.63729
_cell_length_b       7.63729
_cell_length_c       7.63729
_cell_angle_alpha    108.5
_cell_angle_beta     71.5001
_cell_angle_gamma    108.5

_space_group_name_H-M_alt    "P 1"
_space_group_IT_number       1

loop_
  _space_group_symop_operation_xyz
  'x, y, z'

loop_
  _atom_site_type_symbol
  _atom_site_label
  _atom_site_symmetry_multiplicity
  _atom_site_fract_x
  _atom_site_fract_y
  _atom_site_fract_z
  _atom_site_occupancy
  Ca  Ca1       1.0  0.00000  0.00000  0.00000  1.0000
  Ca  Ca2       1.0  0.39700  0.33400  0.15800  1.0000
  Ca  Ca3       1.0  0.20400  0.79600  0.20400  1.0000
  Ca  Ca4       1.0  0.84200  0.39700  0.33400  1.0000
  Ca  Ca5       1.0  0.66600  0.84200  0.39700  1.0000
  Ca  Ca6       1.0  0.33400  0.15800  0.60300  1.0000
  Ca  Ca7       1.0  0.15800  0.60300  0.66600  1.0000
  Ca  Ca8       1.0  0.79600  0.20400  0.79600  1.0000
  Ca  Ca9       1.0  0.60300  0.66600  0.84200  1.0000
  Pd  Pd1       1.0  0.84300  0.58900  0.04420  1.0000
  Pd  Pd2       1.0  0.58900  0.04420  0.15700  1.0000
  Pd  Pd3       1.0  0.04420  0.15700  0.41100  1.0000
  Pd  Pd4       1.0  0.95600  0.84300  0.58900  1.0000
  Pd  Pd5       1.0  0.41100  0.95600  0.84300  1.0000
  Pd  Pd6       1.0  0.15700  0.41100  0.95600  1.0000
