data_image0
_chemical_formula_structural       NiO10Te2V2
_chemical_formula_sum              "Ni1 O10 Te2 V2"
_cell_length_a       4.75591
_cell_length_b       6.31651
_cell_length_c       6.46069
_cell_angle_alpha    84.8063
_cell_angle_beta     69.01
_cell_angle_gamma    72.6743

_space_group_name_H-M_alt    "P 1"
_space_group_IT_number       1

loop_
  _space_group_symop_operation_xyz
  'x, y, z'

loop_
  _atom_site_type_symbol
  _atom_site_label
  _atom_site_symmetry_multiplicity
  _atom_site_fract_x
  _atom_site_fract_y
  _atom_site_fract_z
  _atom_site_occupancy
  Ni  Ni1       1.0  0.00000  0.50000  0.00000  1.0000
  O   O1        1.0  0.70700  0.83300  0.03850  1.0000
  O   O2        1.0  0.65700  0.33800  0.13400  1.0000
  O   O3        1.0  0.03070  0.53400  0.29600  1.0000
  O   O4        1.0  0.26700  0.11300  0.41600  1.0000
  O   O5        1.0  0.39800  0.67600  0.42500  1.0000
  O   O6        1.0  0.60200  0.32400  0.57500  1.0000
  O   O7        1.0  0.73300  0.88700  0.58400  1.0000
  O   O8        1.0  0.96900  0.46600  0.70400  1.0000
  O   O9        1.0  0.34300  0.66200  0.86600  1.0000
  O   O10       1.0  0.29300  0.16700  0.96100  1.0000
  Te  Te1       1.0  0.26300  0.90600  0.21400  1.0000
  Te  Te2       1.0  0.73700  0.09420  0.78600  1.0000
  V   V1        1.0  0.35000  0.38500  0.37900  1.0000
  V   V2        1.0  0.65000  0.61500  0.62100  1.0000
