data_image0
_chemical_formula_structural       B12Si3
_chemical_formula_sum              "B12 Si3"
_cell_length_a       5.46644
_cell_length_b       5.46644
_cell_length_c       5.46644
_cell_angle_alpha    110.915
_cell_angle_beta     69.0847
_cell_angle_gamma    110.915

_space_group_name_H-M_alt    "P 1"
_space_group_IT_number       1

loop_
  _space_group_symop_operation_xyz
  'x, y, z'

loop_
  _atom_site_type_symbol
  _atom_site_label
  _atom_site_symmetry_multiplicity
  _atom_site_fract_x
  _atom_site_fract_y
  _atom_site_fract_z
  _atom_site_occupancy
  B   B1        1.0  0.01440  0.67700  0.01440  1.0000
  B   B2        1.0  0.32300  0.98600  0.01440  1.0000
  B   B3        1.0  0.17800  0.27500  0.17800  1.0000
  B   B4        1.0  0.72500  0.82200  0.17800  1.0000
  B   B5        1.0  0.82200  0.17800  0.27500  1.0000
  B   B6        1.0  0.01440  0.98600  0.32300  1.0000
  B   B7        1.0  0.98600  0.01440  0.67700  1.0000
  B   B8        1.0  0.17800  0.82200  0.72500  1.0000
  B   B9        1.0  0.82200  0.72500  0.82200  1.0000
  B   B10       1.0  0.27500  0.17800  0.82200  1.0000
  B   B11       1.0  0.98600  0.32300  0.98600  1.0000
  B   B12       1.0  0.67700  0.01440  0.98600  1.0000
  Si  Si1       1.0  0.32400  0.67600  0.32400  1.0000
  Si  Si2       1.0  0.50000  0.50000  0.50000  1.0000
  Si  Si3       1.0  0.67600  0.32400  0.67600  1.0000
