data_image0
_chemical_formula_structural       DyMo6Se8
_chemical_formula_sum              "Dy1 Mo6 Se8"
_cell_length_a       6.74657
_cell_length_b       6.74657
_cell_length_c       6.74657
_cell_angle_alpha    90.9531
_cell_angle_beta     90.9531
_cell_angle_gamma    89.0469

_space_group_name_H-M_alt    "P 1"
_space_group_IT_number       1

loop_
  _space_group_symop_operation_xyz
  'x, y, z'

loop_
  _atom_site_type_symbol
  _atom_site_label
  _atom_site_symmetry_multiplicity
  _atom_site_fract_x
  _atom_site_fract_y
  _atom_site_fract_z
  _atom_site_occupancy
  Dy  Dy1       1.0  0.00000  0.00000  0.00000  1.0000
  Mo  Mo1       1.0  0.44100  0.57700  0.23200  1.0000
  Mo  Mo2       1.0  0.76800  0.44100  0.42300  1.0000
  Mo  Mo3       1.0  0.42300  0.23200  0.44100  1.0000
  Mo  Mo4       1.0  0.57700  0.76800  0.55900  1.0000
  Mo  Mo5       1.0  0.23200  0.55900  0.57700  1.0000
  Mo  Mo6       1.0  0.55900  0.42300  0.76800  1.0000
  Se  Se1       1.0  0.63000  0.24200  0.12200  1.0000
  Se  Se2       1.0  0.76300  0.76300  0.23700  1.0000
  Se  Se3       1.0  0.12200  0.37000  0.24200  1.0000
  Se  Se4       1.0  0.24200  0.87800  0.37000  1.0000
  Se  Se5       1.0  0.75800  0.12200  0.63000  1.0000
  Se  Se6       1.0  0.87800  0.63000  0.75800  1.0000
  Se  Se7       1.0  0.23700  0.23700  0.76300  1.0000
  Se  Se8       1.0  0.37000  0.75800  0.87800  1.0000
