data_image0
_chemical_formula_structural       F11NaNiZr2
_chemical_formula_sum              "F11 Na1 Ni1 Zr2"
_cell_length_a       5.53794
_cell_length_b       5.53794
_cell_length_c       7.6736
_cell_angle_alpha    111.061
_cell_angle_beta     68.9386
_cell_angle_gamma    107.263

_space_group_name_H-M_alt    "P 1"
_space_group_IT_number       1

loop_
  _space_group_symop_operation_xyz
  'x, y, z'

loop_
  _atom_site_type_symbol
  _atom_site_label
  _atom_site_symmetry_multiplicity
  _atom_site_fract_x
  _atom_site_fract_y
  _atom_site_fract_z
  _atom_site_occupancy
  F   F1        1.0  0.32300  0.32300  0.00000  1.0000
  F   F2        1.0  0.67700  0.67700  0.00000  1.0000
  F   F3        1.0  0.73800  0.26200  0.09910  1.0000
  F   F4        1.0  0.16900  0.22600  0.31700  1.0000
  F   F5        1.0  0.77400  0.83100  0.31700  1.0000
  F   F6        1.0  0.24000  0.76000  0.33500  1.0000
  F   F7        1.0  0.50000  0.50000  0.50000  1.0000
  F   F8        1.0  0.76000  0.24000  0.66500  1.0000
  F   F9        1.0  0.22600  0.16900  0.68300  1.0000
  F   F10       1.0  0.83100  0.77400  0.68300  1.0000
  F   F11       1.0  0.26200  0.73800  0.90100  1.0000
  Na  Na1       1.0  0.00000  0.00000  0.00000  1.0000
  Ni  Ni1       1.0  0.00000  0.00000  0.50000  1.0000
  Zr  Zr1       1.0  0.49200  0.50800  0.23600  1.0000
  Zr  Zr2       1.0  0.50800  0.49200  0.76400  1.0000
