data_image0
_chemical_formula_structural       AgBi2F12
_chemical_formula_sum              "Ag1 Bi2 F12"
_cell_length_a       4.81326
_cell_length_b       5.31937
_cell_length_c       8.4574
_cell_angle_alpha    76.4011
_cell_angle_beta     89.9098
_cell_angle_gamma    65.0115

_space_group_name_H-M_alt    "P 1"
_space_group_IT_number       1

loop_
  _space_group_symop_operation_xyz
  'x, y, z'

loop_
  _atom_site_type_symbol
  _atom_site_label
  _atom_site_symmetry_multiplicity
  _atom_site_fract_x
  _atom_site_fract_y
  _atom_site_fract_z
  _atom_site_occupancy
  Ag  Ag1       1.0  0.50000  0.50000  0.50000  1.0000
  Bi  Bi1       1.0  0.71800  0.03620  0.20600  1.0000
  Bi  Bi2       1.0  0.28200  0.96400  0.79400  1.0000
  F   F1        1.0  0.81700  0.28200  0.02050  1.0000
  F   F2        1.0  0.66400  0.75000  0.10700  1.0000
  F   F3        1.0  0.27600  0.27500  0.22200  1.0000
  F   F4        1.0  0.17700  0.79100  0.26800  1.0000
  F   F5        1.0  0.80800  0.25200  0.36600  1.0000
  F   F6        1.0  0.71700  0.77900  0.43700  1.0000
  F   F7        1.0  0.28300  0.22100  0.56300  1.0000
  F   F8        1.0  0.19200  0.74800  0.63400  1.0000
  F   F9        1.0  0.82300  0.20900  0.73200  1.0000
  F   F10       1.0  0.72400  0.72500  0.77800  1.0000
  F   F11       1.0  0.33600  0.25000  0.89300  1.0000
  F   F12       1.0  0.18300  0.71800  0.98000  1.0000
