data_image0
_chemical_formula_structural       AgMo6Se8
_chemical_formula_sum              "Ag1 Mo6 Se8"
_cell_length_a       6.79847
_cell_length_b       6.79847
_cell_length_c       6.79847
_cell_angle_alpha    91.7217
_cell_angle_beta     91.7217
_cell_angle_gamma    91.7217

_space_group_name_H-M_alt    "P 1"
_space_group_IT_number       1

loop_
  _space_group_symop_operation_xyz
  'x, y, z'

loop_
  _atom_site_type_symbol
  _atom_site_label
  _atom_site_symmetry_multiplicity
  _atom_site_fract_x
  _atom_site_fract_y
  _atom_site_fract_z
  _atom_site_occupancy
  Ag  Ag1       1.0  0.00000  0.00000  0.00000  1.0000
  Mo  Mo1       1.0  0.41600  0.55100  0.23200  1.0000
  Mo  Mo2       1.0  0.55100  0.23200  0.41600  1.0000
  Mo  Mo3       1.0  0.76800  0.58400  0.44900  1.0000
  Mo  Mo4       1.0  0.23200  0.41600  0.55100  1.0000
  Mo  Mo5       1.0  0.44900  0.76800  0.58400  1.0000
  Mo  Mo6       1.0  0.58400  0.44900  0.76800  1.0000
  Se  Se1       1.0  0.73900  0.37900  0.12600  1.0000
  Se  Se2       1.0  0.22400  0.22400  0.22400  1.0000
  Se  Se3       1.0  0.62100  0.87400  0.26100  1.0000
  Se  Se4       1.0  0.12600  0.73900  0.37900  1.0000
  Se  Se5       1.0  0.87400  0.26100  0.62100  1.0000
  Se  Se6       1.0  0.37900  0.12600  0.73900  1.0000
  Se  Se7       1.0  0.77600  0.77600  0.77600  1.0000
  Se  Se8       1.0  0.26100  0.62100  0.87400  1.0000
