data_image0
_chemical_formula_structural       B12BeC2
_chemical_formula_sum              "B12 Be1 C2"
_cell_length_a       5.23573
_cell_length_b       5.23573
_cell_length_c       5.23573
_cell_angle_alpha    64.6633
_cell_angle_beta     115.337
_cell_angle_gamma    115.337

_space_group_name_H-M_alt    "P 1"
_space_group_IT_number       1

loop_
  _space_group_symop_operation_xyz
  'x, y, z'

loop_
  _atom_site_type_symbol
  _atom_site_label
  _atom_site_symmetry_multiplicity
  _atom_site_fract_x
  _atom_site_fract_y
  _atom_site_fract_z
  _atom_site_occupancy
  B   B1        1.0  0.66800  0.00319  0.00319  1.0000
  B   B2        1.0  0.99700  0.33200  0.00319  1.0000
  B   B3        1.0  0.32100  0.19700  0.19700  1.0000
  B   B4        1.0  0.80300  0.67900  0.19700  1.0000
  B   B5        1.0  0.19700  0.80300  0.32100  1.0000
  B   B6        1.0  0.99700  0.00319  0.33200  1.0000
  B   B7        1.0  0.00319  0.99700  0.66800  1.0000
  B   B8        1.0  0.80300  0.19700  0.67900  1.0000
  B   B9        1.0  0.19700  0.32100  0.80300  1.0000
  B   B10       1.0  0.67900  0.80300  0.80300  1.0000
  B   B11       1.0  0.00319  0.66800  0.99700  1.0000
  B   B12       1.0  0.33200  0.99700  0.99700  1.0000
  Be  Be1       1.0  0.50000  0.50000  0.50000  1.0000
  C   C1        1.0  0.63500  0.36500  0.36500  1.0000
  C   C2        1.0  0.36500  0.63500  0.63500  1.0000
