data_image0
_chemical_formula_structural       C6Cd2N6Os
_chemical_formula_sum              "C6 Cd2 N6 Os1"
_cell_length_a       6.3522
_cell_length_b       6.35215
_cell_length_c       6.56784
_cell_angle_alpha    90.0019
_cell_angle_beta     90.0011
_cell_angle_gamma    119.999

_space_group_name_H-M_alt    "P 1"
_space_group_IT_number       1

loop_
  _space_group_symop_operation_xyz
  'x, y, z'

loop_
  _atom_site_type_symbol
  _atom_site_label
  _atom_site_symmetry_multiplicity
  _atom_site_fract_x
  _atom_site_fract_y
  _atom_site_fract_z
  _atom_site_occupancy
  C   C1        1.0  0.74600  0.74900  0.18200  1.0000
  C   C2        1.0  0.25100  0.99600  0.18200  1.0000
  C   C3        1.0  0.00362  0.25400  0.18200  1.0000
  C   C4        1.0  0.99600  0.74600  0.81800  1.0000
  C   C5        1.0  0.74900  0.00361  0.81800  1.0000
  C   C6        1.0  0.25400  0.25100  0.81800  1.0000
  Cd  Cd1       1.0  0.66700  0.33300  0.49800  1.0000
  Cd  Cd2       1.0  0.33300  0.66700  0.50200  1.0000
  N   N1        1.0  0.00183  0.39700  0.29800  1.0000
  N   N2        1.0  0.39500  0.99800  0.29800  1.0000
  N   N3        1.0  0.60300  0.60500  0.29800  1.0000
  N   N4        1.0  0.39700  0.39500  0.70200  1.0000
  N   N5        1.0  0.60500  0.00183  0.70200  1.0000
  N   N6        1.0  0.99800  0.60300  0.70200  1.0000
  Os  Os1       1.0  0.00000  0.00000  0.00000  1.0000
