data_image0
_chemical_formula_structural       Eu9Pt6
_chemical_formula_sum              "Eu9 Pt6"
_cell_length_a       7.72672
_cell_length_b       7.72672
_cell_length_c       7.72672
_cell_angle_alpha    109.981
_cell_angle_beta     70.0192
_cell_angle_gamma    109.981

_space_group_name_H-M_alt    "P 1"
_space_group_IT_number       1

loop_
  _space_group_symop_operation_xyz
  'x, y, z'

loop_
  _atom_site_type_symbol
  _atom_site_label
  _atom_site_symmetry_multiplicity
  _atom_site_fract_x
  _atom_site_fract_y
  _atom_site_fract_z
  _atom_site_occupancy
  Eu  Eu1       1.0  0.00000  0.00000  0.00000  1.0000
  Eu  Eu2       1.0  0.40300  0.32800  0.14800  1.0000
  Eu  Eu3       1.0  0.19600  0.80400  0.19600  1.0000
  Eu  Eu4       1.0  0.85200  0.40300  0.32800  1.0000
  Eu  Eu5       1.0  0.67200  0.85200  0.40300  1.0000
  Eu  Eu6       1.0  0.32800  0.14800  0.59700  1.0000
  Eu  Eu7       1.0  0.14800  0.59700  0.67200  1.0000
  Eu  Eu8       1.0  0.80400  0.19600  0.80400  1.0000
  Eu  Eu9       1.0  0.59700  0.67200  0.85200  1.0000
  Pt  Pt1       1.0  0.83300  0.59000  0.04620  1.0000
  Pt  Pt2       1.0  0.59000  0.04620  0.16700  1.0000
  Pt  Pt3       1.0  0.04620  0.16700  0.41000  1.0000
  Pt  Pt4       1.0  0.95400  0.83300  0.59000  1.0000
  Pt  Pt5       1.0  0.41000  0.95400  0.83300  1.0000
  Pt  Pt6       1.0  0.16700  0.41000  0.95400  1.0000
