data_image0
_chemical_formula_structural       Ba4In4
_chemical_formula_sum              "Ba4 In4"
_cell_length_a       5.63345
_cell_length_b       7.52754
_cell_length_c       7.52754
_cell_angle_alpha    113.665
_cell_angle_beta     90
_cell_angle_gamma    90

_space_group_name_H-M_alt    "P 1"
_space_group_IT_number       1

loop_
  _space_group_symop_operation_xyz
  'x, y, z'

loop_
  _atom_site_type_symbol
  _atom_site_label
  _atom_site_symmetry_multiplicity
  _atom_site_fract_x
  _atom_site_fract_y
  _atom_site_fract_z
  _atom_site_occupancy
  Ba  Ba1       1.0  0.75000  0.87400  0.12600  1.0000
  Ba  Ba2       1.0  0.25000  0.67900  0.32100  1.0000
  Ba  Ba3       1.0  0.75000  0.32100  0.67900  1.0000
  Ba  Ba4       1.0  0.25000  0.12600  0.87400  1.0000
  In  In1       1.0  0.75000  0.37900  0.22300  1.0000
  In  In2       1.0  0.25000  0.22300  0.37900  1.0000
  In  In3       1.0  0.75000  0.77700  0.62100  1.0000
  In  In4       1.0  0.25000  0.62100  0.77700  1.0000
