data_image0
_chemical_formula_structural       Ce9Pt6
_chemical_formula_sum              "Ce9 Pt6"
_cell_length_a       7.80317
_cell_length_b       7.80317
_cell_length_c       7.80317
_cell_angle_alpha    71.4385
_cell_angle_beta     108.562
_cell_angle_gamma    108.562

_space_group_name_H-M_alt    "P 1"
_space_group_IT_number       1

loop_
  _space_group_symop_operation_xyz
  'x, y, z'

loop_
  _atom_site_type_symbol
  _atom_site_label
  _atom_site_symmetry_multiplicity
  _atom_site_fract_x
  _atom_site_fract_y
  _atom_site_fract_z
  _atom_site_occupancy
  Ce  Ce1       1.0  0.00000  0.00000  0.00000  1.0000
  Ce  Ce2       1.0  0.60400  0.66400  0.16400  1.0000
  Ce  Ce3       1.0  0.79900  0.20100  0.20100  1.0000
  Ce  Ce4       1.0  0.16400  0.60400  0.33600  1.0000
  Ce  Ce5       1.0  0.33600  0.16400  0.39600  1.0000
  Ce  Ce6       1.0  0.66400  0.83600  0.60400  1.0000
  Ce  Ce7       1.0  0.83600  0.39600  0.66400  1.0000
  Ce  Ce8       1.0  0.20100  0.79900  0.79900  1.0000
  Ce  Ce9       1.0  0.39600  0.33600  0.83600  1.0000
  Pt  Pt1       1.0  0.16300  0.41200  0.04180  1.0000
  Pt  Pt2       1.0  0.41200  0.95800  0.16300  1.0000
  Pt  Pt3       1.0  0.95800  0.83700  0.41200  1.0000
  Pt  Pt4       1.0  0.04180  0.16300  0.58800  1.0000
  Pt  Pt5       1.0  0.58800  0.04180  0.83700  1.0000
  Pt  Pt6       1.0  0.83700  0.58800  0.95800  1.0000
