data_image0
_chemical_formula_structural       AgMo6S8
_chemical_formula_sum              "Ag1 Mo6 S8"
_cell_length_a       6.51035
_cell_length_b       6.51035
_cell_length_c       6.51035
_cell_angle_alpha    92.0992
_cell_angle_beta     92.0992
_cell_angle_gamma    92.0992

_space_group_name_H-M_alt    "P 1"
_space_group_IT_number       1

loop_
  _space_group_symop_operation_xyz
  'x, y, z'

loop_
  _atom_site_type_symbol
  _atom_site_label
  _atom_site_symmetry_multiplicity
  _atom_site_fract_x
  _atom_site_fract_y
  _atom_site_fract_z
  _atom_site_occupancy
  Ag  Ag1       1.0  0.00000  0.00000  0.00000  1.0000
  Mo  Mo1       1.0  0.40800  0.55200  0.21600  1.0000
  Mo  Mo2       1.0  0.55200  0.21600  0.40800  1.0000
  Mo  Mo3       1.0  0.78400  0.59200  0.44800  1.0000
  Mo  Mo4       1.0  0.21600  0.40800  0.55200  1.0000
  Mo  Mo5       1.0  0.44800  0.78400  0.59200  1.0000
  Mo  Mo6       1.0  0.59200  0.44800  0.78400  1.0000
  S   S1        1.0  0.73000  0.38300  0.13200  1.0000
  S   S2        1.0  0.22300  0.22300  0.22300  1.0000
  S   S3        1.0  0.61700  0.86800  0.27000  1.0000
  S   S4        1.0  0.13200  0.73000  0.38300  1.0000
  S   S5        1.0  0.86800  0.27000  0.61700  1.0000
  S   S6        1.0  0.38300  0.13200  0.73000  1.0000
  S   S7        1.0  0.77700  0.77700  0.77700  1.0000
  S   S8        1.0  0.27000  0.61700  0.86800  1.0000
