data_image0
_chemical_formula_structural       Li2Mo2O10U
_chemical_formula_sum              "Li2 Mo2 O10 U1"
_cell_length_a       5.27641
_cell_length_b       5.76899
_cell_length_c       8.23692
_cell_angle_alpha    107.969
_cell_angle_beta     101.327
_cell_angle_gamma    104.158

_space_group_name_H-M_alt    "P 1"
_space_group_IT_number       1

loop_
  _space_group_symop_operation_xyz
  'x, y, z'

loop_
  _atom_site_type_symbol
  _atom_site_label
  _atom_site_symmetry_multiplicity
  _atom_site_fract_x
  _atom_site_fract_y
  _atom_site_fract_z
  _atom_site_occupancy
  Li  Li1       1.0  0.47600  0.21200  0.42800  1.0000
  Li  Li2       1.0  0.52400  0.78800  0.57200  1.0000
  Mo  Mo1       1.0  0.91200  0.65800  0.30400  1.0000
  Mo  Mo2       1.0  0.08850  0.34200  0.69600  1.0000
  O   O1        1.0  0.76700  0.79100  0.15000  1.0000
  O   O2        1.0  0.31700  0.05090  0.15900  1.0000
  O   O3        1.0  0.98500  0.38200  0.17800  1.0000
  O   O4        1.0  0.68600  0.55900  0.42000  1.0000
  O   O5        1.0  0.22200  0.88800  0.46000  1.0000
  O   O6        1.0  0.77800  0.11200  0.54000  1.0000
  O   O7        1.0  0.31400  0.44100  0.58000  1.0000
  O   O8        1.0  0.01460  0.61800  0.82200  1.0000
  O   O9        1.0  0.68300  0.94900  0.84100  1.0000
  O   O10       1.0  0.23300  0.20900  0.85000  1.0000
  U   U1        1.0  0.00000  0.00000  0.00000  1.0000
