data_image0
_chemical_formula_structural       Au6Eu9
_chemical_formula_sum              "Au6 Eu9"
_cell_length_a       8.01576
_cell_length_b       8.01576
_cell_length_c       8.01576
_cell_angle_alpha    109.702
_cell_angle_beta     70.2984
_cell_angle_gamma    109.702

_space_group_name_H-M_alt    "P 1"
_space_group_IT_number       1

loop_
  _space_group_symop_operation_xyz
  'x, y, z'

loop_
  _atom_site_type_symbol
  _atom_site_label
  _atom_site_symmetry_multiplicity
  _atom_site_fract_x
  _atom_site_fract_y
  _atom_site_fract_z
  _atom_site_occupancy
  Au  Au1       1.0  0.83100  0.59100  0.04760  1.0000
  Au  Au2       1.0  0.59100  0.04760  0.16900  1.0000
  Au  Au3       1.0  0.04760  0.16900  0.40900  1.0000
  Au  Au4       1.0  0.95200  0.83100  0.59100  1.0000
  Au  Au5       1.0  0.40900  0.95200  0.83100  1.0000
  Au  Au6       1.0  0.16900  0.40900  0.95200  1.0000
  Eu  Eu1       1.0  0.00000  0.00000  0.00000  1.0000
  Eu  Eu2       1.0  0.40300  0.33100  0.15000  1.0000
  Eu  Eu3       1.0  0.19600  0.80400  0.19600  1.0000
  Eu  Eu4       1.0  0.85000  0.40300  0.33100  1.0000
  Eu  Eu5       1.0  0.66900  0.85000  0.40300  1.0000
  Eu  Eu6       1.0  0.33100  0.15000  0.59700  1.0000
  Eu  Eu7       1.0  0.15000  0.59700  0.66900  1.0000
  Eu  Eu8       1.0  0.80400  0.19600  0.80400  1.0000
  Eu  Eu9       1.0  0.59700  0.66900  0.85000  1.0000
