data_image0
_chemical_formula_structural       Mo6NdS8
_chemical_formula_sum              "Mo6 Nd1 S8"
_cell_length_a       6.52273
_cell_length_b       6.52273
_cell_length_c       6.52273
_cell_angle_alpha    91.1096
_cell_angle_beta     91.1096
_cell_angle_gamma    88.8904

_space_group_name_H-M_alt    "P 1"
_space_group_IT_number       1

loop_
  _space_group_symop_operation_xyz
  'x, y, z'

loop_
  _atom_site_type_symbol
  _atom_site_label
  _atom_site_symmetry_multiplicity
  _atom_site_fract_x
  _atom_site_fract_y
  _atom_site_fract_z
  _atom_site_occupancy
  Mo  Mo1       1.0  0.43800  0.58000  0.22500  1.0000
  Mo  Mo2       1.0  0.77500  0.43800  0.42000  1.0000
  Mo  Mo3       1.0  0.42000  0.22500  0.43800  1.0000
  Mo  Mo4       1.0  0.58000  0.77500  0.56200  1.0000
  Mo  Mo5       1.0  0.22500  0.56200  0.58000  1.0000
  Mo  Mo6       1.0  0.56200  0.42000  0.77500  1.0000
  Nd  Nd1       1.0  0.00000  0.00000  0.00000  1.0000
  S   S1        1.0  0.62600  0.24900  0.12700  1.0000
  S   S2        1.0  0.75700  0.75700  0.24300  1.0000
  S   S3        1.0  0.12700  0.37400  0.24900  1.0000
  S   S4        1.0  0.24900  0.87300  0.37400  1.0000
  S   S5        1.0  0.75100  0.12700  0.62600  1.0000
  S   S6        1.0  0.87300  0.62600  0.75100  1.0000
  S   S7        1.0  0.24300  0.24300  0.75700  1.0000
  S   S8        1.0  0.37400  0.75100  0.87300  1.0000
