data_image0
_chemical_formula_structural       Cu6O8Pb
_chemical_formula_sum              "Cu6 O8 Pb1"
_cell_length_a       5.88288
_cell_length_b       5.88288
_cell_length_c       5.88288
_cell_angle_alpha    120
_cell_angle_beta     90
_cell_angle_gamma    120

_space_group_name_H-M_alt    "P 1"
_space_group_IT_number       1

loop_
  _space_group_symop_operation_xyz
  'x, y, z'

loop_
  _atom_site_type_symbol
  _atom_site_label
  _atom_site_symmetry_multiplicity
  _atom_site_fract_x
  _atom_site_fract_y
  _atom_site_fract_z
  _atom_site_occupancy
  Cu  Cu1       1.0  0.50000  0.00000  0.00000  1.0000
  Cu  Cu2       1.0  0.00000  0.50000  0.00000  1.0000
  Cu  Cu3       1.0  0.50000  0.50000  0.00000  1.0000
  Cu  Cu4       1.0  0.00000  0.00000  0.50000  1.0000
  Cu  Cu5       1.0  0.00000  0.50000  0.50000  1.0000
  Cu  Cu6       1.0  0.50000  0.50000  0.50000  1.0000
  O   O1        1.0  0.75000  0.50000  0.25000  1.0000
  O   O2        1.0  0.74100  0.00000  0.25900  1.0000
  O   O3        1.0  0.25900  0.00000  0.25900  1.0000
  O   O4        1.0  0.25900  0.51800  0.25900  1.0000
  O   O5        1.0  0.25900  0.00000  0.74100  1.0000
  O   O6        1.0  0.74100  0.00000  0.74100  1.0000
  O   O7        1.0  0.74100  0.48200  0.74100  1.0000
  O   O8        1.0  0.25000  0.50000  0.75000  1.0000
  Pb  Pb1       1.0  0.00000  0.00000  0.00000  1.0000
