data_image0
_chemical_formula_structural       C3N6Tl6
_chemical_formula_sum              "C3 N6 Tl6"
_cell_length_a       5.3866
_cell_length_b       6.62059
_cell_length_c       9.66797
_cell_angle_alpha    98.2152
_cell_angle_beta     98.6521
_cell_angle_gamma    113.471

_space_group_name_H-M_alt    "P 1"
_space_group_IT_number       1

loop_
  _space_group_symop_operation_xyz
  'x, y, z'

loop_
  _atom_site_type_symbol
  _atom_site_label
  _atom_site_symmetry_multiplicity
  _atom_site_fract_x
  _atom_site_fract_y
  _atom_site_fract_z
  _atom_site_occupancy
  C   C1        1.0  0.50000  0.50000  0.00000  1.0000
  C   C2        1.0  0.22900  0.76600  0.36000  1.0000
  C   C3        1.0  0.77100  0.23400  0.64000  1.0000
  N   N1        1.0  0.71500  0.50700  0.07250  1.0000
  N   N2        1.0  0.40100  0.74400  0.29500  1.0000
  N   N3        1.0  0.04620  0.78700  0.41700  1.0000
  N   N4        1.0  0.95400  0.21300  0.58300  1.0000
  N   N5        1.0  0.59900  0.25600  0.70500  1.0000
  N   N6        1.0  0.28500  0.49300  0.92800  1.0000
  Tl  Tl1       1.0  0.17900  0.81700  0.04600  1.0000
  Tl  Tl2       1.0  0.88200  0.06920  0.31700  1.0000
  Tl  Tl3       1.0  0.58000  0.44300  0.31900  1.0000
  Tl  Tl4       1.0  0.42000  0.55700  0.68100  1.0000
  Tl  Tl5       1.0  0.11800  0.93100  0.68300  1.0000
  Tl  Tl6       1.0  0.82100  0.18300  0.95400  1.0000
