data_image0
_chemical_formula_structural       Cd2F10Mn2
_chemical_formula_sum              "Cd2 F10 Mn2"
_cell_length_a       5.2033
_cell_length_b       5.2033
_cell_length_c       7.59357
_cell_angle_alpha    97.0893
_cell_angle_beta     109.73
_cell_angle_gamma    109.101

_space_group_name_H-M_alt    "P 1"
_space_group_IT_number       1

loop_
  _space_group_symop_operation_xyz
  'x, y, z'

loop_
  _atom_site_type_symbol
  _atom_site_label
  _atom_site_symmetry_multiplicity
  _atom_site_fract_x
  _atom_site_fract_y
  _atom_site_fract_z
  _atom_site_occupancy
  Cd  Cd1       1.0  0.71900  0.46900  0.25000  1.0000
  Cd  Cd2       1.0  0.28100  0.53100  0.75000  1.0000
  F   F1        1.0  0.77800  0.61600  0.00083  1.0000
  F   F2        1.0  0.79600  0.11000  0.12700  1.0000
  F   F3        1.0  0.33100  0.08080  0.25000  1.0000
  F   F4        1.0  0.48300  0.66900  0.37300  1.0000
  F   F5        1.0  0.11500  0.77800  0.49900  1.0000
  F   F6        1.0  0.88500  0.22200  0.50100  1.0000
  F   F7        1.0  0.51700  0.33100  0.62700  1.0000
  F   F8        1.0  0.66900  0.91900  0.75000  1.0000
  F   F9        1.0  0.20400  0.89000  0.87300  1.0000
  F   F10       1.0  0.22200  0.38400  0.99900  1.0000
  Mn  Mn1       1.0  0.00000  0.00000  0.00000  1.0000
  Mn  Mn2       1.0  0.50000  0.00000  0.50000  1.0000
