data_image0
_chemical_formula_structural       F8H4P4
_chemical_formula_sum              "F8 H4 P4"
_cell_length_a       4.01242
_cell_length_b       5.77033
_cell_length_c       7.18068
_cell_angle_alpha    90
_cell_angle_beta     90
_cell_angle_gamma    90

_space_group_name_H-M_alt    "P 1"
_space_group_IT_number       1

loop_
  _space_group_symop_operation_xyz
  'x, y, z'

loop_
  _atom_site_type_symbol
  _atom_site_label
  _atom_site_symmetry_multiplicity
  _atom_site_fract_x
  _atom_site_fract_y
  _atom_site_fract_z
  _atom_site_occupancy
  F   F1        1.0  0.47200  0.92000  0.14700  1.0000
  F   F2        1.0  0.97600  0.63900  0.23900  1.0000
  F   F3        1.0  0.02360  0.13900  0.26100  1.0000
  F   F4        1.0  0.52800  0.42000  0.35300  1.0000
  F   F5        1.0  0.02770  0.08050  0.64700  1.0000
  F   F6        1.0  0.52400  0.36100  0.73900  1.0000
  F   F7        1.0  0.47600  0.86100  0.76100  1.0000
  F   F8        1.0  0.97200  0.58000  0.85300  1.0000
  H   H1        1.0  0.49500  0.55900  0.01890  1.0000
  H   H2        1.0  0.50500  0.05890  0.48100  1.0000
  H   H3        1.0  0.00467  0.44100  0.51900  1.0000
  H   H4        1.0  0.99500  0.94100  0.98100  1.0000
  P   P1        1.0  0.20600  0.10800  0.06290  1.0000
  P   P2        1.0  0.79400  0.60800  0.43700  1.0000
  P   P3        1.0  0.29400  0.89200  0.56300  1.0000
  P   P4        1.0  0.70600  0.39200  0.93700  1.0000
