data_image0
_chemical_formula_structural       AgF11NaZr2
_chemical_formula_sum              "Ag1 F11 Na1 Zr2"
_cell_length_a       7.75408
_cell_length_b       5.63935
_cell_length_c       5.75235
_cell_angle_alpha    106.858
_cell_angle_beta     111.116
_cell_angle_gamma    96.5583

_space_group_name_H-M_alt    "P 1"
_space_group_IT_number       1

loop_
  _space_group_symop_operation_xyz
  'x, y, z'

loop_
  _atom_site_type_symbol
  _atom_site_label
  _atom_site_symmetry_multiplicity
  _atom_site_fract_x
  _atom_site_fract_y
  _atom_site_fract_z
  _atom_site_occupancy
  Ag  Ag1       1.0  0.50000  0.00000  0.50000  1.0000
  F   F1        1.0  0.50000  0.50000  0.00000  1.0000
  F   F2        1.0  0.27900  0.81200  0.06040  1.0000
  F   F3        1.0  0.89600  0.74700  0.15600  1.0000
  F   F4        1.0  0.01200  0.33200  0.33900  1.0000
  F   F5        1.0  0.65600  0.26800  0.40600  1.0000
  F   F6        1.0  0.30300  0.21400  0.49900  1.0000
  F   F7        1.0  0.69700  0.78600  0.50100  1.0000
  F   F8        1.0  0.34400  0.73200  0.59400  1.0000
  F   F9        1.0  0.98800  0.66800  0.66100  1.0000
  F   F10       1.0  0.10400  0.25300  0.84400  1.0000
  F   F11       1.0  0.72100  0.18800  0.94000  1.0000
  Na  Na1       1.0  0.00000  0.00000  0.00000  1.0000
  Zr  Zr1       1.0  0.77300  0.49700  0.26100  1.0000
  Zr  Zr2       1.0  0.22700  0.50300  0.73900  1.0000
