data_image0
_chemical_formula_structural       Ba6N6OOs2
_chemical_formula_sum              "Ba6 N6 O1 Os2"
_cell_length_a       7.42999
_cell_length_b       7.42999
_cell_length_c       7.42999
_cell_angle_alpha    113.939
_cell_angle_beta     66.0607
_cell_angle_gamma    113.939

_space_group_name_H-M_alt    "P 1"
_space_group_IT_number       1

loop_
  _space_group_symop_operation_xyz
  'x, y, z'

loop_
  _atom_site_type_symbol
  _atom_site_label
  _atom_site_symmetry_multiplicity
  _atom_site_fract_x
  _atom_site_fract_y
  _atom_site_fract_z
  _atom_site_occupancy
  Ba  Ba1       1.0  0.33400  0.26200  0.18200  1.0000
  Ba  Ba2       1.0  0.81800  0.33400  0.26200  1.0000
  Ba  Ba3       1.0  0.73800  0.81800  0.33400  1.0000
  Ba  Ba4       1.0  0.26200  0.18200  0.66600  1.0000
  Ba  Ba5       1.0  0.18200  0.66600  0.73800  1.0000
  Ba  Ba6       1.0  0.66600  0.73800  0.81800  1.0000
  N   N1        1.0  0.24400  0.51900  0.02870  1.0000
  N   N2        1.0  0.48100  0.97100  0.24400  1.0000
  N   N3        1.0  0.02870  0.75600  0.48100  1.0000
  N   N4        1.0  0.97100  0.24400  0.51900  1.0000
  N   N5        1.0  0.51900  0.02870  0.75600  1.0000
  N   N6        1.0  0.75600  0.48100  0.97100  1.0000
  O   O1        1.0  0.50000  0.50000  0.50000  1.0000
  Os  Os1       1.0  0.25000  0.75000  0.25000  1.0000
  Os  Os2       1.0  0.75000  0.25000  0.75000  1.0000
