data_image0
_chemical_formula_structural       F8I2Pb5
_chemical_formula_sum              "F8 I2 Pb5"
_cell_length_a       4.24903
_cell_length_b       4.24903
_cell_length_c       18.7893
_cell_angle_alpha    83.5077
_cell_angle_beta     90
_cell_angle_gamma    120

_space_group_name_H-M_alt    "P 1"
_space_group_IT_number       1

loop_
  _space_group_symop_operation_xyz
  'x, y, z'

loop_
  _atom_site_type_symbol
  _atom_site_label
  _atom_site_symmetry_multiplicity
  _atom_site_fract_x
  _atom_site_fract_y
  _atom_site_fract_z
  _atom_site_occupancy
  F   F1        1.0  0.24300  0.48600  0.27100  1.0000
  F   F2        1.0  0.88000  0.75900  0.36100  1.0000
  F   F3        1.0  0.51900  0.03740  0.44400  1.0000
  F   F4        1.0  0.82900  0.65700  0.51400  1.0000
  F   F5        1.0  0.14500  0.29000  0.56500  1.0000
  F   F6        1.0  0.04840  0.09690  0.85500  1.0000
  F   F7        1.0  0.69400  0.38800  0.91800  1.0000
  F   F8        1.0  0.34100  0.68100  0.97800  1.0000
  I   I1        1.0  0.62700  0.25300  0.12000  1.0000
  I   I2        1.0  0.76200  0.52400  0.71300  1.0000
  Pb  Pb1       1.0  0.92000  0.84000  0.24000  1.0000
  Pb  Pb2       1.0  0.19200  0.38300  0.42500  1.0000
  Pb  Pb3       1.0  0.47500  0.94900  0.57600  1.0000
  Pb  Pb4       1.0  0.38900  0.77700  0.83400  1.0000
  Pb  Pb5       1.0  0.00460  0.00920  0.98600  1.0000
