data_image0
_chemical_formula_structural       Al8Gd2Ni2
_chemical_formula_sum              "Al8 Gd2 Ni2"
_cell_length_a       4.07984
_cell_length_b       6.61541
_cell_length_c       8.00905
_cell_angle_alpha    90
_cell_angle_beta     75.2441
_cell_angle_gamma    90

_space_group_name_H-M_alt    "P 1"
_space_group_IT_number       1

loop_
  _space_group_symop_operation_xyz
  'x, y, z'

loop_
  _atom_site_type_symbol
  _atom_site_label
  _atom_site_symmetry_multiplicity
  _atom_site_fract_x
  _atom_site_fract_y
  _atom_site_fract_z
  _atom_site_occupancy
  Al  Al1       1.0  0.50000  0.00000  0.00000  1.0000
  Al  Al2       1.0  0.50000  0.50000  0.00000  1.0000
  Al  Al3       1.0  0.92400  0.25000  0.15300  1.0000
  Al  Al4       1.0  0.31100  0.05280  0.37800  1.0000
  Al  Al5       1.0  0.31100  0.44700  0.37800  1.0000
  Al  Al6       1.0  0.68900  0.55300  0.62200  1.0000
  Al  Al7       1.0  0.68900  0.94700  0.62200  1.0000
  Al  Al8       1.0  0.07650  0.75000  0.84700  1.0000
  Gd  Gd1       1.0  0.88300  0.75000  0.23300  1.0000
  Gd  Gd2       1.0  0.11700  0.25000  0.76700  1.0000
  Ni  Ni1       1.0  0.77400  0.25000  0.45200  1.0000
  Ni  Ni2       1.0  0.22600  0.75000  0.54800  1.0000
