data_image0
_chemical_formula_structural       F11FeNaZr2
_chemical_formula_sum              "F11 Fe1 Na1 Zr2"
_cell_length_a       5.57308
_cell_length_b       5.57308
_cell_length_c       7.72863
_cell_angle_alpha    111.131
_cell_angle_beta     68.869
_cell_angle_gamma    107.171

_space_group_name_H-M_alt    "P 1"
_space_group_IT_number       1

loop_
  _space_group_symop_operation_xyz
  'x, y, z'

loop_
  _atom_site_type_symbol
  _atom_site_label
  _atom_site_symmetry_multiplicity
  _atom_site_fract_x
  _atom_site_fract_y
  _atom_site_fract_z
  _atom_site_occupancy
  F   F1        1.0  0.32500  0.32500  0.00000  1.0000
  F   F2        1.0  0.67500  0.67500  0.00000  1.0000
  F   F3        1.0  0.73900  0.26100  0.09860  1.0000
  F   F4        1.0  0.17000  0.23000  0.31200  1.0000
  F   F5        1.0  0.77000  0.83000  0.31200  1.0000
  F   F6        1.0  0.24100  0.75900  0.33500  1.0000
  F   F7        1.0  0.50000  0.50000  0.50000  1.0000
  F   F8        1.0  0.75900  0.24100  0.66500  1.0000
  F   F9        1.0  0.23000  0.17000  0.68800  1.0000
  F   F10       1.0  0.83000  0.77000  0.68800  1.0000
  F   F11       1.0  0.26100  0.73900  0.90100  1.0000
  Fe  Fe1       1.0  0.00000  0.00000  0.50000  1.0000
  Na  Na1       1.0  0.00000  0.00000  0.00000  1.0000
  Zr  Zr1       1.0  0.49400  0.50600  0.23400  1.0000
  Zr  Zr2       1.0  0.50600  0.49400  0.76600  1.0000
