data_image0
_chemical_formula_structural       Cu2Hf3Se8Tl2
_chemical_formula_sum              "Cu2 Hf3 Se8 Tl2"
_cell_length_a       3.81947
_cell_length_b       7.71209
_cell_length_c       13.3872
_cell_angle_alpha    94.0534
_cell_angle_beta     98.2014
_cell_angle_gamma    104.337

_space_group_name_H-M_alt    "P 1"
_space_group_IT_number       1

loop_
  _space_group_symop_operation_xyz
  'x, y, z'

loop_
  _atom_site_type_symbol
  _atom_site_label
  _atom_site_symmetry_multiplicity
  _atom_site_fract_x
  _atom_site_fract_y
  _atom_site_fract_z
  _atom_site_occupancy
  Cu  Cu1       1.0  0.15300  0.10900  0.19800  1.0000
  Cu  Cu2       1.0  0.84700  0.89100  0.80200  1.0000
  Hf  Hf1       1.0  0.50000  0.00000  0.00000  1.0000
  Hf  Hf2       1.0  0.72200  0.06490  0.37900  1.0000
  Hf  Hf3       1.0  0.27800  0.93500  0.62100  1.0000
  Se  Se1       1.0  0.14700  0.25300  0.04170  1.0000
  Se  Se2       1.0  0.54400  0.89800  0.19000  1.0000
  Se  Se3       1.0  0.33200  0.30900  0.35500  1.0000
  Se  Se4       1.0  0.12300  0.82600  0.42000  1.0000
  Se  Se5       1.0  0.87700  0.17400  0.58000  1.0000
  Se  Se6       1.0  0.66800  0.69100  0.64500  1.0000
  Se  Se7       1.0  0.45600  0.10200  0.81000  1.0000
  Se  Se8       1.0  0.85300  0.74700  0.95800  1.0000
  Tl  Tl1       1.0  0.86500  0.53000  0.20100  1.0000
  Tl  Tl2       1.0  0.13500  0.47000  0.79900  1.0000
