data_image0
_chemical_formula_structural       Au6Cs4S5
_chemical_formula_sum              "Au6 Cs4 S5"
_cell_length_a       10.5632
_cell_length_b       10.5634
_cell_length_c       5.47114
_cell_angle_alpha    90.0007
_cell_angle_beta     89.9997
_cell_angle_gamma    120.001

_space_group_name_H-M_alt    "P 1"
_space_group_IT_number       1

loop_
  _space_group_symop_operation_xyz
  'x, y, z'

loop_
  _atom_site_type_symbol
  _atom_site_label
  _atom_site_symmetry_multiplicity
  _atom_site_fract_x
  _atom_site_fract_y
  _atom_site_fract_z
  _atom_site_occupancy
  Au  Au1       1.0  0.17000  0.45400  0.07750  1.0000
  Au  Au2       1.0  0.83000  0.28400  0.07760  1.0000
  Au  Au3       1.0  0.71600  0.54600  0.07760  1.0000
  Au  Au4       1.0  0.54600  0.71600  0.07760  1.0000
  Au  Au5       1.0  0.28400  0.83000  0.07760  1.0000
  Au  Au6       1.0  0.45400  0.17000  0.07760  1.0000
  Cs  Cs1       1.0  0.59400  0.00000  0.55000  1.0000
  Cs  Cs2       1.0  0.40600  0.40600  0.55000  1.0000
  Cs  Cs3       1.0  0.00000  0.59400  0.55000  1.0000
  Cs  Cs4       1.0  0.00000  1.00000  0.84800  1.0000
  S   S1        1.0  0.24900  0.00000  0.29100  1.0000
  S   S2        1.0  0.75100  0.75100  0.29100  1.0000
  S   S3        1.0  1.00000  0.24900  0.29100  1.0000
  S   S4        1.0  0.66700  0.33300  0.86500  1.0000
  S   S5        1.0  0.33300  0.66700  0.86500  1.0000
