data_image0
_chemical_formula_structural       Au6Ba9
_chemical_formula_sum              "Au6 Ba9"
_cell_length_a       8.67472
_cell_length_b       8.67472
_cell_length_c       8.67472
_cell_angle_alpha    71.4966
_cell_angle_beta     108.503
_cell_angle_gamma    108.503

_space_group_name_H-M_alt    "P 1"
_space_group_IT_number       1

loop_
  _space_group_symop_operation_xyz
  'x, y, z'

loop_
  _atom_site_type_symbol
  _atom_site_label
  _atom_site_symmetry_multiplicity
  _atom_site_fract_x
  _atom_site_fract_y
  _atom_site_fract_z
  _atom_site_occupancy
  Au  Au1       1.0  0.15200  0.40600  0.04150  1.0000
  Au  Au2       1.0  0.40600  0.95800  0.15200  1.0000
  Au  Au3       1.0  0.95800  0.84800  0.40600  1.0000
  Au  Au4       1.0  0.04150  0.15200  0.59400  1.0000
  Au  Au5       1.0  0.59400  0.04150  0.84800  1.0000
  Au  Au6       1.0  0.84800  0.59400  0.95800  1.0000
  Ba  Ba1       1.0  0.00000  0.00000  0.00000  1.0000
  Ba  Ba2       1.0  0.60600  0.66900  0.15800  1.0000
  Ba  Ba3       1.0  0.79700  0.20300  0.20300  1.0000
  Ba  Ba4       1.0  0.15800  0.60600  0.33100  1.0000
  Ba  Ba5       1.0  0.33100  0.15800  0.39400  1.0000
  Ba  Ba6       1.0  0.66900  0.84200  0.60600  1.0000
  Ba  Ba7       1.0  0.84200  0.39400  0.66900  1.0000
  Ba  Ba8       1.0  0.20300  0.79700  0.79700  1.0000
  Ba  Ba9       1.0  0.39400  0.33100  0.84200  1.0000
