data_image0
_chemical_formula_structural       LaMo6Se8
_chemical_formula_sum              "La1 Mo6 Se8"
_cell_length_a       6.81685
_cell_length_b       6.81685
_cell_length_c       6.81685
_cell_angle_alpha    91.4638
_cell_angle_beta     88.5362
_cell_angle_gamma    91.4638

_space_group_name_H-M_alt    "P 1"
_space_group_IT_number       1

loop_
  _space_group_symop_operation_xyz
  'x, y, z'

loop_
  _atom_site_type_symbol
  _atom_site_label
  _atom_site_symmetry_multiplicity
  _atom_site_fract_x
  _atom_site_fract_y
  _atom_site_fract_z
  _atom_site_occupancy
  La  La1       1.0  0.00000  0.00000  0.00000  1.0000
  Mo  Mo1       1.0  0.42400  0.43900  0.23600  1.0000
  Mo  Mo2       1.0  0.56100  0.76400  0.42400  1.0000
  Mo  Mo3       1.0  0.76400  0.42400  0.43900  1.0000
  Mo  Mo4       1.0  0.23600  0.57600  0.56100  1.0000
  Mo  Mo5       1.0  0.43900  0.23600  0.57600  1.0000
  Mo  Mo6       1.0  0.57600  0.56100  0.76400  1.0000
  Se  Se1       1.0  0.75400  0.62400  0.12100  1.0000
  Se  Se2       1.0  0.24300  0.75700  0.24300  1.0000
  Se  Se3       1.0  0.62400  0.12100  0.24600  1.0000
  Se  Se4       1.0  0.12100  0.24600  0.37600  1.0000
  Se  Se5       1.0  0.87900  0.75400  0.62400  1.0000
  Se  Se6       1.0  0.37600  0.87900  0.75400  1.0000
  Se  Se7       1.0  0.75700  0.24300  0.75700  1.0000
  Se  Se8       1.0  0.24600  0.37600  0.87900  1.0000
