data_image0
_chemical_formula_structural       C4LaN8RbSi
_chemical_formula_sum              "C4 La1 N8 Rb1 Si1"
_cell_length_a       6.78071
_cell_length_b       6.9206
_cell_length_c       6.9206
_cell_angle_alpha    103.886
_cell_angle_beta     60.6664
_cell_angle_gamma    119.334

_space_group_name_H-M_alt    "P 1"
_space_group_IT_number       1

loop_
  _space_group_symop_operation_xyz
  'x, y, z'

loop_
  _atom_site_type_symbol
  _atom_site_label
  _atom_site_symmetry_multiplicity
  _atom_site_fract_x
  _atom_site_fract_y
  _atom_site_fract_z
  _atom_site_occupancy
  C   C1        1.0  0.09150  0.53100  0.08540  1.0000
  C   C2        1.0  0.43900  0.08540  0.46900  1.0000
  C   C3        1.0  0.82300  0.91500  0.53100  1.0000
  C   C4        1.0  0.64600  0.46900  0.91500  1.0000
  La  La1       1.0  0.25000  0.50000  0.50000  1.0000
  N   N1        1.0  0.49200  0.42100  0.10200  1.0000
  N   N2        1.0  0.00819  0.47500  0.28300  1.0000
  N   N3        1.0  0.40600  0.89800  0.42100  1.0000
  N   N4        1.0  0.70900  0.71700  0.47500  1.0000
  N   N5        1.0  0.46700  0.28300  0.52500  1.0000
  N   N6        1.0  0.92900  0.10200  0.57900  1.0000
  N   N7        1.0  0.81600  0.52500  0.71700  1.0000
  N   N8        1.0  0.17300  0.57900  0.89800  1.0000
  Rb  Rb1       1.0  0.00000  0.00000  0.00000  1.0000
  Si  Si1       1.0  0.75000  0.50000  0.50000  1.0000
