data_image0
_chemical_formula_structural       Mo6Se8Sn
_chemical_formula_sum              "Mo6 Se8 Sn1"
_cell_length_a       6.84282
_cell_length_b       6.84282
_cell_length_c       6.84282
_cell_angle_alpha    90.6847
_cell_angle_beta     89.3153
_cell_angle_gamma    90.6847

_space_group_name_H-M_alt    "P 1"
_space_group_IT_number       1

loop_
  _space_group_symop_operation_xyz
  'x, y, z'

loop_
  _atom_site_type_symbol
  _atom_site_label
  _atom_site_symmetry_multiplicity
  _atom_site_fract_x
  _atom_site_fract_y
  _atom_site_fract_z
  _atom_site_occupancy
  Mo  Mo1       1.0  0.42200  0.44100  0.23700  1.0000
  Mo  Mo2       1.0  0.55900  0.76300  0.42200  1.0000
  Mo  Mo3       1.0  0.76300  0.42200  0.44100  1.0000
  Mo  Mo4       1.0  0.23700  0.57800  0.55900  1.0000
  Mo  Mo5       1.0  0.44100  0.23700  0.57800  1.0000
  Mo  Mo6       1.0  0.57800  0.55900  0.76300  1.0000
  Se  Se1       1.0  0.74900  0.62300  0.12200  1.0000
  Se  Se2       1.0  0.24000  0.76000  0.24000  1.0000
  Se  Se3       1.0  0.62300  0.12200  0.25100  1.0000
  Se  Se4       1.0  0.12200  0.25100  0.37700  1.0000
  Se  Se5       1.0  0.87800  0.74900  0.62300  1.0000
  Se  Se6       1.0  0.37700  0.87800  0.74900  1.0000
  Se  Se7       1.0  0.76000  0.24000  0.76000  1.0000
  Se  Se8       1.0  0.25100  0.37700  0.87800  1.0000
  Sn  Sn1       1.0  0.00000  0.00000  0.00000  1.0000
