data_image0
_chemical_formula_structural       CS14
_chemical_formula_sum              "C1 S14"
_cell_length_a       7.78212
_cell_length_b       7.78212
_cell_length_c       7.78212
_cell_angle_alpha    93.813
_cell_angle_beta     93.813
_cell_angle_gamma    93.813

_space_group_name_H-M_alt    "P 1"
_space_group_IT_number       1

loop_
  _space_group_symop_operation_xyz
  'x, y, z'

loop_
  _atom_site_type_symbol
  _atom_site_label
  _atom_site_symmetry_multiplicity
  _atom_site_fract_x
  _atom_site_fract_y
  _atom_site_fract_z
  _atom_site_occupancy
  C   C1        1.0  0.50000  0.50000  0.50000  1.0000
  S   S1        1.0  0.29500  0.70500  0.00000  1.0000
  S   S2        1.0  0.78400  0.78400  0.16200  1.0000
  S   S3        1.0  0.21600  0.83800  0.21600  1.0000
  S   S4        1.0  0.83800  0.21600  0.21600  1.0000
  S   S5        1.0  0.70500  0.00000  0.29500  1.0000
  S   S6        1.0  0.00000  0.70500  0.29500  1.0000
  S   S7        1.0  0.37600  0.37600  0.37600  1.0000
  S   S8        1.0  0.62400  0.62400  0.62400  1.0000
  S   S9        1.0  0.00000  0.29500  0.70500  1.0000
  S   S10       1.0  0.29500  0.00000  0.70500  1.0000
  S   S11       1.0  0.16200  0.78400  0.78400  1.0000
  S   S12       1.0  0.78400  0.16200  0.78400  1.0000
  S   S13       1.0  0.21600  0.21600  0.83800  1.0000
  S   S14       1.0  0.70500  0.29500  1.00000  1.0000
