data_image0
_chemical_formula_structural       F11I2Sb2
_chemical_formula_sum              "F11 I2 Sb2"
_cell_length_a       4.94156
_cell_length_b       7.503
_cell_length_c       7.503
_cell_angle_alpha    62.4639
_cell_angle_beta     106.232
_cell_angle_gamma    106.232

_space_group_name_H-M_alt    "P 1"
_space_group_IT_number       1

loop_
  _space_group_symop_operation_xyz
  'x, y, z'

loop_
  _atom_site_type_symbol
  _atom_site_label
  _atom_site_symmetry_multiplicity
  _atom_site_fract_x
  _atom_site_fract_y
  _atom_site_fract_z
  _atom_site_occupancy
  F   F1        1.0  0.26100  0.49700  0.13900  1.0000
  F   F2        1.0  0.53100  0.19900  0.19500  1.0000
  F   F3        1.0  0.82700  0.55000  0.24600  1.0000
  F   F4        1.0  0.17300  0.75400  0.45000  1.0000
  F   F5        1.0  0.21000  0.14400  0.46300  1.0000
  F   F6        1.0  0.73900  0.86100  0.50300  1.0000
  F   F7        1.0  0.50000  0.48600  0.51400  1.0000
  F   F8        1.0  0.77900  0.20200  0.58300  1.0000
  F   F9        1.0  0.22100  0.41700  0.79800  1.0000
  F   F10       1.0  0.46900  0.80500  0.80100  1.0000
  F   F11       1.0  0.79000  0.53700  0.85600  1.0000
  I   I1        1.0  0.82900  0.05580  0.06300  1.0000
  I   I2        1.0  0.17100  0.93700  0.94400  1.0000
  Sb  Sb1       1.0  0.52300  0.33900  0.34900  1.0000
  Sb  Sb2       1.0  0.47700  0.65100  0.66100  1.0000
