data_image0
_chemical_formula_structural       Cs6F18Ni6
_chemical_formula_sum              "Cs6 F18 Ni6"
_cell_length_a       5.77346
_cell_length_b       5.77341
_cell_length_c       14.0778
_cell_angle_alpha    89.9992
_cell_angle_beta     90.0008
_cell_angle_gamma    120.046

_space_group_name_H-M_alt    "P 1"
_space_group_IT_number       1

loop_
  _space_group_symop_operation_xyz
  'x, y, z'

loop_
  _atom_site_type_symbol
  _atom_site_label
  _atom_site_symmetry_multiplicity
  _atom_site_fract_x
  _atom_site_fract_y
  _atom_site_fract_z
  _atom_site_occupancy
  Cs  Cs1       1.0  0.00000  0.00036  0.25000  1.0000
  Cs  Cs2       1.0  0.00038  0.00000  0.75000  1.0000
  Cs  Cs3       1.0  0.33300  0.66700  0.09230  1.0000
  Cs  Cs4       1.0  0.66700  0.33300  0.59200  1.0000
  Cs  Cs5       1.0  0.66700  0.33300  0.90800  1.0000
  Cs  Cs6       1.0  0.33300  0.66700  0.40800  1.0000
  F   F1        1.0  0.51600  0.03240  0.25000  1.0000
  F   F2        1.0  0.48400  0.96800  0.75000  1.0000
  F   F3        1.0  0.96800  0.48400  0.25000  1.0000
  F   F4        1.0  0.51600  0.48400  0.25000  1.0000
  F   F5        1.0  0.48400  0.51600  0.75000  1.0000
  F   F6        1.0  0.03240  0.51600  0.75000  1.0000
  F   F7        1.0  0.83400  0.66900  0.07970  1.0000
  F   F8        1.0  0.16600  0.33100  0.58000  1.0000
  F   F9        1.0  0.33100  0.16600  0.07970  1.0000
  F   F10       1.0  0.83400  0.16600  0.07970  1.0000
  F   F11       1.0  0.16600  0.83400  0.58000  1.0000
  F   F12       1.0  0.66900  0.83400  0.58000  1.0000
  F   F13       1.0  0.16600  0.33100  0.92000  1.0000
  F   F14       1.0  0.16600  0.83400  0.92000  1.0000
  F   F15       1.0  0.66900  0.83400  0.92000  1.0000
  F   F16       1.0  0.33100  0.16600  0.42000  1.0000
  F   F17       1.0  0.83400  0.16600  0.42000  1.0000
  F   F18       1.0  0.83400  0.66900  0.42000  1.0000
  Ni  Ni1       1.0  0.33300  0.66700  0.84500  1.0000
  Ni  Ni2       1.0  0.66700  0.33300  0.34500  1.0000
  Ni  Ni3       1.0  0.66700  0.33300  0.15500  1.0000
  Ni  Ni4       1.0  0.33300  0.66700  0.65500  1.0000
  Ni  Ni5       1.0  0.00000  0.00000  0.00000  1.0000
  Ni  Ni6       1.0  0.00001  0.00000  0.50000  1.0000
