data_image0
_chemical_formula_structural       GdMo6S8
_chemical_formula_sum              "Gd1 Mo6 S8"
_cell_length_a       6.48778
_cell_length_b       6.48778
_cell_length_c       6.48778
_cell_angle_alpha    90.9037
_cell_angle_beta     90.9037
_cell_angle_gamma    89.0963

_space_group_name_H-M_alt    "P 1"
_space_group_IT_number       1

loop_
  _space_group_symop_operation_xyz
  'x, y, z'

loop_
  _atom_site_type_symbol
  _atom_site_label
  _atom_site_symmetry_multiplicity
  _atom_site_fract_x
  _atom_site_fract_y
  _atom_site_fract_z
  _atom_site_occupancy
  Gd  Gd1       1.0  0.00000  0.00000  0.00000  1.0000
  Mo  Mo1       1.0  0.43900  0.58000  0.22300  1.0000
  Mo  Mo2       1.0  0.77700  0.43900  0.42000  1.0000
  Mo  Mo3       1.0  0.42000  0.22300  0.43900  1.0000
  Mo  Mo4       1.0  0.58000  0.77700  0.56100  1.0000
  Mo  Mo5       1.0  0.22300  0.56100  0.58000  1.0000
  Mo  Mo6       1.0  0.56100  0.42000  0.77700  1.0000
  S   S1        1.0  0.62900  0.24600  0.12800  1.0000
  S   S2        1.0  0.76100  0.76100  0.23900  1.0000
  S   S3        1.0  0.12800  0.37100  0.24600  1.0000
  S   S4        1.0  0.24600  0.87200  0.37100  1.0000
  S   S5        1.0  0.75400  0.12800  0.62900  1.0000
  S   S6        1.0  0.87200  0.62900  0.75400  1.0000
  S   S7        1.0  0.23900  0.23900  0.76100  1.0000
  S   S8        1.0  0.37100  0.75400  0.87200  1.0000
