data_image0
_chemical_formula_structural       As4Fe4Se4
_chemical_formula_sum              "As4 Fe4 Se4"
_cell_length_a       5.93462
_cell_length_b       5.85819
_cell_length_c       5.97933
_cell_angle_alpha    90
_cell_angle_beta     113.313
_cell_angle_gamma    90

_space_group_name_H-M_alt    "P 1"
_space_group_IT_number       1

loop_
  _space_group_symop_operation_xyz
  'x, y, z'

loop_
  _atom_site_type_symbol
  _atom_site_label
  _atom_site_symmetry_multiplicity
  _atom_site_fract_x
  _atom_site_fract_y
  _atom_site_fract_z
  _atom_site_occupancy
  As  As1       1.0  0.85800  0.13800  0.12100  1.0000
  As  As2       1.0  0.14200  0.63800  0.37900  1.0000
  As  As3       1.0  0.85800  0.36200  0.62100  1.0000
  As  As4       1.0  0.14200  0.86200  0.87900  1.0000
  Fe  Fe1       1.0  0.72400  0.50000  0.20800  1.0000
  Fe  Fe2       1.0  0.27600  0.00000  0.29200  1.0000
  Fe  Fe3       1.0  0.72400  0.00049  0.70800  1.0000
  Fe  Fe4       1.0  0.27600  0.50000  0.79200  1.0000
  Se  Se1       1.0  0.34500  0.36700  0.17900  1.0000
  Se  Se2       1.0  0.65500  0.86700  0.32100  1.0000
  Se  Se3       1.0  0.34500  0.13300  0.67900  1.0000
  Se  Se4       1.0  0.65500  0.63300  0.82100  1.0000
