data_image0
_chemical_formula_structural       LuMo6S8
_chemical_formula_sum              "Lu1 Mo6 S8"
_cell_length_a       6.45404
_cell_length_b       6.45404
_cell_length_c       6.45404
_cell_angle_alpha    90.4201
_cell_angle_beta     89.5799
_cell_angle_gamma    90.4201

_space_group_name_H-M_alt    "P 1"
_space_group_IT_number       1

loop_
  _space_group_symop_operation_xyz
  'x, y, z'

loop_
  _atom_site_type_symbol
  _atom_site_label
  _atom_site_symmetry_multiplicity
  _atom_site_fract_x
  _atom_site_fract_y
  _atom_site_fract_z
  _atom_site_occupancy
  Lu  Lu1       1.0  0.00000  0.00000  0.00000  1.0000
  Mo  Mo1       1.0  0.42000  0.44100  0.22100  1.0000
  Mo  Mo2       1.0  0.55900  0.77900  0.42000  1.0000
  Mo  Mo3       1.0  0.77900  0.42000  0.44100  1.0000
  Mo  Mo4       1.0  0.22100  0.58000  0.55900  1.0000
  Mo  Mo5       1.0  0.44100  0.22100  0.58000  1.0000
  Mo  Mo6       1.0  0.58000  0.55900  0.77900  1.0000
  S   S1        1.0  0.75500  0.63500  0.12900  1.0000
  S   S2        1.0  0.23500  0.76500  0.23500  1.0000
  S   S3        1.0  0.63500  0.12900  0.24500  1.0000
  S   S4        1.0  0.12900  0.24500  0.36500  1.0000
  S   S5        1.0  0.87100  0.75500  0.63500  1.0000
  S   S6        1.0  0.36500  0.87100  0.75500  1.0000
  S   S7        1.0  0.76500  0.23500  0.76500  1.0000
  S   S8        1.0  0.24500  0.36500  0.87100  1.0000
