data_image0
_chemical_formula_structural       Mo6S8Sb
_chemical_formula_sum              "Mo6 S8 Sb1"
_cell_length_a       6.5179
_cell_length_b       6.5179
_cell_length_c       6.5179
_cell_angle_alpha    89.8425
_cell_angle_beta     89.8425
_cell_angle_gamma    90.1575

_space_group_name_H-M_alt    "P 1"
_space_group_IT_number       1

loop_
  _space_group_symop_operation_xyz
  'x, y, z'

loop_
  _atom_site_type_symbol
  _atom_site_label
  _atom_site_symmetry_multiplicity
  _atom_site_fract_x
  _atom_site_fract_y
  _atom_site_fract_z
  _atom_site_occupancy
  Mo  Mo1       1.0  0.44100  0.58300  0.22200  1.0000
  Mo  Mo2       1.0  0.77800  0.44100  0.41700  1.0000
  Mo  Mo3       1.0  0.41700  0.22200  0.44100  1.0000
  Mo  Mo4       1.0  0.58300  0.77800  0.55900  1.0000
  Mo  Mo5       1.0  0.22200  0.55900  0.58300  1.0000
  Mo  Mo6       1.0  0.55900  0.41700  0.77800  1.0000
  S   S1        1.0  0.62900  0.25600  0.12900  1.0000
  S   S2        1.0  0.76300  0.76300  0.23700  1.0000
  S   S3        1.0  0.12900  0.37100  0.25600  1.0000
  S   S4        1.0  0.25600  0.87100  0.37100  1.0000
  S   S5        1.0  0.74400  0.12900  0.62900  1.0000
  S   S6        1.0  0.87100  0.62900  0.74400  1.0000
  S   S7        1.0  0.23700  0.23700  0.76300  1.0000
  S   S8        1.0  0.37100  0.74400  0.87100  1.0000
  Sb  Sb1       1.0  0.00000  0.00000  0.00000  1.0000
