data_image0
_chemical_formula_structural       Cl12OsTe2
_chemical_formula_sum              "Cl12 Os1 Te2"
_cell_length_a       6.56815
_cell_length_b       6.99723
_cell_length_c       10.7603
_cell_angle_alpha    70.7248
_cell_angle_beta     104.688
_cell_angle_gamma    115.628

_space_group_name_H-M_alt    "P 1"
_space_group_IT_number       1

loop_
  _space_group_symop_operation_xyz
  'x, y, z'

loop_
  _atom_site_type_symbol
  _atom_site_label
  _atom_site_symmetry_multiplicity
  _atom_site_fract_x
  _atom_site_fract_y
  _atom_site_fract_z
  _atom_site_occupancy
  Cl  Cl1       1.0  0.39200  0.20400  0.01120  1.0000
  Cl  Cl2       1.0  0.07270  0.68000  0.09770  1.0000
  Cl  Cl3       1.0  0.00125  0.02790  0.21100  1.0000
  Cl  Cl4       1.0  0.56400  0.43500  0.30500  1.0000
  Cl  Cl5       1.0  0.51700  0.90300  0.35800  1.0000
  Cl  Cl6       1.0  0.03130  0.30600  0.42700  1.0000
  Cl  Cl7       1.0  0.96900  0.69400  0.57300  1.0000
  Cl  Cl8       1.0  0.48300  0.09650  0.64200  1.0000
  Cl  Cl9       1.0  0.43600  0.56500  0.69500  1.0000
  Cl  Cl10      1.0  0.99900  0.97200  0.78900  1.0000
  Cl  Cl11      1.0  0.92700  0.32000  0.90200  1.0000
  Cl  Cl12      1.0  0.60800  0.79600  0.98900  1.0000
  Os  Os1       1.0  0.00000  0.00000  0.00000  1.0000
  Te  Te1       1.0  0.74300  0.25500  0.24400  1.0000
  Te  Te2       1.0  0.25700  0.74500  0.75600  1.0000
