data_image0
_chemical_formula_structural       AgF11PdZr2
_chemical_formula_sum              "Ag1 F11 Pd1 Zr2"
_cell_length_a       5.78403
_cell_length_b       5.78403
_cell_length_c       7.77113
_cell_angle_alpha    110.687
_cell_angle_beta     69.3126
_cell_angle_gamma    106.804

_space_group_name_H-M_alt    "P 1"
_space_group_IT_number       1

loop_
  _space_group_symop_operation_xyz
  'x, y, z'

loop_
  _atom_site_type_symbol
  _atom_site_label
  _atom_site_symmetry_multiplicity
  _atom_site_fract_x
  _atom_site_fract_y
  _atom_site_fract_z
  _atom_site_occupancy
  Ag  Ag1       1.0  0.00000  0.00000  0.00000  1.0000
  F   F1        1.0  0.33400  0.33400  0.00000  1.0000
  F   F2        1.0  0.66600  0.66600  0.00000  1.0000
  F   F3        1.0  0.73000  0.27000  0.10200  1.0000
  F   F4        1.0  0.18700  0.23300  0.30700  1.0000
  F   F5        1.0  0.76700  0.81300  0.30700  1.0000
  F   F6        1.0  0.25300  0.74700  0.33800  1.0000
  F   F7        1.0  0.50000  0.50000  0.50000  1.0000
  F   F8        1.0  0.74700  0.25300  0.66200  1.0000
  F   F9        1.0  0.23300  0.18700  0.69300  1.0000
  F   F10       1.0  0.81300  0.76700  0.69300  1.0000
  F   F11       1.0  0.27000  0.73000  0.89800  1.0000
  Pd  Pd1       1.0  0.00000  1.00000  0.50000  1.0000
  Zr  Zr1       1.0  0.49400  0.50600  0.23600  1.0000
  Zr  Zr2       1.0  0.50600  0.49400  0.76400  1.0000
