data_image0
_chemical_formula_structural       In4Ni2S8
_chemical_formula_sum              "In4 Ni2 S8"
_cell_length_a       7.42422
_cell_length_b       7.42422
_cell_length_c       7.42422
_cell_angle_alpha    120
_cell_angle_beta     90
_cell_angle_gamma    120

_space_group_name_H-M_alt    "P 1"
_space_group_IT_number       1

loop_
  _space_group_symop_operation_xyz
  'x, y, z'

loop_
  _atom_site_type_symbol
  _atom_site_label
  _atom_site_symmetry_multiplicity
  _atom_site_fract_x
  _atom_site_fract_y
  _atom_site_fract_z
  _atom_site_occupancy
  In  In1       1.0  0.37500  0.75000  0.12500  1.0000
  In  In2       1.0  0.37500  0.75000  0.62500  1.0000
  In  In3       1.0  0.37500  0.25000  0.62500  1.0000
  In  In4       1.0  0.87500  0.25000  0.62500  1.0000
  Ni  Ni1       1.0  0.00000  0.00000  0.00000  1.0000
  Ni  Ni2       1.0  0.75000  0.50000  0.25000  1.0000
  S   S1        1.0  0.12300  0.24600  0.36900  1.0000
  S   S2        1.0  0.11900  0.74600  0.37300  1.0000
  S   S3        1.0  0.62700  0.74600  0.37300  1.0000
  S   S4        1.0  0.62700  0.25400  0.37300  1.0000
  S   S5        1.0  0.12300  0.75400  0.87700  1.0000
  S   S6        1.0  0.63100  0.75400  0.87700  1.0000
  S   S7        1.0  0.12300  0.24600  0.87700  1.0000
  S   S8        1.0  0.62700  0.25400  0.88100  1.0000
