data_image0
_chemical_formula_structural       AgF12Sb2
_chemical_formula_sum              "Ag1 F12 Sb2"
_cell_length_a       4.80361
_cell_length_b       5.18708
_cell_length_c       8.30167
_cell_angle_alpha    76.2971
_cell_angle_beta     89.7025
_cell_angle_gamma    65.7716

_space_group_name_H-M_alt    "P 1"
_space_group_IT_number       1

loop_
  _space_group_symop_operation_xyz
  'x, y, z'

loop_
  _atom_site_type_symbol
  _atom_site_label
  _atom_site_symmetry_multiplicity
  _atom_site_fract_x
  _atom_site_fract_y
  _atom_site_fract_z
  _atom_site_occupancy
  Ag  Ag1       1.0  0.50000  0.50000  0.50000  1.0000
  F   F1        1.0  0.80100  0.27500  0.03020  1.0000
  F   F2        1.0  0.68500  0.76200  0.11800  1.0000
  F   F3        1.0  0.31900  0.26100  0.22200  1.0000
  F   F4        1.0  0.17200  0.79900  0.26400  1.0000
  F   F5        1.0  0.82300  0.24900  0.36100  1.0000
  F   F6        1.0  0.72900  0.78600  0.43700  1.0000
  F   F7        1.0  0.27100  0.21400  0.56300  1.0000
  F   F8        1.0  0.17700  0.75100  0.63900  1.0000
  F   F9        1.0  0.82800  0.20100  0.73600  1.0000
  F   F10       1.0  0.68100  0.73900  0.77800  1.0000
  F   F11       1.0  0.31500  0.23800  0.88200  1.0000
  F   F12       1.0  0.19900  0.72500  0.97000  1.0000
  Sb  Sb1       1.0  0.73800  0.03020  0.21700  1.0000
  Sb  Sb2       1.0  0.26200  0.97000  0.78300  1.0000
