data_image0
_chemical_formula_structural       Br12OsSe2
_chemical_formula_sum              "Br12 Os1 Se2"
_cell_length_a       6.59403
_cell_length_b       9.04683
_cell_length_c       9.04683
_cell_angle_alpha    77.0638
_cell_angle_beta     107.438
_cell_angle_gamma    107.438

_space_group_name_H-M_alt    "P 1"
_space_group_IT_number       1

loop_
  _space_group_symop_operation_xyz
  'x, y, z'

loop_
  _atom_site_type_symbol
  _atom_site_label
  _atom_site_symmetry_multiplicity
  _atom_site_fract_x
  _atom_site_fract_y
  _atom_site_fract_z
  _atom_site_occupancy
  Br  Br1       1.0  0.74300  0.74000  0.04710  1.0000
  Br  Br2       1.0  0.82100  0.12700  0.12700  1.0000
  Br  Br3       1.0  0.19900  0.53500  0.21000  1.0000
  Br  Br4       1.0  0.25700  0.95300  0.26000  1.0000
  Br  Br5       1.0  0.66600  0.35500  0.35500  1.0000
  Br  Br6       1.0  0.80100  0.79000  0.46500  1.0000
  Br  Br7       1.0  0.19900  0.21000  0.53500  1.0000
  Br  Br8       1.0  0.33400  0.64500  0.64500  1.0000
  Br  Br9       1.0  0.74300  0.04710  0.74000  1.0000
  Br  Br10      1.0  0.80100  0.46500  0.79000  1.0000
  Br  Br11      1.0  0.17900  0.87300  0.87300  1.0000
  Br  Br12      1.0  0.25700  0.26000  0.95300  1.0000
  Os  Os1       1.0  0.00000  0.00000  0.00000  1.0000
  Se  Se1       1.0  0.27200  0.28100  0.28100  1.0000
  Se  Se2       1.0  0.72800  0.71900  0.71900  1.0000
