data_image0
_chemical_formula_structural       C6Cd2N6Ru
_chemical_formula_sum              "C6 Cd2 N6 Ru1"
_cell_length_a       6.34102
_cell_length_b       6.34102
_cell_length_c       6.572
_cell_angle_alpha    90.0001
_cell_angle_beta     89.9998
_cell_angle_gamma    120

_space_group_name_H-M_alt    "P 1"
_space_group_IT_number       1

loop_
  _space_group_symop_operation_xyz
  'x, y, z'

loop_
  _atom_site_type_symbol
  _atom_site_label
  _atom_site_symmetry_multiplicity
  _atom_site_fract_x
  _atom_site_fract_y
  _atom_site_fract_z
  _atom_site_occupancy
  C   C1        1.0  0.25500  0.00374  0.18200  1.0000
  C   C2        1.0  0.99600  0.25100  0.18200  1.0000
  C   C3        1.0  0.74900  0.74500  0.18200  1.0000
  C   C4        1.0  0.25100  0.25500  0.81800  1.0000
  C   C5        1.0  0.00374  0.74900  0.81800  1.0000
  C   C6        1.0  0.74500  0.99600  0.81800  1.0000
  Cd  Cd1       1.0  0.33300  0.66700  0.49500  1.0000
  Cd  Cd2       1.0  0.66700  0.33300  0.50500  1.0000
  N   N1        1.0  0.60600  0.60200  0.29800  1.0000
  N   N2        1.0  0.99600  0.39400  0.29800  1.0000
  N   N3        1.0  0.39800  0.00360  0.29800  1.0000
  N   N4        1.0  0.60200  0.99600  0.70200  1.0000
  N   N5        1.0  0.00360  0.60600  0.70200  1.0000
  N   N6        1.0  0.39400  0.39800  0.70200  1.0000
  Ru  Ru1       1.0  0.00000  0.00000  0.00000  1.0000
