data_image0
_chemical_formula_structural       La4Sn10
_chemical_formula_sum              "La4 Sn10"
_cell_length_a       4.52521
_cell_length_b       4.68868
_cell_length_c       21.4924
_cell_angle_alpha    90
_cell_angle_beta     83.957
_cell_angle_gamma    90

_space_group_name_H-M_alt    "P 1"
_space_group_IT_number       1

loop_
  _space_group_symop_operation_xyz
  'x, y, z'

loop_
  _atom_site_type_symbol
  _atom_site_label
  _atom_site_symmetry_multiplicity
  _atom_site_fract_x
  _atom_site_fract_y
  _atom_site_fract_z
  _atom_site_occupancy
  La  La1       1.0  0.40400  0.50000  0.19200  1.0000
  La  La2       1.0  0.28700  0.00000  0.42600  1.0000
  La  La3       1.0  0.71300  0.00000  0.57400  1.0000
  La  La4       1.0  0.59600  0.50000  0.80800  1.0000
  Sn  Sn1       1.0  0.50000  0.50000  0.00000  1.0000
  Sn  Sn2       1.0  0.00000  0.00000  0.00000  1.0000
  Sn  Sn3       1.0  0.95300  0.50000  0.09310  1.0000
  Sn  Sn4       1.0  0.86000  0.00000  0.28000  1.0000
  Sn  Sn5       1.0  0.33500  0.50000  0.33100  1.0000
  Sn  Sn6       1.0  0.77500  0.50000  0.45000  1.0000
  Sn  Sn7       1.0  0.22500  0.50000  0.55000  1.0000
  Sn  Sn8       1.0  0.66500  0.50000  0.66900  1.0000
  Sn  Sn9       1.0  0.14000  0.00000  0.72000  1.0000
  Sn  Sn10      1.0  0.04650  0.50000  0.90700  1.0000
