data_image0
_chemical_formula_structural       Gd2K2O6Pd2
_chemical_formula_sum              "Gd2 K2 O6 Pd2"
_cell_length_a       3.90509
_cell_length_b       6.80379
_cell_length_c       7.28062
_cell_angle_alpha    103.733
_cell_angle_beta     90
_cell_angle_gamma    106.677

_space_group_name_H-M_alt    "P 1"
_space_group_IT_number       1

loop_
  _space_group_symop_operation_xyz
  'x, y, z'

loop_
  _atom_site_type_symbol
  _atom_site_label
  _atom_site_symmetry_multiplicity
  _atom_site_fract_x
  _atom_site_fract_y
  _atom_site_fract_z
  _atom_site_occupancy
  Gd  Gd1       1.0  0.65000  0.30000  0.07660  1.0000
  Gd  Gd2       1.0  0.35000  0.70000  0.92300  1.0000
  K   K1        1.0  0.35600  0.71100  0.43700  1.0000
  K   K2        1.0  0.64400  0.28900  0.56300  1.0000
  O   O1        1.0  0.82800  0.65700  0.13300  1.0000
  O   O2        1.0  0.49400  0.98800  0.18700  1.0000
  O   O3        1.0  0.15500  0.30900  0.27500  1.0000
  O   O4        1.0  0.84500  0.69100  0.72500  1.0000
  O   O5        1.0  0.50600  0.01240  0.81300  1.0000
  O   O6        1.0  0.17200  0.34300  0.86700  1.0000
  Pd  Pd1       1.0  0.99300  0.98600  0.23000  1.0000
  Pd  Pd2       1.0  0.00689  0.01380  0.77000  1.0000
