data_image0
_chemical_formula_structural       Au2Cs2Se6U2
_chemical_formula_sum              "Au2 Cs2 Se6 U2"
_cell_length_a       4.24963
_cell_length_b       8.37376
_cell_length_c       10.8104
_cell_angle_alpha    90
_cell_angle_beta     90
_cell_angle_gamma    75.3007

_space_group_name_H-M_alt    "P 1"
_space_group_IT_number       1

loop_
  _space_group_symop_operation_xyz
  'x, y, z'

loop_
  _atom_site_type_symbol
  _atom_site_label
  _atom_site_symmetry_multiplicity
  _atom_site_fract_x
  _atom_site_fract_y
  _atom_site_fract_z
  _atom_site_occupancy
  Au  Au1       1.0  0.54200  0.91600  0.25000  1.0000
  Au  Au2       1.0  0.45800  0.08430  0.75000  1.0000
  Cs  Cs1       1.0  0.25300  0.49500  0.25000  1.0000
  Cs  Cs2       1.0  0.74700  0.50500  0.75000  1.0000
  Se  Se1       1.0  0.61800  0.76400  0.03940  1.0000
  Se  Se2       1.0  0.93900  0.12200  0.25000  1.0000
  Se  Se3       1.0  0.61800  0.76400  0.46100  1.0000
  Se  Se4       1.0  0.38200  0.23600  0.53900  1.0000
  Se  Se5       1.0  0.06110  0.87800  0.75000  1.0000
  Se  Se6       1.0  0.38200  0.23600  0.96100  1.0000
  U   U1        1.0  0.00000  0.00000  0.00000  1.0000
  U   U2        1.0  0.00000  0.00000  0.50000  1.0000
