data_image0
_chemical_formula_structural       Ge2Nd2
_chemical_formula_sum              "Ge2 Nd2"
_cell_length_a       4.06039
_cell_length_b       4.48649
_cell_length_c       5.98678
_cell_angle_alpha    67.9942
_cell_angle_beta     90
_cell_angle_gamma    90

_space_group_name_H-M_alt    "P 1"
_space_group_IT_number       1

loop_
  _space_group_symop_operation_xyz
  'x, y, z'

loop_
  _atom_site_type_symbol
  _atom_site_label
  _atom_site_symmetry_multiplicity
  _atom_site_fract_x
  _atom_site_fract_y
  _atom_site_fract_z
  _atom_site_occupancy
  Ge  Ge1       1.0  0.75000  0.42000  0.16000  1.0000
  Ge  Ge2       1.0  0.25000  0.58000  0.84000  1.0000
  Nd  Nd1       1.0  0.25000  0.86100  0.27800  1.0000
  Nd  Nd2       1.0  0.75000  0.13900  0.72200  1.0000
