data_image0
_chemical_formula_structural       Bi4Pd4Se4
_chemical_formula_sum              "Bi4 Pd4 Se4"
_cell_length_a       6.5063
_cell_length_b       6.5063
_cell_length_c       6.5063
_cell_angle_alpha    90
_cell_angle_beta     90
_cell_angle_gamma    90

_space_group_name_H-M_alt    "P 1"
_space_group_IT_number       1

loop_
  _space_group_symop_operation_xyz
  'x, y, z'

loop_
  _atom_site_type_symbol
  _atom_site_label
  _atom_site_symmetry_multiplicity
  _atom_site_fract_x
  _atom_site_fract_y
  _atom_site_fract_z
  _atom_site_occupancy
  Bi  Bi1       1.0  0.62900  0.87100  0.12900  1.0000
  Bi  Bi2       1.0  0.37100  0.37100  0.37100  1.0000
  Bi  Bi3       1.0  0.87100  0.12900  0.62900  1.0000
  Bi  Bi4       1.0  0.12900  0.62900  0.87100  1.0000
  Pd  Pd1       1.0  0.01310  0.01310  0.01310  1.0000
  Pd  Pd2       1.0  0.98700  0.51300  0.48700  1.0000
  Pd  Pd3       1.0  0.48700  0.98700  0.51300  1.0000
  Pd  Pd4       1.0  0.51300  0.48700  0.98700  1.0000
  Se  Se1       1.0  0.88100  0.38100  0.11900  1.0000
  Se  Se2       1.0  0.11900  0.88100  0.38100  1.0000
  Se  Se3       1.0  0.61900  0.61900  0.61900  1.0000
  Se  Se4       1.0  0.38100  0.11900  0.88100  1.0000
