data_image0
_chemical_formula_structural       As2O8Sm2
_chemical_formula_sum              "As2 O8 Sm2"
_cell_length_a       6.74609
_cell_length_b       5.07895
_cell_length_c       5.07895
_cell_angle_alpha    90
_cell_angle_beta     112.113
_cell_angle_gamma    112.113

_space_group_name_H-M_alt    "P 1"
_space_group_IT_number       1

loop_
  _space_group_symop_operation_xyz
  'x, y, z'

loop_
  _atom_site_type_symbol
  _atom_site_label
  _atom_site_symmetry_multiplicity
  _atom_site_fract_x
  _atom_site_fract_y
  _atom_site_fract_z
  _atom_site_occupancy
  As  As1       1.0  0.25000  0.12500  0.37500  1.0000
  As  As2       1.0  0.75000  0.87500  0.62500  1.0000
  O   O1        1.0  0.09110  0.79600  0.15200  1.0000
  O   O2        1.0  0.40900  0.34800  0.20500  1.0000
  O   O3        1.0  0.59100  0.93900  0.29600  1.0000
  O   O4        1.0  0.09110  0.29500  0.43900  1.0000
  O   O5        1.0  0.90900  0.70500  0.56100  1.0000
  O   O6        1.0  0.40900  0.06130  0.70400  1.0000
  O   O7        1.0  0.59100  0.65200  0.79500  1.0000
  O   O8        1.0  0.90900  0.20400  0.84800  1.0000
  Sm  Sm1       1.0  0.75000  0.37500  0.12500  1.0000
  Sm  Sm2       1.0  0.25000  0.62500  0.87500  1.0000
