data_image0
_chemical_formula_structural       Au4Ca4Cd4
_chemical_formula_sum              "Au4 Ca4 Cd4"
_cell_length_a       7.36904
_cell_length_b       4.3922
_cell_length_c       8.85526
_cell_angle_alpha    90
_cell_angle_beta     90
_cell_angle_gamma    90

_space_group_name_H-M_alt    "P 1"
_space_group_IT_number       1

loop_
  _space_group_symop_operation_xyz
  'x, y, z'

loop_
  _atom_site_type_symbol
  _atom_site_label
  _atom_site_symmetry_multiplicity
  _atom_site_fract_x
  _atom_site_fract_y
  _atom_site_fract_z
  _atom_site_occupancy
  Au  Au1       1.0  0.74800  0.25000  0.13000  1.0000
  Au  Au2       1.0  0.24800  0.25000  0.37000  1.0000
  Au  Au3       1.0  0.75200  0.75000  0.63000  1.0000
  Au  Au4       1.0  0.25200  0.75000  0.87000  1.0000
  Ca  Ca1       1.0  0.45800  0.75000  0.18100  1.0000
  Ca  Ca2       1.0  0.95800  0.75000  0.31900  1.0000
  Ca  Ca3       1.0  0.04210  0.25000  0.68100  1.0000
  Ca  Ca4       1.0  0.54200  0.25000  0.81900  1.0000
  Cd  Cd1       1.0  0.14300  0.25000  0.05930  1.0000
  Cd  Cd2       1.0  0.64300  0.25000  0.44100  1.0000
  Cd  Cd3       1.0  0.35700  0.75000  0.55900  1.0000
  Cd  Cd4       1.0  0.85700  0.75000  0.94100  1.0000
