data_image0
_chemical_formula_structural       Au4Be4
_chemical_formula_sum              "Au4 Be4"
_cell_length_a       4.71837
_cell_length_b       4.71837
_cell_length_c       4.71837
_cell_angle_alpha    90
_cell_angle_beta     90
_cell_angle_gamma    90

_space_group_name_H-M_alt    "P 1"
_space_group_IT_number       1

loop_
  _space_group_symop_operation_xyz
  'x, y, z'

loop_
  _atom_site_type_symbol
  _atom_site_label
  _atom_site_symmetry_multiplicity
  _atom_site_fract_x
  _atom_site_fract_y
  _atom_site_fract_z
  _atom_site_occupancy
  Au  Au1       1.0  0.15600  0.15600  0.15600  1.0000
  Au  Au2       1.0  0.84400  0.65600  0.34400  1.0000
  Au  Au3       1.0  0.34400  0.84400  0.65600  1.0000
  Au  Au4       1.0  0.65600  0.34400  0.84400  1.0000
  Be  Be1       1.0  0.34700  0.65300  0.15300  1.0000
  Be  Be2       1.0  0.65300  0.15300  0.34700  1.0000
  Be  Be3       1.0  0.15300  0.34700  0.65300  1.0000
  Be  Be4       1.0  0.84700  0.84700  0.84700  1.0000
