data_image0
_chemical_formula_structural       Bi4Pt4Se4
_chemical_formula_sum              "Bi4 Pt4 Se4"
_cell_length_a       6.51941
_cell_length_b       6.51941
_cell_length_c       6.51941
_cell_angle_alpha    90
_cell_angle_beta     90
_cell_angle_gamma    90

_space_group_name_H-M_alt    "P 1"
_space_group_IT_number       1

loop_
  _space_group_symop_operation_xyz
  'x, y, z'

loop_
  _atom_site_type_symbol
  _atom_site_label
  _atom_site_symmetry_multiplicity
  _atom_site_fract_x
  _atom_site_fract_y
  _atom_site_fract_z
  _atom_site_occupancy
  Bi  Bi1       1.0  0.62800  0.87200  0.12800  1.0000
  Bi  Bi2       1.0  0.37200  0.37200  0.37200  1.0000
  Bi  Bi3       1.0  0.87200  0.12800  0.62800  1.0000
  Bi  Bi4       1.0  0.12800  0.62800  0.87200  1.0000
  Pt  Pt1       1.0  0.01200  0.01200  0.01200  1.0000
  Pt  Pt2       1.0  0.98800  0.51200  0.48800  1.0000
  Pt  Pt3       1.0  0.48800  0.98800  0.51200  1.0000
  Pt  Pt4       1.0  0.51200  0.48800  0.98800  1.0000
  Se  Se1       1.0  0.87800  0.37800  0.12200  1.0000
  Se  Se2       1.0  0.12200  0.87800  0.37800  1.0000
  Se  Se3       1.0  0.62200  0.62200  0.62200  1.0000
  Se  Se4       1.0  0.37800  0.12200  0.87800  1.0000
