data_image0
_chemical_formula_structural       Au2Cl8Cs2
_chemical_formula_sum              "Au2 Cl8 Cs2"
_cell_length_a       6.25892
_cell_length_b       7.26061
_cell_length_c       9.82954
_cell_angle_alpha    103.451
_cell_angle_beta     90
_cell_angle_gamma    115.532

_space_group_name_H-M_alt    "P 1"
_space_group_IT_number       1

loop_
  _space_group_symop_operation_xyz
  'x, y, z'

loop_
  _atom_site_type_symbol
  _atom_site_label
  _atom_site_symmetry_multiplicity
  _atom_site_fract_x
  _atom_site_fract_y
  _atom_site_fract_z
  _atom_site_occupancy
  Au  Au1       1.0  0.50000  0.50000  0.00000  1.0000
  Au  Au2       1.0  0.00000  0.50000  0.50000  1.0000
  Cl  Cl1       1.0  0.72900  0.86200  0.07060  1.0000
  Cl  Cl2       1.0  0.76700  0.45300  0.13600  1.0000
  Cl  Cl3       1.0  0.31400  0.54700  0.36400  1.0000
  Cl  Cl4       1.0  0.86600  0.13800  0.42900  1.0000
  Cl  Cl5       1.0  0.13400  0.86200  0.57100  1.0000
  Cl  Cl6       1.0  0.68600  0.45300  0.63600  1.0000
  Cl  Cl7       1.0  0.23300  0.54700  0.86400  1.0000
  Cl  Cl8       1.0  0.27100  0.13800  0.92900  1.0000
  Cs  Cs1       1.0  0.29800  0.00000  0.25000  1.0000
  Cs  Cs2       1.0  0.70200  0.00000  0.75000  1.0000
