data_image0
_chemical_formula_structural       Ce4Pt4Zn4
_chemical_formula_sum              "Ce4 Pt4 Zn4"
_cell_length_a       7.17407
_cell_length_b       4.39706
_cell_length_c       8.20655
_cell_angle_alpha    90
_cell_angle_beta     90
_cell_angle_gamma    90

_space_group_name_H-M_alt    "P 1"
_space_group_IT_number       1

loop_
  _space_group_symop_operation_xyz
  'x, y, z'

loop_
  _atom_site_type_symbol
  _atom_site_label
  _atom_site_symmetry_multiplicity
  _atom_site_fract_x
  _atom_site_fract_y
  _atom_site_fract_z
  _atom_site_occupancy
  Ce  Ce1       1.0  0.47100  0.75000  0.19300  1.0000
  Ce  Ce2       1.0  0.97100  0.75000  0.30700  1.0000
  Ce  Ce3       1.0  0.02890  0.25000  0.69300  1.0000
  Ce  Ce4       1.0  0.52900  0.25000  0.80700  1.0000
  Pt  Pt1       1.0  0.77000  0.25000  0.10800  1.0000
  Pt  Pt2       1.0  0.27000  0.25000  0.39200  1.0000
  Pt  Pt3       1.0  0.73000  0.75000  0.60800  1.0000
  Pt  Pt4       1.0  0.23000  0.75000  0.89200  1.0000
  Zn  Zn1       1.0  0.15200  0.25000  0.06880  1.0000
  Zn  Zn2       1.0  0.65200  0.25000  0.43100  1.0000
  Zn  Zn3       1.0  0.34800  0.75000  0.56900  1.0000
  Zn  Zn4       1.0  0.84800  0.75000  0.93100  1.0000
