data_image0
_chemical_formula_structural       Ga8Ni2Tm2
_chemical_formula_sum              "Ga8 Ni2 Tm2"
_cell_length_a       4.06099
_cell_length_b       6.58684
_cell_length_c       7.83329
_cell_angle_alpha    90
_cell_angle_beta     74.9766
_cell_angle_gamma    90

_space_group_name_H-M_alt    "P 1"
_space_group_IT_number       1

loop_
  _space_group_symop_operation_xyz
  'x, y, z'

loop_
  _atom_site_type_symbol
  _atom_site_label
  _atom_site_symmetry_multiplicity
  _atom_site_fract_x
  _atom_site_fract_y
  _atom_site_fract_z
  _atom_site_occupancy
  Ga  Ga1       1.0  0.00000  0.00000  0.00000  1.0000
  Ga  Ga2       1.0  0.00000  0.50000  0.00000  1.0000
  Ga  Ga3       1.0  0.43000  0.25000  0.14000  1.0000
  Ga  Ga4       1.0  0.81500  0.05080  0.36900  1.0000
  Ga  Ga5       1.0  0.81500  0.44900  0.36900  1.0000
  Ga  Ga6       1.0  0.18500  0.55100  0.63100  1.0000
  Ga  Ga7       1.0  0.18500  0.94900  0.63100  1.0000
  Ga  Ga8       1.0  0.57000  0.75000  0.86000  1.0000
  Ni  Ni1       1.0  0.27500  0.25000  0.45000  1.0000
  Ni  Ni2       1.0  0.72500  0.75000  0.55000  1.0000
  Tm  Tm1       1.0  0.38000  0.75000  0.24000  1.0000
  Tm  Tm2       1.0  0.62000  0.25000  0.76000  1.0000
