data_image0
_chemical_formula_structural       K2Nd2O6Pd2
_chemical_formula_sum              "K2 Nd2 O6 Pd2"
_cell_length_a       3.95356
_cell_length_b       6.91569
_cell_length_c       7.35131
_cell_angle_alpha    104.258
_cell_angle_beta     90
_cell_angle_gamma    106.609

_space_group_name_H-M_alt    "P 1"
_space_group_IT_number       1

loop_
  _space_group_symop_operation_xyz
  'x, y, z'

loop_
  _atom_site_type_symbol
  _atom_site_label
  _atom_site_symmetry_multiplicity
  _atom_site_fract_x
  _atom_site_fract_y
  _atom_site_fract_z
  _atom_site_occupancy
  K   K1        1.0  0.35600  0.71300  0.43600  1.0000
  K   K2        1.0  0.64400  0.28700  0.56400  1.0000
  Nd  Nd1       1.0  0.65000  0.30000  0.07980  1.0000
  Nd  Nd2       1.0  0.35000  0.70000  0.92000  1.0000
  O   O1        1.0  0.83100  0.66300  0.13600  1.0000
  O   O2        1.0  0.49400  0.98700  0.19400  1.0000
  O   O3        1.0  0.15400  0.30800  0.28400  1.0000
  O   O4        1.0  0.84600  0.69200  0.71600  1.0000
  O   O5        1.0  0.50600  0.01290  0.80600  1.0000
  O   O6        1.0  0.16900  0.33700  0.86400  1.0000
  Pd  Pd1       1.0  0.99400  0.98800  0.23100  1.0000
  Pd  Pd2       1.0  0.00601  0.01200  0.76900  1.0000
