data_image0
_chemical_formula_structural       As4Ru4Te4
_chemical_formula_sum              "As4 Ru4 Te4"
_cell_length_a       6.414
_cell_length_b       6.35048
_cell_length_c       6.473
_cell_angle_alpha    90
_cell_angle_beta     113.594
_cell_angle_gamma    90

_space_group_name_H-M_alt    "P 1"
_space_group_IT_number       1

loop_
  _space_group_symop_operation_xyz
  'x, y, z'

loop_
  _atom_site_type_symbol
  _atom_site_label
  _atom_site_symmetry_multiplicity
  _atom_site_fract_x
  _atom_site_fract_y
  _atom_site_fract_z
  _atom_site_occupancy
  As  As1       1.0  0.35300  0.35600  0.17000  1.0000
  As  As2       1.0  0.64700  0.85600  0.33000  1.0000
  As  As3       1.0  0.35300  0.14400  0.67000  1.0000
  As  As4       1.0  0.64700  0.64400  0.83000  1.0000
  Ru  Ru1       1.0  0.71600  0.50800  0.20500  1.0000
  Ru  Ru2       1.0  0.28400  0.00841  0.29500  1.0000
  Ru  Ru3       1.0  0.71600  0.99200  0.70500  1.0000
  Ru  Ru4       1.0  0.28400  0.49200  0.79500  1.0000
  Te  Te1       1.0  0.84400  0.12600  0.13200  1.0000
  Te  Te2       1.0  0.15600  0.62600  0.36800  1.0000
  Te  Te3       1.0  0.84400  0.37400  0.63200  1.0000
  Te  Te4       1.0  0.15600  0.87400  0.86800  1.0000
