data_image0
_chemical_formula_structural       Al8Ni2Pr2
_chemical_formula_sum              "Al8 Ni2 Pr2"
_cell_length_a       4.15622
_cell_length_b       6.64604
_cell_length_c       8.20221
_cell_angle_alpha    90
_cell_angle_beta     75.3236
_cell_angle_gamma    90

_space_group_name_H-M_alt    "P 1"
_space_group_IT_number       1

loop_
  _space_group_symop_operation_xyz
  'x, y, z'

loop_
  _atom_site_type_symbol
  _atom_site_label
  _atom_site_symmetry_multiplicity
  _atom_site_fract_x
  _atom_site_fract_y
  _atom_site_fract_z
  _atom_site_occupancy
  Al  Al1       1.0  0.50000  0.00000  0.00000  1.0000
  Al  Al2       1.0  0.50000  0.50000  0.00000  1.0000
  Al  Al3       1.0  0.92200  0.25000  0.15600  1.0000
  Al  Al4       1.0  0.30900  0.05300  0.38100  1.0000
  Al  Al5       1.0  0.30900  0.44700  0.38100  1.0000
  Al  Al6       1.0  0.69100  0.55300  0.61900  1.0000
  Al  Al7       1.0  0.69100  0.94700  0.61900  1.0000
  Al  Al8       1.0  0.07820  0.75000  0.84400  1.0000
  Ni  Ni1       1.0  0.77600  0.25000  0.44900  1.0000
  Ni  Ni2       1.0  0.22400  0.75000  0.55100  1.0000
  Pr  Pr1       1.0  0.88600  0.75000  0.22900  1.0000
  Pr  Pr2       1.0  0.11400  0.25000  0.77100  1.0000
