data_image0
_chemical_formula_structural       K2O6Pd2Sm2
_chemical_formula_sum              "K2 O6 Pd2 Sm2"
_cell_length_a       3.92745
_cell_length_b       6.8554
_cell_length_c       7.31312
_cell_angle_alpha    104.015
_cell_angle_beta     90
_cell_angle_gamma    106.646

_space_group_name_H-M_alt    "P 1"
_space_group_IT_number       1

loop_
  _space_group_symop_operation_xyz
  'x, y, z'

loop_
  _atom_site_type_symbol
  _atom_site_label
  _atom_site_symmetry_multiplicity
  _atom_site_fract_x
  _atom_site_fract_y
  _atom_site_fract_z
  _atom_site_occupancy
  K   K1        1.0  0.35600  0.71200  0.43600  1.0000
  K   K2        1.0  0.64400  0.28800  0.56400  1.0000
  O   O1        1.0  0.83000  0.66000  0.13400  1.0000
  O   O2        1.0  0.49400  0.98700  0.19000  1.0000
  O   O3        1.0  0.15400  0.30900  0.28000  1.0000
  O   O4        1.0  0.84600  0.69100  0.72000  1.0000
  O   O5        1.0  0.50600  0.01250  0.81000  1.0000
  O   O6        1.0  0.17000  0.34000  0.86600  1.0000
  Pd  Pd1       1.0  0.99400  0.98800  0.23100  1.0000
  Pd  Pd2       1.0  0.00621  0.01240  0.76900  1.0000
  Sm  Sm1       1.0  0.65000  0.30000  0.07830  1.0000
  Sm  Sm2       1.0  0.35000  0.70000  0.92200  1.0000
