data_image0
_chemical_formula_structural       Al8Nd2Ni2
_chemical_formula_sum              "Al8 Nd2 Ni2"
_cell_length_a       4.13652
_cell_length_b       6.63396
_cell_length_c       8.16891
_cell_angle_alpha    90
_cell_angle_beta     75.3338
_cell_angle_gamma    90

_space_group_name_H-M_alt    "P 1"
_space_group_IT_number       1

loop_
  _space_group_symop_operation_xyz
  'x, y, z'

loop_
  _atom_site_type_symbol
  _atom_site_label
  _atom_site_symmetry_multiplicity
  _atom_site_fract_x
  _atom_site_fract_y
  _atom_site_fract_z
  _atom_site_occupancy
  Al  Al1       1.0  0.50000  0.00000  0.00000  1.0000
  Al  Al2       1.0  0.50000  0.50000  0.00000  1.0000
  Al  Al3       1.0  0.92100  0.25000  0.15700  1.0000
  Al  Al4       1.0  0.31000  0.05280  0.38100  1.0000
  Al  Al5       1.0  0.31000  0.44700  0.38100  1.0000
  Al  Al6       1.0  0.69000  0.55300  0.61900  1.0000
  Al  Al7       1.0  0.69000  0.94700  0.61900  1.0000
  Al  Al8       1.0  0.07870  0.75000  0.84300  1.0000
  Nd  Nd1       1.0  0.88600  0.75000  0.22800  1.0000
  Nd  Nd2       1.0  0.11400  0.25000  0.77200  1.0000
  Ni  Ni1       1.0  0.77500  0.25000  0.45000  1.0000
  Ni  Ni2       1.0  0.22500  0.75000  0.55000  1.0000
