data_image0
_chemical_formula_structural       CsCu2Sc3Te6
_chemical_formula_sum              "Cs1 Cu2 Sc3 Te6"
_cell_length_a       4.17025
_cell_length_b       9.18
_cell_length_c       10.3848
_cell_angle_alpha    112.496
_cell_angle_beta     90
_cell_angle_gamma    103.129

_space_group_name_H-M_alt    "P 1"
_space_group_IT_number       1

loop_
  _space_group_symop_operation_xyz
  'x, y, z'

loop_
  _atom_site_type_symbol
  _atom_site_label
  _atom_site_symmetry_multiplicity
  _atom_site_fract_x
  _atom_site_fract_y
  _atom_site_fract_z
  _atom_site_occupancy
  Cs  Cs1       1.0  0.00000  0.00000  0.50000  1.0000
  Cu  Cu1       1.0  0.72300  0.44600  0.41500  1.0000
  Cu  Cu2       1.0  0.27700  0.55400  0.58500  1.0000
  Sc  Sc1       1.0  0.00000  0.00000  0.00000  1.0000
  Sc  Sc2       1.0  0.71100  0.42300  0.13500  1.0000
  Sc  Sc3       1.0  0.28900  0.57700  0.86500  1.0000
  Te  Te1       1.0  0.85900  0.71800  0.07510  1.0000
  Te  Te2       1.0  0.57200  0.14400  0.21300  1.0000
  Te  Te3       1.0  0.29800  0.59500  0.35000  1.0000
  Te  Te4       1.0  0.70200  0.40500  0.65000  1.0000
  Te  Te5       1.0  0.42800  0.85600  0.78700  1.0000
  Te  Te6       1.0  0.14100  0.28200  0.92500  1.0000
