data_image0
_chemical_formula_structural       Ge2Tb2
_chemical_formula_sum              "Ge2 Tb2"
_cell_length_a       3.96357
_cell_length_b       4.31934
_cell_length_c       5.80198
_cell_angle_alpha    68.1468
_cell_angle_beta     90
_cell_angle_gamma    90

_space_group_name_H-M_alt    "P 1"
_space_group_IT_number       1

loop_
  _space_group_symop_operation_xyz
  'x, y, z'

loop_
  _atom_site_type_symbol
  _atom_site_label
  _atom_site_symmetry_multiplicity
  _atom_site_fract_x
  _atom_site_fract_y
  _atom_site_fract_z
  _atom_site_occupancy
  Ge  Ge1       1.0  0.75000  0.41600  0.16900  1.0000
  Ge  Ge2       1.0  0.25000  0.58400  0.83100  1.0000
  Tb  Tb1       1.0  0.25000  0.86100  0.27800  1.0000
  Tb  Tb2       1.0  0.75000  0.13900  0.72200  1.0000
