data_image0
_chemical_formula_structural       Dy2Ga2
_chemical_formula_sum              "Dy2 Ga2"
_cell_length_a       4.07161
_cell_length_b       4.31262
_cell_length_c       5.86161
_cell_angle_alpha    68.4157
_cell_angle_beta     90
_cell_angle_gamma    90

_space_group_name_H-M_alt    "P 1"
_space_group_IT_number       1

loop_
  _space_group_symop_operation_xyz
  'x, y, z'

loop_
  _atom_site_type_symbol
  _atom_site_label
  _atom_site_symmetry_multiplicity
  _atom_site_fract_x
  _atom_site_fract_y
  _atom_site_fract_z
  _atom_site_occupancy
  Dy  Dy1       1.0  0.25000  0.85900  0.28100  1.0000
  Dy  Dy2       1.0  0.75000  0.14100  0.71900  1.0000
  Ga  Ga1       1.0  0.75000  0.42300  0.15300  1.0000
  Ga  Ga2       1.0  0.25000  0.57700  0.84700  1.0000
