data_image0
_chemical_formula_structural       As4Pt4Tm4
_chemical_formula_sum              "As4 Pt4 Tm4"
_cell_length_a       4.27355
_cell_length_b       4.27245
_cell_length_c       14.9267
_cell_angle_alpha    90
_cell_angle_beta     90
_cell_angle_gamma    120.008

_space_group_name_H-M_alt    "P 1"
_space_group_IT_number       1

loop_
  _space_group_symop_operation_xyz
  'x, y, z'

loop_
  _atom_site_type_symbol
  _atom_site_label
  _atom_site_symmetry_multiplicity
  _atom_site_fract_x
  _atom_site_fract_y
  _atom_site_fract_z
  _atom_site_occupancy
  As  As1       1.0  0.66700  0.33300  0.11400  1.0000
  As  As2       1.0  0.66700  0.33300  0.38600  1.0000
  As  As3       1.0  0.33300  0.66700  0.61400  1.0000
  As  As4       1.0  0.33300  0.66700  0.88600  1.0000
  Pt  Pt1       1.0  0.33300  0.66700  0.13900  1.0000
  Pt  Pt2       1.0  0.33300  0.66700  0.36100  1.0000
  Pt  Pt3       1.0  0.66700  0.33300  0.63900  1.0000
  Pt  Pt4       1.0  0.66700  0.33300  0.86100  1.0000
  Tm  Tm1       1.0  0.00000  0.00000  0.00000  1.0000
  Tm  Tm2       1.0  0.00001  0.00002  0.25000  1.0000
  Tm  Tm3       1.0  0.00000  0.00000  0.50000  1.0000
  Tm  Tm4       1.0  0.00000  0.00000  0.75000  1.0000
