data_image0
_chemical_formula_structural       K2O6Pd2Pr2
_chemical_formula_sum              "K2 O6 Pd2 Pr2"
_cell_length_a       3.96698
_cell_length_b       6.95058
_cell_length_c       7.37044
_cell_angle_alpha    104.45
_cell_angle_beta     90
_cell_angle_gamma    106.581

_space_group_name_H-M_alt    "P 1"
_space_group_IT_number       1

loop_
  _space_group_symop_operation_xyz
  'x, y, z'

loop_
  _atom_site_type_symbol
  _atom_site_label
  _atom_site_symmetry_multiplicity
  _atom_site_fract_x
  _atom_site_fract_y
  _atom_site_fract_z
  _atom_site_occupancy
  K   K1        1.0  0.35700  0.71400  0.43500  1.0000
  K   K2        1.0  0.64300  0.28600  0.56500  1.0000
  O   O1        1.0  0.83200  0.66400  0.13800  1.0000
  O   O2        1.0  0.49400  0.98700  0.19500  1.0000
  O   O3        1.0  0.15400  0.30700  0.28600  1.0000
  O   O4        1.0  0.84600  0.69300  0.71400  1.0000
  O   O5        1.0  0.50600  0.01300  0.80500  1.0000
  O   O6        1.0  0.16800  0.33600  0.86200  1.0000
  Pd  Pd1       1.0  0.99400  0.98900  0.23200  1.0000
  Pd  Pd2       1.0  0.00569  0.01140  0.76800  1.0000
  Pr  Pr1       1.0  0.65000  0.30000  0.08080  1.0000
  Pr  Pr2       1.0  0.35000  0.70000  0.91900  1.0000
