data_image0
_chemical_formula_structural       O8Rb2Tc2
_chemical_formula_sum              "O8 Rb2 Tc2"
_cell_length_a       7.75835
_cell_length_b       5.69244
_cell_length_c       5.69244
_cell_angle_alpha    90
_cell_angle_beta     111.522
_cell_angle_gamma    111.522

_space_group_name_H-M_alt    "P 1"
_space_group_IT_number       1

loop_
  _space_group_symop_operation_xyz
  'x, y, z'

loop_
  _atom_site_type_symbol
  _atom_site_label
  _atom_site_symmetry_multiplicity
  _atom_site_fract_x
  _atom_site_fract_y
  _atom_site_fract_z
  _atom_site_occupancy
  O   O1        1.0  0.90000  0.72500  0.08760  1.0000
  O   O2        1.0  0.40000  0.08760  0.17400  1.0000
  O   O3        1.0  0.60000  0.68800  0.27500  1.0000
  O   O4        1.0  0.90000  0.17400  0.31200  1.0000
  O   O5        1.0  0.10000  0.82600  0.68800  1.0000
  O   O6        1.0  0.40000  0.31200  0.72500  1.0000
  O   O7        1.0  0.60000  0.91200  0.82600  1.0000
  O   O8        1.0  0.10000  0.27500  0.91200  1.0000
  Rb  Rb1       1.0  0.25000  0.62500  0.37500  1.0000
  Rb  Rb2       1.0  0.75000  0.37500  0.62500  1.0000
  Tc  Tc1       1.0  0.75000  0.87500  0.12500  1.0000
  Tc  Tc2       1.0  0.25000  0.12500  0.87500  1.0000
