data_image0
_chemical_formula_structural       AlMo2O8Tl
_chemical_formula_sum              "Al1 Mo2 O8 Tl1"
_cell_length_a       5.54846
_cell_length_b       5.54863
_cell_length_c       7.17737
_cell_angle_alpha    90
_cell_angle_beta     90.0032
_cell_angle_gamma    120.001

_space_group_name_H-M_alt    "P 1"
_space_group_IT_number       1

loop_
  _space_group_symop_operation_xyz
  'x, y, z'

loop_
  _atom_site_type_symbol
  _atom_site_label
  _atom_site_symmetry_multiplicity
  _atom_site_fract_x
  _atom_site_fract_y
  _atom_site_fract_z
  _atom_site_occupancy
  Al  Al1       1.0  0.00000  0.00000  0.00000  1.0000
  Mo  Mo1       1.0  0.66700  0.33300  0.23800  1.0000
  Mo  Mo2       1.0  0.33300  0.66700  0.76200  1.0000
  O   O1        1.0  0.31500  0.15700  0.15600  1.0000
  O   O2        1.0  0.84300  0.68500  0.15600  1.0000
  O   O3        1.0  0.84300  0.15700  0.15600  1.0000
  O   O4        1.0  0.66700  0.33300  0.48200  1.0000
  O   O5        1.0  0.33300  0.66700  0.51800  1.0000
  O   O6        1.0  0.15700  0.84300  0.84400  1.0000
  O   O7        1.0  0.15700  0.31500  0.84400  1.0000
  O   O8        1.0  0.68500  0.84300  0.84400  1.0000
  Tl  Tl1       1.0  1.00000  1.00000  0.50000  1.0000
