data_image0
_chemical_formula_structural       As4Lu4Pt4
_chemical_formula_sum              "As4 Lu4 Pt4"
_cell_length_a       4.26225
_cell_length_b       4.26256
_cell_length_c       14.7914
_cell_angle_alpha    90
_cell_angle_beta     90
_cell_angle_gamma    119.998

_space_group_name_H-M_alt    "P 1"
_space_group_IT_number       1

loop_
  _space_group_symop_operation_xyz
  'x, y, z'

loop_
  _atom_site_type_symbol
  _atom_site_label
  _atom_site_symmetry_multiplicity
  _atom_site_fract_x
  _atom_site_fract_y
  _atom_site_fract_z
  _atom_site_occupancy
  As  As1       1.0  0.66700  0.33300  0.11300  1.0000
  As  As2       1.0  0.66700  0.33300  0.38700  1.0000
  As  As3       1.0  0.33300  0.66700  0.61300  1.0000
  As  As4       1.0  0.33300  0.66700  0.88700  1.0000
  Lu  Lu1       1.0  0.00000  0.00000  0.00000  1.0000
  Lu  Lu2       1.0  0.00003  0.00006  0.25000  1.0000
  Lu  Lu3       1.0  0.00000  0.00000  0.50000  1.0000
  Lu  Lu4       1.0  0.00000  0.00000  0.75000  1.0000
  Pt  Pt1       1.0  0.33300  0.66700  0.13900  1.0000
  Pt  Pt2       1.0  0.33300  0.66700  0.36100  1.0000
  Pt  Pt3       1.0  0.66700  0.33300  0.63900  1.0000
  Pt  Pt4       1.0  0.66700  0.33300  0.86100  1.0000
