data_image0
_chemical_formula_structural       O8Ta2Tm2
_chemical_formula_sum              "O8 Ta2 Tm2"
_cell_length_a       5.06701
_cell_length_b       5.38094
_cell_length_c       5.24866
_cell_angle_alpha    90
_cell_angle_beta     96.2468
_cell_angle_gamma    90

_space_group_name_H-M_alt    "P 1"
_space_group_IT_number       1

loop_
  _space_group_symop_operation_xyz
  'x, y, z'

loop_
  _atom_site_type_symbol
  _atom_site_label
  _atom_site_symmetry_multiplicity
  _atom_site_fract_x
  _atom_site_fract_y
  _atom_site_fract_z
  _atom_site_occupancy
  O   O1        1.0  0.73700  0.56100  0.00922  1.0000
  O   O2        1.0  0.24900  0.92500  0.09250  1.0000
  O   O3        1.0  0.75100  0.92500  0.40700  1.0000
  O   O4        1.0  0.26300  0.56100  0.49100  1.0000
  O   O5        1.0  0.73700  0.43900  0.50900  1.0000
  O   O6        1.0  0.24900  0.07490  0.59300  1.0000
  O   O7        1.0  0.75100  0.07490  0.90700  1.0000
  O   O8        1.0  0.26300  0.43900  0.99100  1.0000
  Ta  Ta1       1.0  0.50000  0.70000  0.25000  1.0000
  Ta  Ta2       1.0  0.50000  0.30000  0.75000  1.0000
  Tm  Tm1       1.0  0.00000  0.23500  0.25000  1.0000
  Tm  Tm2       1.0  0.00000  0.76500  0.75000  1.0000
