data_image0
_chemical_formula_structural       Ga2Sc2
_chemical_formula_sum              "Ga2 Sc2"
_cell_length_a       3.89049
_cell_length_b       4.03574
_cell_length_c       5.50399
_cell_angle_alpha    68.4927
_cell_angle_beta     90
_cell_angle_gamma    90

_space_group_name_H-M_alt    "P 1"
_space_group_IT_number       1

loop_
  _space_group_symop_operation_xyz
  'x, y, z'

loop_
  _atom_site_type_symbol
  _atom_site_label
  _atom_site_symmetry_multiplicity
  _atom_site_fract_x
  _atom_site_fract_y
  _atom_site_fract_z
  _atom_site_occupancy
  Ga  Ga1       1.0  0.75000  0.41800  0.16500  1.0000
  Ga  Ga2       1.0  0.25000  0.58200  0.83500  1.0000
  Sc  Sc1       1.0  0.25000  0.86200  0.27700  1.0000
  Sc  Sc2       1.0  0.75000  0.13800  0.72300  1.0000
