data_image0
_chemical_formula_structural       Ge4Pt4Yb4
_chemical_formula_sum              "Ge4 Pt4 Yb4"
_cell_length_a       7.05387
_cell_length_b       4.41833
_cell_length_c       7.47394
_cell_angle_alpha    90
_cell_angle_beta     90
_cell_angle_gamma    90

_space_group_name_H-M_alt    "P 1"
_space_group_IT_number       1

loop_
  _space_group_symop_operation_xyz
  'x, y, z'

loop_
  _atom_site_type_symbol
  _atom_site_label
  _atom_site_symmetry_multiplicity
  _atom_site_fract_x
  _atom_site_fract_y
  _atom_site_fract_z
  _atom_site_occupancy
  Ge  Ge1       1.0  0.18300  0.25000  0.08210  1.0000
  Ge  Ge2       1.0  0.68300  0.25000  0.41800  1.0000
  Ge  Ge3       1.0  0.31700  0.75000  0.58200  1.0000
  Ge  Ge4       1.0  0.81700  0.75000  0.91800  1.0000
  Pt  Pt1       1.0  0.79700  0.25000  0.09290  1.0000
  Pt  Pt2       1.0  0.29700  0.25000  0.40700  1.0000
  Pt  Pt3       1.0  0.70300  0.75000  0.59300  1.0000
  Pt  Pt4       1.0  0.20300  0.75000  0.90700  1.0000
  Yb  Yb1       1.0  0.49000  0.75000  0.20000  1.0000
  Yb  Yb2       1.0  0.99000  0.75000  0.30000  1.0000
  Yb  Yb3       1.0  0.01010  0.25000  0.70000  1.0000
  Yb  Yb4       1.0  0.51000  0.25000  0.80000  1.0000
