data_image0
_chemical_formula_structural       Au2Rb2Te6U2
_chemical_formula_sum              "Au2 Rb2 Te6 U2"
_cell_length_a       4.42274
_cell_length_b       8.57431
_cell_length_c       11.4156
_cell_angle_alpha    90
_cell_angle_beta     90
_cell_angle_gamma    75.0541

_space_group_name_H-M_alt    "P 1"
_space_group_IT_number       1

loop_
  _space_group_symop_operation_xyz
  'x, y, z'

loop_
  _atom_site_type_symbol
  _atom_site_label
  _atom_site_symmetry_multiplicity
  _atom_site_fract_x
  _atom_site_fract_y
  _atom_site_fract_z
  _atom_site_occupancy
  Au  Au1       1.0  0.53700  0.92700  0.25000  1.0000
  Au  Au2       1.0  0.46300  0.07320  0.75000  1.0000
  Rb  Rb1       1.0  0.24600  0.50900  0.25000  1.0000
  Rb  Rb2       1.0  0.75400  0.49100  0.75000  1.0000
  Te  Te1       1.0  0.62700  0.74700  0.04620  1.0000
  Te  Te2       1.0  0.93100  0.13800  0.25000  1.0000
  Te  Te3       1.0  0.62700  0.74700  0.45400  1.0000
  Te  Te4       1.0  0.37300  0.25300  0.54600  1.0000
  Te  Te5       1.0  0.06910  0.86200  0.75000  1.0000
  Te  Te6       1.0  0.37300  0.25300  0.95400  1.0000
  U   U1        1.0  0.00000  0.00000  0.00000  1.0000
  U   U2        1.0  0.00000  0.00000  0.50000  1.0000
