data_image0
_chemical_formula_structural       I8La2Sr2
_chemical_formula_sum              "I8 La2 Sr2"
_cell_length_a       7.54361
_cell_length_b       8.62742
_cell_length_c       9.11277
_cell_angle_alpha    113.294
_cell_angle_beta     108.953
_cell_angle_gamma    100.85

_space_group_name_H-M_alt    "P 1"
_space_group_IT_number       1

loop_
  _space_group_symop_operation_xyz
  'x, y, z'

loop_
  _atom_site_type_symbol
  _atom_site_label
  _atom_site_symmetry_multiplicity
  _atom_site_fract_x
  _atom_site_fract_y
  _atom_site_fract_z
  _atom_site_occupancy
  I   I1        1.0  0.99400  0.75800  0.12400  1.0000
  I   I2        1.0  0.63000  0.36600  0.12400  1.0000
  I   I3        1.0  0.64300  0.05430  0.35400  1.0000
  I   I4        1.0  0.21100  0.30000  0.35400  1.0000
  I   I5        1.0  0.78900  0.70000  0.64600  1.0000
  I   I6        1.0  0.35700  0.94600  0.64600  1.0000
  I   I7        1.0  0.37000  0.63400  0.87600  1.0000
  I   I8        1.0  0.00572  0.24200  0.87600  1.0000
  La  La1       1.0  0.25000  0.00000  0.00000  1.0000
  La  La2       1.0  0.75000  0.00001  0.00003  1.0000
  Sr  Sr1       1.0  0.38500  0.63500  0.26900  1.0000
  Sr  Sr2       1.0  0.61500  0.36500  0.73100  1.0000
