data_image0
_chemical_formula_structural       Eu2Ga6Ni4
_chemical_formula_sum              "Eu2 Ga6 Ni4"
_cell_length_a       5.1297
_cell_length_b       6.34749
_cell_length_c       6.34749
_cell_angle_alpha    76.2169
_cell_angle_beta     90
_cell_angle_gamma    90

_space_group_name_H-M_alt    "P 1"
_space_group_IT_number       1

loop_
  _space_group_symop_operation_xyz
  'x, y, z'

loop_
  _atom_site_type_symbol
  _atom_site_label
  _atom_site_symmetry_multiplicity
  _atom_site_fract_x
  _atom_site_fract_y
  _atom_site_fract_z
  _atom_site_occupancy
  Eu  Eu1       1.0  0.75000  0.65900  0.34100  1.0000
  Eu  Eu2       1.0  0.25000  0.34100  0.65900  1.0000
  Ga  Ga1       1.0  0.25000  0.93900  0.06080  1.0000
  Ga  Ga2       1.0  0.25000  0.52800  0.09010  1.0000
  Ga  Ga3       1.0  0.25000  0.91000  0.47200  1.0000
  Ga  Ga4       1.0  0.75000  0.09010  0.52800  1.0000
  Ga  Ga5       1.0  0.75000  0.47200  0.91000  1.0000
  Ga  Ga6       1.0  0.75000  0.06080  0.93900  1.0000
  Ni  Ni1       1.0  0.00000  0.20500  0.20500  1.0000
  Ni  Ni2       1.0  0.50000  0.20500  0.20500  1.0000
  Ni  Ni3       1.0  0.00000  0.79500  0.79500  1.0000
  Ni  Ni4       1.0  0.50000  0.79500  0.79500  1.0000
