data_image0
_chemical_formula_structural       Bi4Ir4S4
_chemical_formula_sum              "Bi4 Ir4 S4"
_cell_length_a       6.21682
_cell_length_b       6.21682
_cell_length_c       6.21682
_cell_angle_alpha    90
_cell_angle_beta     90
_cell_angle_gamma    90

_space_group_name_H-M_alt    "P 1"
_space_group_IT_number       1

loop_
  _space_group_symop_operation_xyz
  'x, y, z'

loop_
  _atom_site_type_symbol
  _atom_site_label
  _atom_site_symmetry_multiplicity
  _atom_site_fract_x
  _atom_site_fract_y
  _atom_site_fract_z
  _atom_site_occupancy
  Bi  Bi1       1.0  0.63000  0.87000  0.13000  1.0000
  Bi  Bi2       1.0  0.37000  0.37000  0.37000  1.0000
  Bi  Bi3       1.0  0.87000  0.13000  0.63000  1.0000
  Bi  Bi4       1.0  0.13000  0.63000  0.87000  1.0000
  Ir  Ir1       1.0  0.02400  0.02400  0.02400  1.0000
  Ir  Ir2       1.0  0.97600  0.52400  0.47600  1.0000
  Ir  Ir3       1.0  0.47600  0.97600  0.52400  1.0000
  Ir  Ir4       1.0  0.52400  0.47600  0.97600  1.0000
  S   S1        1.0  0.88300  0.38300  0.11700  1.0000
  S   S2        1.0  0.11700  0.88300  0.38300  1.0000
  S   S3        1.0  0.61700  0.61700  0.61700  1.0000
  S   S4        1.0  0.38300  0.11700  0.88300  1.0000
