data_image0
_chemical_formula_structural       Pt2Pu2
_chemical_formula_sum              "Pt2 Pu2"
_cell_length_a       3.89093
_cell_length_b       4.31572
_cell_length_c       5.74886
_cell_angle_alpha    90
_cell_angle_beta     70.2201
_cell_angle_gamma    90

_space_group_name_H-M_alt    "P 1"
_space_group_IT_number       1

loop_
  _space_group_symop_operation_xyz
  'x, y, z'

loop_
  _atom_site_type_symbol
  _atom_site_label
  _atom_site_symmetry_multiplicity
  _atom_site_fract_x
  _atom_site_fract_y
  _atom_site_fract_z
  _atom_site_occupancy
  Pt  Pt1       1.0  0.41100  0.75000  0.17900  1.0000
  Pt  Pt2       1.0  0.58900  0.25000  0.82100  1.0000
  Pu  Pu1       1.0  0.86100  0.25000  0.27800  1.0000
  Pu  Pu2       1.0  0.13900  0.75000  0.72200  1.0000
