data_image0
_chemical_formula_structural       Fe9Gd3
_chemical_formula_sum              "Fe9 Gd3"
_cell_length_a       5.09531
_cell_length_b       5.09531
_cell_length_c       8.64005
_cell_angle_alpha    90
_cell_angle_beta     72.8505
_cell_angle_gamma    120

_space_group_name_H-M_alt    "P 1"
_space_group_IT_number       1

loop_
  _space_group_symop_operation_xyz
  'x, y, z'

loop_
  _atom_site_type_symbol
  _atom_site_label
  _atom_site_symmetry_multiplicity
  _atom_site_fract_x
  _atom_site_fract_y
  _atom_site_fract_z
  _atom_site_occupancy
  Fe  Fe1       1.0  0.33500  0.66700  0.99800  1.0000
  Fe  Fe2       1.0  0.66500  0.33300  0.00230  1.0000
  Fe  Fe3       1.0  0.33700  0.91700  0.24300  1.0000
  Fe  Fe4       1.0  0.33700  0.42000  0.24300  1.0000
  Fe  Fe5       1.0  0.84000  0.42000  0.24300  1.0000
  Fe  Fe6       1.0  0.00000  0.50000  0.50000  1.0000
  Fe  Fe7       1.0  0.16000  0.58000  0.75700  1.0000
  Fe  Fe8       1.0  0.66300  0.58000  0.75700  1.0000
  Fe  Fe9       1.0  0.66300  0.08280  0.75700  1.0000
  Gd  Gd1       1.0  0.00000  0.00000  0.00000  1.0000
  Gd  Gd2       1.0  0.71600  0.85800  0.42500  1.0000
  Gd  Gd3       1.0  0.28400  0.14200  0.57500  1.0000
