data_image0
_chemical_formula_structural       F2Lu2O6Se2
_chemical_formula_sum              "F2 Lu2 O6 Se2"
_cell_length_a       6.3954
_cell_length_b       6.77792
_cell_length_c       4.21522
_cell_angle_alpha    94.4009
_cell_angle_beta     97.1906
_cell_angle_gamma    92.1303

_space_group_name_H-M_alt    "P 1"
_space_group_IT_number       1

loop_
  _space_group_symop_operation_xyz
  'x, y, z'

loop_
  _atom_site_type_symbol
  _atom_site_label
  _atom_site_symmetry_multiplicity
  _atom_site_fract_x
  _atom_site_fract_y
  _atom_site_fract_z
  _atom_site_occupancy
  F   F1        1.0  0.65200  0.74300  0.04260  1.0000
  F   F2        1.0  0.34800  0.25700  0.95700  1.0000
  Lu  Lu1       1.0  0.37100  0.24400  0.45900  1.0000
  Lu  Lu2       1.0  0.62900  0.75600  0.54100  1.0000
  O   O1        1.0  0.32300  0.92000  0.38400  1.0000
  O   O2        1.0  0.02120  0.23000  0.39400  1.0000
  O   O3        1.0  0.31800  0.56800  0.49200  1.0000
  O   O4        1.0  0.68200  0.43200  0.50800  1.0000
  O   O5        1.0  0.97900  0.77000  0.60600  1.0000
  O   O6        1.0  0.67700  0.08040  0.61600  1.0000
  Se  Se1       1.0  0.13400  0.72400  0.31500  1.0000
  Se  Se2       1.0  0.86600  0.27600  0.68500  1.0000
