data_image0
_chemical_formula_structural       Ce4Ni4P4
_chemical_formula_sum              "Ce4 Ni4 P4"
_cell_length_a       4.01167
_cell_length_b       4.01169
_cell_length_c       16.4574
_cell_angle_alpha    90
_cell_angle_beta     90
_cell_angle_gamma    120

_space_group_name_H-M_alt    "P 1"
_space_group_IT_number       1

loop_
  _space_group_symop_operation_xyz
  'x, y, z'

loop_
  _atom_site_type_symbol
  _atom_site_label
  _atom_site_symmetry_multiplicity
  _atom_site_fract_x
  _atom_site_fract_y
  _atom_site_fract_z
  _atom_site_occupancy
  Ce  Ce1       1.0  0.00000  0.00000  0.00000  1.0000
  Ce  Ce2       1.0  0.00000  0.00000  0.25000  1.0000
  Ce  Ce3       1.0  0.00000  0.00000  0.50000  1.0000
  Ce  Ce4       1.0  0.00000  0.00001  0.75000  1.0000
  Ni  Ni1       1.0  0.33300  0.66700  0.12500  1.0000
  Ni  Ni2       1.0  0.33300  0.66700  0.37500  1.0000
  Ni  Ni3       1.0  0.66700  0.33300  0.62500  1.0000
  Ni  Ni4       1.0  0.66700  0.33300  0.87500  1.0000
  P   P1        1.0  0.66700  0.33300  0.12500  1.0000
  P   P2        1.0  0.66700  0.33300  0.37500  1.0000
  P   P3        1.0  0.33300  0.66700  0.62500  1.0000
  P   P4        1.0  0.33300  0.66700  0.87500  1.0000
