data_image0
_chemical_formula_structural       Ag2O8S2
_chemical_formula_sum              "Ag2 O8 S2"
_cell_length_a       4.67599
_cell_length_b       4.7601
_cell_length_c       8.11968
_cell_angle_alpha    101.886
_cell_angle_beta     76.0494
_cell_angle_gamma    118.625

_space_group_name_H-M_alt    "P 1"
_space_group_IT_number       1

loop_
  _space_group_symop_operation_xyz
  'x, y, z'

loop_
  _atom_site_type_symbol
  _atom_site_label
  _atom_site_symmetry_multiplicity
  _atom_site_fract_x
  _atom_site_fract_y
  _atom_site_fract_z
  _atom_site_occupancy
  Ag  Ag1       1.0  0.00000  0.00000  0.00000  1.0000
  Ag  Ag2       1.0  0.50000  0.50000  0.50000  1.0000
  O   O1        1.0  0.25500  0.81900  0.11100  1.0000
  O   O2        1.0  0.89800  0.28900  0.22100  1.0000
  O   O3        1.0  0.47700  0.62000  0.26100  1.0000
  O   O4        1.0  0.04100  0.76200  0.41800  1.0000
  O   O5        1.0  0.95900  0.23800  0.58200  1.0000
  O   O6        1.0  0.52300  0.38000  0.73900  1.0000
  O   O7        1.0  0.10200  0.71100  0.77900  1.0000
  O   O8        1.0  0.74500  0.18100  0.88900  1.0000
  S   S1        1.0  0.16300  0.62300  0.25200  1.0000
  S   S2        1.0  0.83700  0.37700  0.74800  1.0000
