data_image0
_chemical_formula_structural       In8Pt2Sr2
_chemical_formula_sum              "In8 Pt2 Sr2"
_cell_length_a       4.58791
_cell_length_b       7.55984
_cell_length_c       8.8981
_cell_angle_alpha    90
_cell_angle_beta     75.0603
_cell_angle_gamma    90

_space_group_name_H-M_alt    "P 1"
_space_group_IT_number       1

loop_
  _space_group_symop_operation_xyz
  'x, y, z'

loop_
  _atom_site_type_symbol
  _atom_site_label
  _atom_site_symmetry_multiplicity
  _atom_site_fract_x
  _atom_site_fract_y
  _atom_site_fract_z
  _atom_site_occupancy
  In  In1       1.0  0.50000  0.00000  0.00000  1.0000
  In  In2       1.0  0.50000  0.50000  0.00000  1.0000
  In  In3       1.0  0.93300  0.75000  0.13500  1.0000
  In  In4       1.0  0.31600  0.54900  0.36800  1.0000
  In  In5       1.0  0.31600  0.95100  0.36800  1.0000
  In  In6       1.0  0.68400  0.04940  0.63200  1.0000
  In  In7       1.0  0.68400  0.45100  0.63200  1.0000
  In  In8       1.0  0.06730  0.25000  0.86500  1.0000
  Pt  Pt1       1.0  0.77500  0.75000  0.45000  1.0000
  Pt  Pt2       1.0  0.22500  0.25000  0.55000  1.0000
  Sr  Sr1       1.0  0.87400  0.25000  0.25100  1.0000
  Sr  Sr2       1.0  0.12600  0.75000  0.74900  1.0000
