data_image0
_chemical_formula_structural       Dy2Ga8Ni2
_chemical_formula_sum              "Dy2 Ga8 Ni2"
_cell_length_a       4.08892
_cell_length_b       6.57975
_cell_length_c       7.90576
_cell_angle_alpha    90
_cell_angle_beta     75.0128
_cell_angle_gamma    90

_space_group_name_H-M_alt    "P 1"
_space_group_IT_number       1

loop_
  _space_group_symop_operation_xyz
  'x, y, z'

loop_
  _atom_site_type_symbol
  _atom_site_label
  _atom_site_symmetry_multiplicity
  _atom_site_fract_x
  _atom_site_fract_y
  _atom_site_fract_z
  _atom_site_occupancy
  Dy  Dy1       1.0  0.88100  0.75000  0.23800  1.0000
  Dy  Dy2       1.0  0.11900  0.25000  0.76200  1.0000
  Ga  Ga1       1.0  0.50000  0.00000  0.00000  1.0000
  Ga  Ga2       1.0  0.50000  0.50000  0.00000  1.0000
  Ga  Ga3       1.0  0.92900  0.25000  0.14200  1.0000
  Ga  Ga4       1.0  0.31500  0.05130  0.37100  1.0000
  Ga  Ga5       1.0  0.31500  0.44900  0.37100  1.0000
  Ga  Ga6       1.0  0.68500  0.55100  0.62900  1.0000
  Ga  Ga7       1.0  0.68500  0.94900  0.62900  1.0000
  Ga  Ga8       1.0  0.07110  0.75000  0.85800  1.0000
  Ni  Ni1       1.0  0.77600  0.25000  0.44900  1.0000
  Ni  Ni2       1.0  0.22400  0.75000  0.55100  1.0000
