data_image0
_chemical_formula_structural       F10P2
_chemical_formula_sum              "F10 P2"
_cell_length_a       5.09634
_cell_length_b       5.09701
_cell_length_c       5.63743
_cell_angle_alpha    90
_cell_angle_beta     90
_cell_angle_gamma    119.996

_space_group_name_H-M_alt    "P 1"
_space_group_IT_number       1

loop_
  _space_group_symop_operation_xyz
  'x, y, z'

loop_
  _atom_site_type_symbol
  _atom_site_label
  _atom_site_symmetry_multiplicity
  _atom_site_fract_x
  _atom_site_fract_y
  _atom_site_fract_z
  _atom_site_occupancy
  F   F1        1.0  0.66700  0.33300  0.03410  1.0000
  F   F2        1.0  0.15900  0.31700  0.25000  1.0000
  F   F3        1.0  0.15900  0.84100  0.25000  1.0000
  F   F4        1.0  0.68300  0.84100  0.25000  1.0000
  F   F5        1.0  0.66700  0.33300  0.46600  1.0000
  F   F6        1.0  0.33300  0.66700  0.53400  1.0000
  F   F7        1.0  0.31700  0.15900  0.75000  1.0000
  F   F8        1.0  0.84100  0.15900  0.75000  1.0000
  F   F9        1.0  0.84100  0.68300  0.75000  1.0000
  F   F10       1.0  0.33300  0.66700  0.96600  1.0000
  P   P1        1.0  0.33300  0.66700  0.25000  1.0000
  P   P2        1.0  0.66700  0.33300  0.75000  1.0000
