data_image0
_chemical_formula_structural       Eu2In8Ni2
_chemical_formula_sum              "Eu2 In8 Ni2"
_cell_length_a       4.49463
_cell_length_b       7.26919
_cell_length_c       8.78672
_cell_angle_alpha    90
_cell_angle_beta     75.1812
_cell_angle_gamma    90

_space_group_name_H-M_alt    "P 1"
_space_group_IT_number       1

loop_
  _space_group_symop_operation_xyz
  'x, y, z'

loop_
  _atom_site_type_symbol
  _atom_site_label
  _atom_site_symmetry_multiplicity
  _atom_site_fract_x
  _atom_site_fract_y
  _atom_site_fract_z
  _atom_site_occupancy
  Eu  Eu1       1.0  0.87800  0.75000  0.24400  1.0000
  Eu  Eu2       1.0  0.12200  0.25000  0.75600  1.0000
  In  In1       1.0  0.50000  0.00000  0.00000  1.0000
  In  In2       1.0  0.50000  0.50000  0.00000  1.0000
  In  In3       1.0  0.92600  0.25000  0.14800  1.0000
  In  In4       1.0  0.31200  0.04650  0.37700  1.0000
  In  In5       1.0  0.31200  0.45400  0.37700  1.0000
  In  In6       1.0  0.68800  0.54600  0.62300  1.0000
  In  In7       1.0  0.68800  0.95400  0.62300  1.0000
  In  In8       1.0  0.07390  0.75000  0.85200  1.0000
  Ni  Ni1       1.0  0.77500  0.25000  0.45100  1.0000
  Ni  Ni2       1.0  0.22500  0.75000  0.54900  1.0000
