data_image0
_chemical_formula_structural       Ba2I8La2
_chemical_formula_sum              "Ba2 I8 La2"
_cell_length_a       7.56532
_cell_length_b       8.99403
_cell_length_c       9.25414
_cell_angle_alpha    113.63
_cell_angle_beta     107.912
_cell_angle_gamma    102.019

_space_group_name_H-M_alt    "P 1"
_space_group_IT_number       1

loop_
  _space_group_symop_operation_xyz
  'x, y, z'

loop_
  _atom_site_type_symbol
  _atom_site_label
  _atom_site_symmetry_multiplicity
  _atom_site_fract_x
  _atom_site_fract_y
  _atom_site_fract_z
  _atom_site_occupancy
  Ba  Ba1       1.0  0.88400  0.63400  0.26800  1.0000
  Ba  Ba2       1.0  0.11600  0.36600  0.73200  1.0000
  I   I1        1.0  0.48800  0.76800  0.12600  1.0000
  I   I2        1.0  0.13800  0.35800  0.12600  1.0000
  I   I3        1.0  0.70400  0.28900  0.34700  1.0000
  I   I4        1.0  0.14300  0.05780  0.34700  1.0000
  I   I5        1.0  0.85700  0.94200  0.65300  1.0000
  I   I6        1.0  0.29600  0.71100  0.65300  1.0000
  I   I7        1.0  0.86200  0.64200  0.87400  1.0000
  I   I8        1.0  0.51200  0.23200  0.87400  1.0000
  La  La1       1.0  0.75100  0.00068  0.00135  1.0000
  La  La2       1.0  0.24900  0.99900  0.99900  1.0000
