data_image0
_chemical_formula_structural       I8La2Sm2
_chemical_formula_sum              "I8 La2 Sm2"
_cell_length_a       7.7298
_cell_length_b       8.05525
_cell_length_c       8.91144
_cell_angle_alpha    112.413
_cell_angle_beta     111.103
_cell_angle_gamma    99.3791

_space_group_name_H-M_alt    "P 1"
_space_group_IT_number       1

loop_
  _space_group_symop_operation_xyz
  'x, y, z'

loop_
  _atom_site_type_symbol
  _atom_site_label
  _atom_site_symmetry_multiplicity
  _atom_site_fract_x
  _atom_site_fract_y
  _atom_site_fract_z
  _atom_site_occupancy
  I   I1        1.0  0.99200  0.24500  0.12000  1.0000
  I   I2        1.0  0.62800  0.87500  0.12000  1.0000
  I   I3        1.0  0.22100  0.81400  0.37000  1.0000
  I   I4        1.0  0.64900  0.55600  0.37000  1.0000
  I   I5        1.0  0.35100  0.44400  0.63000  1.0000
  I   I6        1.0  0.77900  0.18600  0.63000  1.0000
  I   I7        1.0  0.37200  0.12500  0.88000  1.0000
  I   I8        1.0  0.00817  0.75500  0.88000  1.0000
  La  La1       1.0  0.74300  0.49300  0.98700  1.0000
  La  La2       1.0  0.25700  0.50700  0.01300  1.0000
  Sm  Sm1       1.0  0.38100  0.13100  0.26200  1.0000
  Sm  Sm2       1.0  0.61900  0.86900  0.73800  1.0000
