data_image0
_chemical_formula_structural       Er5S7
_chemical_formula_sum              "Er5 S7"
_cell_length_a       3.76639
_cell_length_b       6.62594
_cell_length_c       11.5162
_cell_angle_alpha    103.982
_cell_angle_beta     90
_cell_angle_gamma    106.512

_space_group_name_H-M_alt    "P 1"
_space_group_IT_number       1

loop_
  _space_group_symop_operation_xyz
  'x, y, z'

loop_
  _atom_site_type_symbol
  _atom_site_label
  _atom_site_symmetry_multiplicity
  _atom_site_fract_x
  _atom_site_fract_y
  _atom_site_fract_z
  _atom_site_occupancy
  Er  Er1       1.0  0.00000  0.00000  0.00000  1.0000
  Er  Er2       1.0  0.30000  0.60100  0.18800  1.0000
  Er  Er3       1.0  0.11200  0.22400  0.42200  1.0000
  Er  Er4       1.0  0.88800  0.77600  0.57800  1.0000
  Er  Er5       1.0  0.70000  0.39900  0.81200  1.0000
  S   S1        1.0  0.66000  0.31900  0.05150  1.0000
  S   S2        1.0  0.95900  0.91900  0.21500  1.0000
  S   S3        1.0  0.74100  0.48200  0.35300  1.0000
  S   S4        1.0  0.50000  0.00000  0.50000  1.0000
  S   S5        1.0  0.25900  0.51800  0.64700  1.0000
  S   S6        1.0  0.04070  0.08140  0.78500  1.0000
  S   S7        1.0  0.34000  0.68100  0.94800  1.0000
