data_image0
_chemical_formula_structural       Dy3Ni9
_chemical_formula_sum              "Dy3 Ni9"
_cell_length_a       4.93923
_cell_length_b       4.93923
_cell_length_c       8.59043
_cell_angle_alpha    106.707
_cell_angle_beta     73.2926
_cell_angle_gamma    120

_space_group_name_H-M_alt    "P 1"
_space_group_IT_number       1

loop_
  _space_group_symop_operation_xyz
  'x, y, z'

loop_
  _atom_site_type_symbol
  _atom_site_label
  _atom_site_symmetry_multiplicity
  _atom_site_fract_x
  _atom_site_fract_y
  _atom_site_fract_z
  _atom_site_occupancy
  Dy  Dy1       1.0  0.00000  0.00000  0.00000  1.0000
  Dy  Dy2       1.0  0.86100  0.13900  0.41700  1.0000
  Dy  Dy3       1.0  0.13900  0.86100  0.58300  1.0000
  Ni  Ni1       1.0  0.33300  0.66700  0.00094  1.0000
  Ni  Ni2       1.0  0.41700  0.08110  0.24600  1.0000
  Ni  Ni3       1.0  0.41700  0.58300  0.24600  1.0000
  Ni  Ni4       1.0  0.91900  0.58300  0.24600  1.0000
  Ni  Ni5       1.0  0.50000  0.50000  0.50000  1.0000
  Ni  Ni6       1.0  0.08110  0.41700  0.75400  1.0000
  Ni  Ni7       1.0  0.58300  0.41700  0.75400  1.0000
  Ni  Ni8       1.0  0.58300  0.91900  0.75400  1.0000
  Ni  Ni9       1.0  0.66700  0.33300  0.99900  1.0000
