data_image0
_chemical_formula_structural       Au4Ba4
_chemical_formula_sum              "Au4 Ba4"
_cell_length_a       8.38323
_cell_length_b       4.97935
_cell_length_c       6.44164
_cell_angle_alpha    90
_cell_angle_beta     90
_cell_angle_gamma    90

_space_group_name_H-M_alt    "P 1"
_space_group_IT_number       1

loop_
  _space_group_symop_operation_xyz
  'x, y, z'

loop_
  _atom_site_type_symbol
  _atom_site_label
  _atom_site_symmetry_multiplicity
  _atom_site_fract_x
  _atom_site_fract_y
  _atom_site_fract_z
  _atom_site_occupancy
  Au  Au1       1.0  0.46000  0.75000  0.13500  1.0000
  Au  Au2       1.0  0.96000  0.75000  0.36500  1.0000
  Au  Au3       1.0  0.04040  0.25000  0.63500  1.0000
  Au  Au4       1.0  0.54000  0.25000  0.86500  1.0000
  Ba  Ba1       1.0  0.18300  0.25000  0.13600  1.0000
  Ba  Ba2       1.0  0.68300  0.25000  0.36400  1.0000
  Ba  Ba3       1.0  0.31700  0.75000  0.63600  1.0000
  Ba  Ba4       1.0  0.81700  0.75000  0.86400  1.0000
