data_image0
_chemical_formula_structural       Au4Ga4
_chemical_formula_sum              "Au4 Ga4"
_cell_length_a       6.37347
_cell_length_b       3.57241
_cell_length_c       6.46789
_cell_angle_alpha    90
_cell_angle_beta     90
_cell_angle_gamma    90

_space_group_name_H-M_alt    "P 1"
_space_group_IT_number       1

loop_
  _space_group_symop_operation_xyz
  'x, y, z'

loop_
  _atom_site_type_symbol
  _atom_site_label
  _atom_site_symmetry_multiplicity
  _atom_site_fract_x
  _atom_site_fract_y
  _atom_site_fract_z
  _atom_site_occupancy
  Au  Au1       1.0  0.00777  0.25000  0.18800  1.0000
  Au  Au2       1.0  0.50800  0.25000  0.31200  1.0000
  Au  Au3       1.0  0.49200  0.75000  0.68800  1.0000
  Au  Au4       1.0  0.99200  0.75000  0.81200  1.0000
  Ga  Ga1       1.0  0.32000  0.75000  0.07030  1.0000
  Ga  Ga2       1.0  0.82000  0.75000  0.43000  1.0000
  Ga  Ga3       1.0  0.18000  0.25000  0.57000  1.0000
  Ga  Ga4       1.0  0.68000  0.25000  0.93000  1.0000
