data_image0
_chemical_formula_structural       Cr13Ga13
_chemical_formula_sum              "Cr13 Ga13"
_cell_length_a       7.68157
_cell_length_b       7.68157
_cell_length_c       7.68157
_cell_angle_alpha    109.286
_cell_angle_beta     109.286
_cell_angle_gamma    109.286

_space_group_name_H-M_alt    "P 1"
_space_group_IT_number       1

loop_
  _space_group_symop_operation_xyz
  'x, y, z'

loop_
  _atom_site_type_symbol
  _atom_site_label
  _atom_site_symmetry_multiplicity
  _atom_site_fract_x
  _atom_site_fract_y
  _atom_site_fract_z
  _atom_site_occupancy
  Cr  Cr1       1.0  0.50000  0.50000  0.50000  1.0000
  Cr  Cr2       1.0  0.18100  0.18100  0.39100  1.0000
  Cr  Cr3       1.0  0.39100  0.18100  0.18100  1.0000
  Cr  Cr4       1.0  0.18100  0.39100  0.18100  1.0000
  Cr  Cr5       1.0  0.81900  0.81900  0.60900  1.0000
  Cr  Cr6       1.0  0.81900  0.60900  0.81900  1.0000
  Cr  Cr7       1.0  0.60900  0.81900  0.81900  1.0000
  Cr  Cr8       1.0  0.19900  0.19900  0.86300  1.0000
  Cr  Cr9       1.0  0.86300  0.19900  0.19900  1.0000
  Cr  Cr10      1.0  0.19900  0.86300  0.19900  1.0000
  Cr  Cr11      1.0  0.80100  0.80100  0.13700  1.0000
  Cr  Cr12      1.0  0.80100  0.13700  0.80100  1.0000
  Cr  Cr13      1.0  0.13700  0.80100  0.80100  1.0000
  Ga  Ga1       1.0  0.00000  0.00000  0.00000  1.0000
  Ga  Ga2       1.0  0.54700  0.54700  0.19300  1.0000
  Ga  Ga3       1.0  0.19300  0.54700  0.54700  1.0000
  Ga  Ga4       1.0  0.54700  0.19300  0.54700  1.0000
  Ga  Ga5       1.0  0.45300  0.45300  0.80700  1.0000
  Ga  Ga6       1.0  0.45300  0.80700  0.45300  1.0000
  Ga  Ga7       1.0  0.80700  0.45300  0.45300  1.0000
  Ga  Ga8       1.0  0.50000  0.88900  0.11100  1.0000
  Ga  Ga9       1.0  0.88900  0.11100  0.50000  1.0000
  Ga  Ga10      1.0  0.11100  0.50000  0.88900  1.0000
  Ga  Ga11      1.0  0.50000  0.11100  0.88900  1.0000
  Ga  Ga12      1.0  0.11100  0.88900  0.50000  1.0000
  Ga  Ga13      1.0  0.88900  0.50000  0.11100  1.0000
