data_image0
_chemical_formula_structural       Dy3S7Sc2
_chemical_formula_sum              "Dy3 S7 Sc2"
_cell_length_a       3.73464
_cell_length_b       6.48501
_cell_length_c       11.3623
_cell_angle_alpha    104.478
_cell_angle_beta     90
_cell_angle_gamma    106.735

_space_group_name_H-M_alt    "P 1"
_space_group_IT_number       1

loop_
  _space_group_symop_operation_xyz
  'x, y, z'

loop_
  _atom_site_type_symbol
  _atom_site_label
  _atom_site_symmetry_multiplicity
  _atom_site_fract_x
  _atom_site_fract_y
  _atom_site_fract_z
  _atom_site_occupancy
  Dy  Dy1       1.0  0.00000  0.00000  0.00000  1.0000
  Dy  Dy2       1.0  0.30400  0.60700  0.20100  1.0000
  Dy  Dy3       1.0  0.69600  0.39300  0.79900  1.0000
  S   S1        1.0  0.66300  0.32500  0.05350  1.0000
  S   S2        1.0  0.96700  0.93500  0.22400  1.0000
  S   S3        1.0  0.73600  0.47200  0.36100  1.0000
  S   S4        1.0  0.50000  0.00000  0.50000  1.0000
  S   S5        1.0  0.26400  0.52800  0.63900  1.0000
  S   S6        1.0  0.03260  0.06520  0.77600  1.0000
  S   S7        1.0  0.33700  0.67500  0.94600  1.0000
  Sc  Sc1       1.0  0.11100  0.22300  0.42900  1.0000
  Sc  Sc2       1.0  0.88900  0.77700  0.57100  1.0000
