data_image0
_chemical_formula_structural       Mo2O8ScTl
_chemical_formula_sum              "Mo2 O8 Sc1 Tl1"
_cell_length_a       5.79813
_cell_length_b       5.79811
_cell_length_c       7.25729
_cell_angle_alpha    90
_cell_angle_beta     89.9985
_cell_angle_gamma    120

_space_group_name_H-M_alt    "P 1"
_space_group_IT_number       1

loop_
  _space_group_symop_operation_xyz
  'x, y, z'

loop_
  _atom_site_type_symbol
  _atom_site_label
  _atom_site_symmetry_multiplicity
  _atom_site_fract_x
  _atom_site_fract_y
  _atom_site_fract_z
  _atom_site_occupancy
  Mo  Mo1       1.0  0.66700  0.33300  0.25500  1.0000
  Mo  Mo2       1.0  0.33300  0.66700  0.74500  1.0000
  O   O1        1.0  0.32900  0.16500  0.17400  1.0000
  O   O2        1.0  0.83500  0.67100  0.17400  1.0000
  O   O3        1.0  0.83500  0.16500  0.17400  1.0000
  O   O4        1.0  0.66700  0.33300  0.49700  1.0000
  O   O5        1.0  0.33300  0.66700  0.50300  1.0000
  O   O6        1.0  0.16500  0.83500  0.82600  1.0000
  O   O7        1.0  0.16500  0.32900  0.82600  1.0000
  O   O8        1.0  0.67100  0.83500  0.82600  1.0000
  Sc  Sc1       1.0  0.00000  0.00000  0.00000  1.0000
  Tl  Tl1       1.0  0.00000  0.00000  0.50000  1.0000
