data_image0
_chemical_formula_structural       H96Li8N32
_chemical_formula_sum              "H96 Li8 N32"
_cell_length_a       11.4758
_cell_length_b       11.4758
_cell_length_c       11.4759
_cell_angle_alpha    109.471
_cell_angle_beta     109.471
_cell_angle_gamma    109.471

_space_group_name_H-M_alt    "P 1"
_space_group_IT_number       1

loop_
  _space_group_symop_operation_xyz
  'x, y, z'

loop_
  _atom_site_type_symbol
  _atom_site_label
  _atom_site_symmetry_multiplicity
  _atom_site_fract_x
  _atom_site_fract_y
  _atom_site_fract_z
  _atom_site_occupancy
  H   H1        1.0  0.37300  0.76500  0.00507  1.0000
  H   H2        1.0  0.55700  0.10200  0.01370  1.0000
  H   H3        1.0  0.79600  0.59500  0.03400  1.0000
  H   H4        1.0  0.58800  0.48600  0.04280  1.0000
  H   H5        1.0  0.94300  0.45700  0.04530  1.0000
  H   H6        1.0  0.10200  0.51400  0.05650  1.0000
  H   H7        1.0  0.26200  0.96600  0.06080  1.0000
  H   H8        1.0  0.48600  0.54300  0.08820  1.0000
  H   H9        1.0  0.81400  0.22300  0.08950  1.0000
  H   H10       1.0  0.77700  0.86700  0.09170  1.0000
  H   H11       1.0  0.53400  0.79600  0.09490  1.0000
  H   H12       1.0  0.05650  0.01370  0.10200  1.0000
  H   H13       1.0  0.23500  0.24000  0.10800  1.0000
  H   H14       1.0  0.89200  0.13200  0.12700  1.0000
  H   H15       1.0  0.39200  0.12700  0.13200  1.0000
  H   H16       1.0  0.41100  0.72500  0.13300  1.0000
  H   H17       1.0  0.27500  0.40800  0.18600  1.0000
  H   H18       1.0  0.93900  0.90500  0.20100  1.0000
  H   H19       1.0  0.23800  0.79900  0.20400  1.0000
  H   H20       1.0  0.31400  0.08950  0.22300  1.0000
  H   H21       1.0  0.63300  0.41100  0.22500  1.0000
  H   H22       1.0  0.10800  0.74000  0.23500  1.0000
  H   H23       1.0  0.20400  0.29900  0.23800  1.0000
  H   H24       1.0  0.73500  0.10800  0.24000  1.0000
  H   H25       1.0  0.86800  0.99500  0.26000  1.0000
  H   H26       1.0  0.06080  0.46600  0.26200  1.0000
  H   H27       1.0  0.50500  0.37300  0.26500  1.0000
  H   H28       1.0  0.18600  0.90800  0.27500  1.0000
  H   H29       1.0  0.86700  0.59200  0.27700  1.0000
  H   H30       1.0  0.59500  0.53400  0.29600  1.0000
  H   H31       1.0  0.70400  0.23800  0.29900  1.0000
  H   H32       1.0  0.22300  0.58900  0.31400  1.0000
  H   H33       1.0  0.59200  0.77700  0.36700  1.0000
  H   H34       1.0  0.99500  0.76000  0.36800  1.0000
  H   H35       1.0  0.00508  0.26500  0.37300  1.0000
  H   H36       1.0  0.13200  0.62700  0.39200  1.0000
  H   H37       1.0  0.91200  0.45500  0.39800  1.0000
  H   H38       1.0  0.70100  0.93900  0.40500  1.0000
  H   H39       1.0  0.77500  0.18600  0.40800  1.0000
  H   H40       1.0  0.13300  0.22500  0.41100  1.0000
  H   H41       1.0  0.45500  0.89800  0.41200  1.0000
  H   H42       1.0  0.90500  0.70100  0.43900  1.0000
  H   H43       1.0  0.45700  0.54500  0.44300  1.0000
  H   H44       1.0  0.41200  0.39800  0.45500  1.0000
  H   H45       1.0  0.44300  0.04530  0.45700  1.0000
  H   H46       1.0  0.56100  0.26200  0.46600  1.0000
  H   H47       1.0  0.08820  0.04280  0.48600  1.0000
  H   H48       1.0  0.76000  0.86800  0.49500  1.0000
  H   H49       1.0  0.26500  0.87300  0.50500  1.0000
  H   H50       1.0  0.60200  0.05650  0.51400  1.0000
  H   H51       1.0  0.09490  0.29600  0.53400  1.0000
  H   H52       1.0  0.98600  0.08820  0.54300  1.0000
  H   H53       1.0  0.95700  0.44300  0.54500  1.0000
  H   H54       1.0  0.01370  0.60200  0.55700  1.0000
  H   H55       1.0  0.46600  0.76200  0.56100  1.0000
  H   H56       1.0  0.04280  0.98600  0.58800  1.0000
  H   H57       1.0  0.72300  0.31400  0.58900  1.0000
  H   H58       1.0  0.36700  0.27700  0.59200  1.0000
  H   H59       1.0  0.29600  0.03400  0.59500  1.0000
  H   H60       1.0  0.51400  0.55700  0.60200  1.0000
  H   H61       1.0  0.74000  0.73500  0.60800  1.0000
  H   H62       1.0  0.63200  0.39200  0.62700  1.0000
  H   H63       1.0  0.62700  0.89200  0.63200  1.0000
  H   H64       1.0  0.22500  0.91100  0.63300  1.0000
  H   H65       1.0  0.90800  0.77500  0.68600  1.0000
  H   H66       1.0  0.40500  0.43900  0.70100  1.0000
  H   H67       1.0  0.29900  0.73800  0.70400  1.0000
  H   H68       1.0  0.58900  0.81400  0.72300  1.0000
  H   H69       1.0  0.91100  0.13300  0.72500  1.0000
  H   H70       1.0  0.24000  0.60800  0.73500  1.0000
  H   H71       1.0  0.79900  0.70400  0.73800  1.0000
  H   H72       1.0  0.60800  0.23500  0.74000  1.0000
  H   H73       1.0  0.49500  0.36800  0.76000  1.0000
  H   H74       1.0  0.96600  0.56100  0.76200  1.0000
  H   H75       1.0  0.87300  0.00507  0.76500  1.0000
  H   H76       1.0  0.40800  0.68600  0.77500  1.0000
  H   H77       1.0  0.09170  0.36700  0.77700  1.0000
  H   H78       1.0  0.03400  0.09490  0.79600  1.0000
  H   H79       1.0  0.73800  0.20400  0.79900  1.0000
  H   H80       1.0  0.08950  0.72300  0.81400  1.0000
  H   H81       1.0  0.27700  0.09170  0.86700  1.0000
  H   H82       1.0  0.26000  0.49500  0.86800  1.0000
  H   H83       1.0  0.76500  0.50500  0.87300  1.0000
  H   H84       1.0  0.12700  0.63200  0.89200  1.0000
  H   H85       1.0  0.95500  0.41200  0.89800  1.0000
  H   H86       1.0  0.43900  0.20100  0.90500  1.0000
  H   H87       1.0  0.68600  0.27500  0.90800  1.0000
  H   H88       1.0  0.72500  0.63300  0.91100  1.0000
  H   H89       1.0  0.39800  0.95500  0.91200  1.0000
  H   H90       1.0  0.20100  0.40500  0.93900  1.0000
  H   H91       1.0  0.04530  0.95700  0.94300  1.0000
  H   H92       1.0  0.89800  0.91200  0.95500  1.0000
  H   H93       1.0  0.54500  0.94300  0.95700  1.0000
  H   H94       1.0  0.76200  0.06080  0.96600  1.0000
  H   H95       1.0  0.54300  0.58800  0.98600  1.0000
  H   H96       1.0  0.36800  0.26000  0.99500  1.0000
  Li  Li1       1.0  0.00000  0.74700  0.00000  1.0000
  Li  Li2       1.0  0.00000  0.24700  0.00000  1.0000
  Li  Li3       1.0  0.50000  0.00000  0.24700  1.0000
  Li  Li4       1.0  0.75300  0.75300  0.25300  1.0000
  Li  Li5       1.0  0.74700  0.50000  0.50000  1.0000
  Li  Li6       1.0  0.24700  0.50000  0.50000  1.0000
  Li  Li7       1.0  0.50000  0.00000  0.74700  1.0000
  Li  Li8       1.0  0.25300  0.25300  0.75300  1.0000
  N   N1        1.0  1.00000  0.92700  1.00000  1.0000
  N   N2        1.0  0.00000  0.42700  0.00000  1.0000
  N   N3        1.0  0.85100  0.15600  0.04980  1.0000
  N   N4        1.0  0.57300  0.57300  0.07310  1.0000
  N   N5        1.0  0.45000  0.80100  0.10600  1.0000
  N   N6        1.0  0.19900  0.30500  0.14900  1.0000
  N   N7        1.0  0.35100  0.04980  0.15600  1.0000
  N   N8        1.0  0.84400  0.89400  0.19500  1.0000
  N   N9        1.0  0.14900  0.80500  0.19900  1.0000
  N   N10       1.0  0.60600  0.45000  0.30100  1.0000
  N   N11       1.0  0.69900  0.14900  0.30500  1.0000
  N   N12       1.0  0.89400  0.69500  0.34400  1.0000
  N   N13       1.0  0.15600  0.55000  0.35100  1.0000
  N   N14       1.0  0.69500  0.84400  0.39400  1.0000
  N   N15       1.0  0.50000  0.00000  0.42700  1.0000
  N   N16       1.0  0.10600  0.30100  0.45000  1.0000
  N   N17       1.0  0.42700  0.50000  0.50000  1.0000
  N   N18       1.0  0.92700  0.50000  0.50000  1.0000
  N   N19       1.0  0.65600  0.35100  0.55000  1.0000
  N   N20       1.0  0.07310  0.07310  0.57300  1.0000
  N   N21       1.0  0.30100  0.95000  0.60600  1.0000
  N   N22       1.0  0.80500  0.69900  0.64900  1.0000
  N   N23       1.0  0.55000  0.85100  0.65600  1.0000
  N   N24       1.0  0.39400  0.34400  0.69500  1.0000
  N   N25       1.0  0.30500  0.64900  0.69900  1.0000
  N   N26       1.0  0.95000  0.10600  0.80100  1.0000
  N   N27       1.0  0.64900  0.19900  0.80500  1.0000
  N   N28       1.0  0.19500  0.39400  0.84400  1.0000
  N   N29       1.0  0.04980  0.65600  0.85100  1.0000
  N   N30       1.0  0.34400  0.19500  0.89400  1.0000
  N   N31       1.0  0.50000  0.00000  0.92700  1.0000
  N   N32       1.0  0.80100  0.60600  0.95000  1.0000
