data_image0
_chemical_formula_structural       Ga8Ti4
_chemical_formula_sum              "Ga8 Ti4"
_cell_length_a       3.92766
_cell_length_b       3.92766
_cell_length_c       12.4928
_cell_angle_alpha    99.0442
_cell_angle_beta     99.0442
_cell_angle_gamma    90

_space_group_name_H-M_alt    "P 1"
_space_group_IT_number       1

loop_
  _space_group_symop_operation_xyz
  'x, y, z'

loop_
  _atom_site_type_symbol
  _atom_site_label
  _atom_site_symmetry_multiplicity
  _atom_site_fract_x
  _atom_site_fract_y
  _atom_site_fract_z
  _atom_site_occupancy
  Ga  Ga1       1.0  0.00000  0.50000  0.99900  1.0000
  Ga  Ga2       1.0  0.50000  0.00047  0.00093  1.0000
  Ga  Ga3       1.0  0.58800  0.58800  0.17700  1.0000
  Ga  Ga4       1.0  0.66200  0.16200  0.32300  1.0000
  Ga  Ga5       1.0  0.75000  0.75000  0.49900  1.0000
  Ga  Ga6       1.0  0.25000  0.25000  0.50100  1.0000
  Ga  Ga7       1.0  0.83800  0.33800  0.67700  1.0000
  Ga  Ga8       1.0  0.41200  0.41200  0.82300  1.0000
  Ti  Ti1       1.0  0.07640  0.07640  0.15300  1.0000
  Ti  Ti2       1.0  0.17400  0.67400  0.34700  1.0000
  Ti  Ti3       1.0  0.32600  0.82600  0.65300  1.0000
  Ti  Ti4       1.0  0.92400  0.92400  0.84700  1.0000
