data_image0
_chemical_formula_structural       Hf6Sb6
_chemical_formula_sum              "Hf6 Sb6"
_cell_length_a       3.77074
_cell_length_b       5.55248
_cell_length_c       14.0196
_cell_angle_alpha    90
_cell_angle_beta     90
_cell_angle_gamma    70.1503

_space_group_name_H-M_alt    "P 1"
_space_group_IT_number       1

loop_
  _space_group_symop_operation_xyz
  'x, y, z'

loop_
  _atom_site_type_symbol
  _atom_site_label
  _atom_site_symmetry_multiplicity
  _atom_site_fract_x
  _atom_site_fract_y
  _atom_site_fract_z
  _atom_site_occupancy
  Hf  Hf1       1.0  0.92900  0.14100  0.10900  1.0000
  Hf  Hf2       1.0  0.61300  0.77400  0.25000  1.0000
  Hf  Hf3       1.0  0.92900  0.14100  0.39100  1.0000
  Hf  Hf4       1.0  0.07070  0.85900  0.60900  1.0000
  Hf  Hf5       1.0  0.38700  0.22600  0.75000  1.0000
  Hf  Hf6       1.0  0.07070  0.85900  0.89100  1.0000
  Sb  Sb1       1.0  0.64300  0.71400  0.04920  1.0000
  Sb  Sb2       1.0  0.32600  0.34900  0.25000  1.0000
  Sb  Sb3       1.0  0.64300  0.71400  0.45100  1.0000
  Sb  Sb4       1.0  0.35700  0.28600  0.54900  1.0000
  Sb  Sb5       1.0  0.67400  0.65100  0.75000  1.0000
  Sb  Sb6       1.0  0.35700  0.28600  0.95100  1.0000
