data_image0
_chemical_formula_structural       Eu2K2O6Pd2
_chemical_formula_sum              "Eu2 K2 O6 Pd2"
_cell_length_a       3.92968
_cell_length_b       6.87813
_cell_length_c       7.17614
_cell_angle_alpha    103.592
_cell_angle_beta     90
_cell_angle_gamma    106.599

_space_group_name_H-M_alt    "P 1"
_space_group_IT_number       1

loop_
  _space_group_symop_operation_xyz
  'x, y, z'

loop_
  _atom_site_type_symbol
  _atom_site_label
  _atom_site_symmetry_multiplicity
  _atom_site_fract_x
  _atom_site_fract_y
  _atom_site_fract_z
  _atom_site_occupancy
  Eu  Eu1       1.0  0.65300  0.30600  0.07550  1.0000
  Eu  Eu2       1.0  0.34700  0.69400  0.92400  1.0000
  K   K1        1.0  0.35200  0.70400  0.43300  1.0000
  K   K2        1.0  0.64800  0.29600  0.56700  1.0000
  O   O1        1.0  0.84000  0.68000  0.14000  1.0000
  O   O2        1.0  0.49600  0.99200  0.20100  1.0000
  O   O3        1.0  0.15100  0.30200  0.28900  1.0000
  O   O4        1.0  0.84900  0.69800  0.71100  1.0000
  O   O5        1.0  0.50400  0.00835  0.79900  1.0000
  O   O6        1.0  0.16000  0.32000  0.86000  1.0000
  Pd  Pd1       1.0  0.99600  0.99200  0.22000  1.0000
  Pd  Pd2       1.0  0.00391  0.00783  0.78000  1.0000
