data_image0
_chemical_formula_structural       Ce2I8Nd2
_chemical_formula_sum              "Ce2 I8 Nd2"
_cell_length_a       7.75127
_cell_length_b       7.80145
_cell_length_c       9.1813
_cell_angle_alpha    112.193
_cell_angle_beta     112.005
_cell_angle_gamma    96.4095

_space_group_name_H-M_alt    "P 1"
_space_group_IT_number       1

loop_
  _space_group_symop_operation_xyz
  'x, y, z'

loop_
  _atom_site_type_symbol
  _atom_site_label
  _atom_site_symmetry_multiplicity
  _atom_site_fract_x
  _atom_site_fract_y
  _atom_site_fract_z
  _atom_site_occupancy
  Ce  Ce1       1.0  0.21500  0.46500  0.93000  1.0000
  Ce  Ce2       1.0  0.78500  0.53500  0.06980  1.0000
  I   I1        1.0  0.48300  0.25000  0.11400  1.0000
  I   I2        1.0  0.13100  0.86400  0.11400  1.0000
  I   I3        1.0  0.16900  0.55200  0.38900  1.0000
  I   I4        1.0  0.72000  0.83600  0.38900  1.0000
  I   I5        1.0  0.28000  0.16400  0.61100  1.0000
  I   I6        1.0  0.83100  0.44800  0.61100  1.0000
  I   I7        1.0  0.86900  0.13600  0.88600  1.0000
  I   I8        1.0  0.51700  0.75000  0.88600  1.0000
  Nd  Nd1       1.0  0.88500  0.13500  0.26900  1.0000
  Nd  Nd2       1.0  0.11500  0.86500  0.73100  1.0000
