data_image0
_chemical_formula_structural       Ni2Pu2
_chemical_formula_sum              "Ni2 Pu2"
_cell_length_a       3.67017
_cell_length_b       4.05162
_cell_length_c       5.47521
_cell_angle_alpha    90
_cell_angle_beta     70.4176
_cell_angle_gamma    90

_space_group_name_H-M_alt    "P 1"
_space_group_IT_number       1

loop_
  _space_group_symop_operation_xyz
  'x, y, z'

loop_
  _atom_site_type_symbol
  _atom_site_label
  _atom_site_symmetry_multiplicity
  _atom_site_fract_x
  _atom_site_fract_y
  _atom_site_fract_z
  _atom_site_occupancy
  Ni  Ni1       1.0  0.42900  0.75000  0.14100  1.0000
  Ni  Ni2       1.0  0.57100  0.25000  0.85900  1.0000
  Pu  Pu1       1.0  0.85400  0.25000  0.29200  1.0000
  Pu  Pu2       1.0  0.14600  0.75000  0.70800  1.0000
