data_image0
_chemical_formula_structural       K2La2O6Pd2
_chemical_formula_sum              "K2 La2 O6 Pd2"
_cell_length_a       3.98359
_cell_length_b       6.9979
_cell_length_c       7.39874
_cell_angle_alpha    104.9
_cell_angle_beta     90
_cell_angle_gamma    106.537

_space_group_name_H-M_alt    "P 1"
_space_group_IT_number       1

loop_
  _space_group_symop_operation_xyz
  'x, y, z'

loop_
  _atom_site_type_symbol
  _atom_site_label
  _atom_site_symmetry_multiplicity
  _atom_site_fract_x
  _atom_site_fract_y
  _atom_site_fract_z
  _atom_site_occupancy
  K   K1        1.0  0.35700  0.71400  0.43500  1.0000
  K   K2        1.0  0.64300  0.28600  0.56500  1.0000
  La  La1       1.0  0.65100  0.30100  0.08470  1.0000
  La  La2       1.0  0.34900  0.69900  0.91500  1.0000
  O   O1        1.0  0.83300  0.66500  0.13900  1.0000
  O   O2        1.0  0.49300  0.98700  0.19500  1.0000
  O   O3        1.0  0.15300  0.30600  0.28900  1.0000
  O   O4        1.0  0.84700  0.69400  0.71100  1.0000
  O   O5        1.0  0.50700  0.01340  0.80500  1.0000
  O   O6        1.0  0.16700  0.33500  0.86100  1.0000
  Pd  Pd1       1.0  0.99400  0.98800  0.23400  1.0000
  Pd  Pd2       1.0  0.00595  0.01190  0.76600  1.0000
