data_image0
_chemical_formula_structural       Cu2O10P2U
_chemical_formula_sum              "Cu2 O10 P2 U1"
_cell_length_a       5.01514
_cell_length_b       5.77349
_cell_length_c       7.57283
_cell_angle_alpha    112.408
_cell_angle_beta     106.716
_cell_angle_gamma    90

_space_group_name_H-M_alt    "P 1"
_space_group_IT_number       1

loop_
  _space_group_symop_operation_xyz
  'x, y, z'

loop_
  _atom_site_type_symbol
  _atom_site_label
  _atom_site_symmetry_multiplicity
  _atom_site_fract_x
  _atom_site_fract_y
  _atom_site_fract_z
  _atom_site_occupancy
  Cu  Cu1       1.0  0.50000  0.00000  0.50000  1.0000
  Cu  Cu2       1.0  0.50000  0.50000  0.50000  1.0000
  O   O1        1.0  0.85400  0.36700  0.17200  1.0000
  O   O2        1.0  0.85400  0.80500  0.17200  1.0000
  O   O3        1.0  0.34300  0.09340  0.18700  1.0000
  O   O4        1.0  0.72200  0.71900  0.43700  1.0000
  O   O5        1.0  0.22400  0.71900  0.43800  1.0000
  O   O6        1.0  0.77600  0.28100  0.56200  1.0000
  O   O7        1.0  0.27800  0.28100  0.56300  1.0000
  O   O8        1.0  0.65700  0.90700  0.81300  1.0000
  O   O9        1.0  0.14600  0.19500  0.82800  1.0000
  O   O10       1.0  0.14600  0.63300  0.82800  1.0000
  P   P1        1.0  0.91200  0.64900  0.29700  1.0000
  P   P2        1.0  0.08810  0.35100  0.70300  1.0000
  U   U1        1.0  0.00000  0.00000  0.00000  1.0000
