data_image0
_chemical_formula_structural       C6Mn2N6Ru
_chemical_formula_sum              "C6 Mn2 N6 Ru1"
_cell_length_a       6.01884
_cell_length_b       6.02057
_cell_length_c       6.69729
_cell_angle_alpha    89.9995
_cell_angle_beta     89.9878
_cell_angle_gamma    120.005

_space_group_name_H-M_alt    "P 1"
_space_group_IT_number       1

loop_
  _space_group_symop_operation_xyz
  'x, y, z'

loop_
  _atom_site_type_symbol
  _atom_site_label
  _atom_site_symmetry_multiplicity
  _atom_site_fract_x
  _atom_site_fract_y
  _atom_site_fract_z
  _atom_site_occupancy
  C   C1        1.0  0.25800  0.99700  0.18700  1.0000
  C   C2        1.0  0.00303  0.26100  0.18700  1.0000
  C   C3        1.0  0.74000  0.74200  0.18700  1.0000
  C   C4        1.0  0.26000  0.25800  0.81300  1.0000
  C   C5        1.0  0.99700  0.73900  0.81300  1.0000
  C   C6        1.0  0.74200  0.00265  0.81300  1.0000
  Mn  Mn1       1.0  0.66700  0.33300  0.49600  1.0000
  Mn  Mn2       1.0  0.33300  0.66700  0.50400  1.0000
  N   N1        1.0  0.00363  0.39600  0.31600  1.0000
  N   N2        1.0  0.39200  0.99700  0.31600  1.0000
  N   N3        1.0  0.60500  0.60700  0.31600  1.0000
  N   N4        1.0  0.39500  0.39300  0.68400  1.0000
  N   N5        1.0  0.60800  0.00303  0.68400  1.0000
  N   N6        1.0  0.99600  0.60400  0.68400  1.0000
  Ru  Ru1       1.0  0.00000  0.00000  0.00000  1.0000
