data_image0
_chemical_formula_structural       Ru8Zr4
_chemical_formula_sum              "Ru8 Zr4"
_cell_length_a       5.17741
_cell_length_b       5.17743
_cell_length_c       8.59755
_cell_angle_alpha    90
_cell_angle_beta     90
_cell_angle_gamma    120

_space_group_name_H-M_alt    "P 1"
_space_group_IT_number       1

loop_
  _space_group_symop_operation_xyz
  'x, y, z'

loop_
  _atom_site_type_symbol
  _atom_site_label
  _atom_site_symmetry_multiplicity
  _atom_site_fract_x
  _atom_site_fract_y
  _atom_site_fract_z
  _atom_site_occupancy
  Ru  Ru1       1.0  0.00000  0.00000  0.00000  1.0000
  Ru  Ru2       1.0  0.34300  0.17100  0.25000  1.0000
  Ru  Ru3       1.0  0.82900  0.17100  0.25000  1.0000
  Ru  Ru4       1.0  0.82900  0.65700  0.25000  1.0000
  Ru  Ru5       1.0  0.00000  0.00000  0.50000  1.0000
  Ru  Ru6       1.0  0.17100  0.34300  0.75000  1.0000
  Ru  Ru7       1.0  0.17100  0.82900  0.75000  1.0000
  Ru  Ru8       1.0  0.65700  0.82900  0.75000  1.0000
  Zr  Zr1       1.0  0.33300  0.66700  0.06700  1.0000
  Zr  Zr2       1.0  0.33300  0.66700  0.43300  1.0000
  Zr  Zr3       1.0  0.66700  0.33300  0.56700  1.0000
  Zr  Zr4       1.0  0.66700  0.33300  0.93300  1.0000
