data_image0
_chemical_formula_structural       Bi4Os4Se4
_chemical_formula_sum              "Bi4 Os4 Se4"
_cell_length_a       6.6072
_cell_length_b       6.48198
_cell_length_c       6.62382
_cell_angle_alpha    90
_cell_angle_beta     113.407
_cell_angle_gamma    90

_space_group_name_H-M_alt    "P 1"
_space_group_IT_number       1

loop_
  _space_group_symop_operation_xyz
  'x, y, z'

loop_
  _atom_site_type_symbol
  _atom_site_label
  _atom_site_symmetry_multiplicity
  _atom_site_fract_x
  _atom_site_fract_y
  _atom_site_fract_z
  _atom_site_occupancy
  Bi  Bi1       1.0  0.85600  0.13800  0.12300  1.0000
  Bi  Bi2       1.0  0.14400  0.63800  0.37700  1.0000
  Bi  Bi3       1.0  0.85600  0.36200  0.62300  1.0000
  Bi  Bi4       1.0  0.14400  0.86200  0.87700  1.0000
  Os  Os1       1.0  0.70300  0.51400  0.19600  1.0000
  Os  Os2       1.0  0.29700  0.01360  0.30400  1.0000
  Os  Os3       1.0  0.70300  0.98600  0.69600  1.0000
  Os  Os4       1.0  0.29700  0.48600  0.80400  1.0000
  Se  Se1       1.0  0.35300  0.36400  0.17900  1.0000
  Se  Se2       1.0  0.64700  0.86400  0.32100  1.0000
  Se  Se3       1.0  0.35300  0.13600  0.67900  1.0000
  Se  Se4       1.0  0.64700  0.63600  0.82100  1.0000
