data_image0
_chemical_formula_structural       Ni9Sm3
_chemical_formula_sum              "Ni9 Sm3"
_cell_length_a       5.0006
_cell_length_b       5.0006
_cell_length_c       8.68289
_cell_angle_alpha    73.2643
_cell_angle_beta     106.736
_cell_angle_gamma    120

_space_group_name_H-M_alt    "P 1"
_space_group_IT_number       1

loop_
  _space_group_symop_operation_xyz
  'x, y, z'

loop_
  _atom_site_type_symbol
  _atom_site_label
  _atom_site_symmetry_multiplicity
  _atom_site_fract_x
  _atom_site_fract_y
  _atom_site_fract_z
  _atom_site_occupancy
  Ni  Ni1       1.0  0.66700  0.33300  0.00128  1.0000
  Ni  Ni2       1.0  0.08150  0.41800  0.24500  1.0000
  Ni  Ni3       1.0  0.58200  0.41800  0.24500  1.0000
  Ni  Ni4       1.0  0.58200  0.91900  0.24500  1.0000
  Ni  Ni5       1.0  0.50000  0.50000  0.50000  1.0000
  Ni  Ni6       1.0  0.41800  0.08150  0.75500  1.0000
  Ni  Ni7       1.0  0.41800  0.58200  0.75500  1.0000
  Ni  Ni8       1.0  0.91900  0.58200  0.75500  1.0000
  Ni  Ni9       1.0  0.33300  0.66700  0.99900  1.0000
  Sm  Sm1       1.0  0.00000  0.00000  0.00000  1.0000
  Sm  Sm2       1.0  0.13900  0.86100  0.41800  1.0000
  Sm  Sm3       1.0  0.86100  0.13900  0.58200  1.0000
