data_image0
_chemical_formula_structural       Cu4Mn4P4
_chemical_formula_sum              "Cu4 Mn4 P4"
_cell_length_a       5.93985
_cell_length_b       3.4909
_cell_length_c       7.21487
_cell_angle_alpha    90
_cell_angle_beta     89.9995
_cell_angle_gamma    90

_space_group_name_H-M_alt    "P 1"
_space_group_IT_number       1

loop_
  _space_group_symop_operation_xyz
  'x, y, z'

loop_
  _atom_site_type_symbol
  _atom_site_label
  _atom_site_symmetry_multiplicity
  _atom_site_fract_x
  _atom_site_fract_y
  _atom_site_fract_z
  _atom_site_occupancy
  Cu  Cu1       1.0  0.63700  0.25000  0.06440  1.0000
  Cu  Cu2       1.0  0.13700  0.25000  0.43600  1.0000
  Cu  Cu3       1.0  0.86300  0.75000  0.56400  1.0000
  Cu  Cu4       1.0  0.36300  0.75000  0.93600  1.0000
  Mn  Mn1       1.0  0.96900  0.75000  0.16000  1.0000
  Mn  Mn2       1.0  0.46900  0.75000  0.34000  1.0000
  Mn  Mn3       1.0  0.53100  0.25000  0.66000  1.0000
  Mn  Mn4       1.0  0.03090  0.25000  0.84000  1.0000
  P   P1        1.0  0.24800  0.25000  0.13400  1.0000
  P   P2        1.0  0.74700  0.25000  0.36600  1.0000
  P   P3        1.0  0.25300  0.75000  0.63400  1.0000
  P   P4        1.0  0.75200  0.75000  0.86600  1.0000
