data_image0
_chemical_formula_structural       I2Ta2Te8
_chemical_formula_sum              "I2 Ta2 Te8"
_cell_length_a       6.77057
_cell_length_b       8.06413
_cell_length_c       8.91833
_cell_angle_alpha    113.548
_cell_angle_beta     102.205
_cell_angle_gamma    100.962

_space_group_name_H-M_alt    "P 1"
_space_group_IT_number       1

loop_
  _space_group_symop_operation_xyz
  'x, y, z'

loop_
  _atom_site_type_symbol
  _atom_site_label
  _atom_site_symmetry_multiplicity
  _atom_site_fract_x
  _atom_site_fract_y
  _atom_site_fract_z
  _atom_site_occupancy
  I   I1        1.0  0.75200  0.60000  0.43200  1.0000
  I   I2        1.0  0.24800  0.40000  0.56800  1.0000
  Ta  Ta1       1.0  0.75100  0.99900  0.00075  1.0000
  Ta  Ta2       1.0  0.24900  0.00074  0.99900  1.0000
  Te  Te1       1.0  0.46100  0.74800  0.06830  1.0000
  Te  Te2       1.0  0.12300  0.32600  0.17700  1.0000
  Te  Te3       1.0  0.02550  0.87100  0.19300  1.0000
  Te  Te4       1.0  0.61500  0.14400  0.30000  1.0000
  Te  Te5       1.0  0.38500  0.85600  0.70000  1.0000
  Te  Te6       1.0  0.97400  0.12900  0.80700  1.0000
  Te  Te7       1.0  0.87700  0.67400  0.82300  1.0000
  Te  Te8       1.0  0.53900  0.25200  0.93200  1.0000
