data_image0
_chemical_formula_structural       In8Ni2Yb2
_chemical_formula_sum              "In8 Ni2 Yb2"
_cell_length_a       4.43761
_cell_length_b       7.35061
_cell_length_c       8.66859
_cell_angle_alpha    90
_cell_angle_beta     75.1696
_cell_angle_gamma    90

_space_group_name_H-M_alt    "P 1"
_space_group_IT_number       1

loop_
  _space_group_symop_operation_xyz
  'x, y, z'

loop_
  _atom_site_type_symbol
  _atom_site_label
  _atom_site_symmetry_multiplicity
  _atom_site_fract_x
  _atom_site_fract_y
  _atom_site_fract_z
  _atom_site_occupancy
  In  In1       1.0  0.50000  0.00000  0.00000  1.0000
  In  In2       1.0  0.50000  0.50000  0.00000  1.0000
  In  In3       1.0  0.92800  0.25000  0.14300  1.0000
  In  In4       1.0  0.31300  0.04740  0.37400  1.0000
  In  In5       1.0  0.31300  0.45300  0.37400  1.0000
  In  In6       1.0  0.68700  0.54700  0.62600  1.0000
  In  In7       1.0  0.68700  0.95300  0.62600  1.0000
  In  In8       1.0  0.07150  0.75000  0.85700  1.0000
  Ni  Ni1       1.0  0.77400  0.25000  0.45300  1.0000
  Ni  Ni2       1.0  0.22600  0.75000  0.54700  1.0000
  Yb  Yb1       1.0  0.87500  0.75000  0.25000  1.0000
  Yb  Yb2       1.0  0.12500  0.25000  0.75000  1.0000
