data_image0
_chemical_formula_structural       In8Ni2Sr2
_chemical_formula_sum              "In8 Ni2 Sr2"
_cell_length_a       4.52571
_cell_length_b       7.42706
_cell_length_c       8.92458
_cell_angle_alpha    90
_cell_angle_beta     75.3121
_cell_angle_gamma    90

_space_group_name_H-M_alt    "P 1"
_space_group_IT_number       1

loop_
  _space_group_symop_operation_xyz
  'x, y, z'

loop_
  _atom_site_type_symbol
  _atom_site_label
  _atom_site_symmetry_multiplicity
  _atom_site_fract_x
  _atom_site_fract_y
  _atom_site_fract_z
  _atom_site_occupancy
  In  In1       1.0  0.50000  0.00000  0.00000  1.0000
  In  In2       1.0  0.50000  0.50000  0.00000  1.0000
  In  In3       1.0  0.92400  0.75000  0.15200  1.0000
  In  In4       1.0  0.31000  0.55000  0.38000  1.0000
  In  In5       1.0  0.31000  0.95000  0.38000  1.0000
  In  In6       1.0  0.69000  0.05000  0.62000  1.0000
  In  In7       1.0  0.69000  0.45000  0.62000  1.0000
  In  In8       1.0  0.07600  0.25000  0.84800  1.0000
  Ni  Ni1       1.0  0.77400  0.75000  0.45200  1.0000
  Ni  Ni2       1.0  0.22600  0.25000  0.54800  1.0000
  Sr  Sr1       1.0  0.87900  0.25000  0.24300  1.0000
  Sr  Sr2       1.0  0.12100  0.75000  0.75700  1.0000
