data_image0
_chemical_formula_structural       FeMo2O8Rb
_chemical_formula_sum              "Fe1 Mo2 O8 Rb1"
_cell_length_a       5.54633
_cell_length_b       5.54631
_cell_length_c       7.32493
_cell_angle_alpha    90
_cell_angle_beta     90.0002
_cell_angle_gamma    120

_space_group_name_H-M_alt    "P 1"
_space_group_IT_number       1

loop_
  _space_group_symop_operation_xyz
  'x, y, z'

loop_
  _atom_site_type_symbol
  _atom_site_label
  _atom_site_symmetry_multiplicity
  _atom_site_fract_x
  _atom_site_fract_y
  _atom_site_fract_z
  _atom_site_occupancy
  Fe  Fe1       1.0  0.00000  0.00000  0.00000  1.0000
  Mo  Mo1       1.0  0.33300  0.66700  0.23800  1.0000
  Mo  Mo2       1.0  0.66700  0.33300  0.76200  1.0000
  O   O1        1.0  0.67900  0.91200  0.16200  1.0000
  O   O2        1.0  0.23300  0.32100  0.16200  1.0000
  O   O3        1.0  0.08830  0.76700  0.16200  1.0000
  O   O4        1.0  0.33300  0.66700  0.47600  1.0000
  O   O5        1.0  0.66700  0.33300  0.52400  1.0000
  O   O6        1.0  0.91200  0.23300  0.83800  1.0000
  O   O7        1.0  0.76700  0.67900  0.83800  1.0000
  O   O8        1.0  0.32100  0.08830  0.83800  1.0000
  Rb  Rb1       1.0  0.00000  0.00000  0.50000  1.0000
