data_image0
_chemical_formula_structural       In4S4
_chemical_formula_sum              "In4 S4"
_cell_length_a       4.01146
_cell_length_b       4.58721
_cell_length_c       10.7987
_cell_angle_alpha    90
_cell_angle_beta     90
_cell_angle_gamma    90

_space_group_name_H-M_alt    "P 1"
_space_group_IT_number       1

loop_
  _space_group_symop_operation_xyz
  'x, y, z'

loop_
  _atom_site_type_symbol
  _atom_site_label
  _atom_site_symmetry_multiplicity
  _atom_site_fract_x
  _atom_site_fract_y
  _atom_site_fract_z
  _atom_site_occupancy
  In  In1       1.0  0.00000  0.12600  0.11900  1.0000
  In  In2       1.0  0.50000  0.62600  0.38100  1.0000
  In  In3       1.0  0.50000  0.37400  0.61900  1.0000
  In  In4       1.0  0.00000  0.87400  0.88100  1.0000
  S   S1        1.0  0.50000  0.47600  0.15300  1.0000
  S   S2        1.0  0.00000  0.97600  0.34700  1.0000
  S   S3        1.0  0.00000  0.02370  0.65300  1.0000
  S   S4        1.0  0.50000  0.52400  0.84700  1.0000
