data_image0
_chemical_formula_structural       Lu4Ni4
_chemical_formula_sum              "Lu4 Ni4"
_cell_length_a       6.91218
_cell_length_b       4.06384
_cell_length_c       5.32342
_cell_angle_alpha    90
_cell_angle_beta     90
_cell_angle_gamma    90

_space_group_name_H-M_alt    "P 1"
_space_group_IT_number       1

loop_
  _space_group_symop_operation_xyz
  'x, y, z'

loop_
  _atom_site_type_symbol
  _atom_site_label
  _atom_site_symmetry_multiplicity
  _atom_site_fract_x
  _atom_site_fract_y
  _atom_site_fract_z
  _atom_site_occupancy
  Lu  Lu1       1.0  0.17900  0.25000  0.12800  1.0000
  Lu  Lu2       1.0  0.67900  0.25000  0.37200  1.0000
  Lu  Lu3       1.0  0.32100  0.75000  0.62800  1.0000
  Lu  Lu4       1.0  0.82100  0.75000  0.87200  1.0000
  Ni  Ni1       1.0  0.46300  0.75000  0.12600  1.0000
  Ni  Ni2       1.0  0.96300  0.75000  0.37400  1.0000
  Ni  Ni3       1.0  0.03710  0.25000  0.62600  1.0000
  Ni  Ni4       1.0  0.53700  0.25000  0.87400  1.0000
