data_image0
_chemical_formula_structural       In5Pt5
_chemical_formula_sum              "In5 Pt5"
_cell_length_a       4.46826
_cell_length_b       7.01548
_cell_length_c       7.24349
_cell_angle_alpha    102.868
_cell_angle_beta     107.965
_cell_angle_gamma    108.57

_space_group_name_H-M_alt    "P 1"
_space_group_IT_number       1

loop_
  _space_group_symop_operation_xyz
  'x, y, z'

loop_
  _atom_site_type_symbol
  _atom_site_label
  _atom_site_symmetry_multiplicity
  _atom_site_fract_x
  _atom_site_fract_y
  _atom_site_fract_z
  _atom_site_occupancy
  In  In1       1.0  0.30300  0.45300  0.15400  1.0000
  In  In2       1.0  0.61500  0.98800  0.24300  1.0000
  In  In3       1.0  0.00000  0.50000  0.50000  1.0000
  In  In4       1.0  0.38500  0.01230  0.75700  1.0000
  In  In5       1.0  0.69700  0.54700  0.84600  1.0000
  Pt  Pt1       1.0  0.00000  0.00000  0.00000  1.0000
  Pt  Pt2       1.0  0.00440  0.74500  0.26400  1.0000
  Pt  Pt3       1.0  0.33500  0.22600  0.44400  1.0000
  Pt  Pt4       1.0  0.66500  0.77400  0.55600  1.0000
  Pt  Pt5       1.0  0.99600  0.25500  0.73600  1.0000
