data_image0
_chemical_formula_structural       MgSc3
_chemical_formula_sum              "Mg1 Sc3"
_cell_length_a       3.22377
_cell_length_b       6.12136
_cell_length_c       5.54083
_cell_angle_alpha    63.0906
_cell_angle_beta     90
_cell_angle_gamma    74.7328

_space_group_name_H-M_alt    "P 1"
_space_group_IT_number       1

loop_
  _space_group_symop_operation_xyz
  'x, y, z'

loop_
  _atom_site_type_symbol
  _atom_site_label
  _atom_site_symmetry_multiplicity
  _atom_site_fract_x
  _atom_site_fract_y
  _atom_site_fract_z
  _atom_site_occupancy
  Mg  Mg1       1.0  0.75000  0.50000  0.07820  1.0000
  Sc  Sc1       1.0  0.00148  0.99700  0.00053  1.0000
  Sc  Sc2       1.0  0.49900  0.00296  0.49800  1.0000
  Sc  Sc3       1.0  0.25000  0.50000  0.59000  1.0000
