data_image0
_chemical_formula_structural       Se4Tl4
_chemical_formula_sum              "Se4 Tl4"
_cell_length_a       6.71095
_cell_length_b       6.71095
_cell_length_c       6.71095
_cell_angle_alpha    116.475
_cell_angle_beta     106.087
_cell_angle_gamma    106.087

_space_group_name_H-M_alt    "P 1"
_space_group_IT_number       1

loop_
  _space_group_symop_operation_xyz
  'x, y, z'

loop_
  _atom_site_type_symbol
  _atom_site_label
  _atom_site_symmetry_multiplicity
  _atom_site_fract_x
  _atom_site_fract_y
  _atom_site_fract_z
  _atom_site_occupancy
  Se  Se1       1.0  0.50000  0.31900  0.18100  1.0000
  Se  Se2       1.0  0.13700  0.81900  0.31900  1.0000
  Se  Se3       1.0  0.86300  0.18100  0.68100  1.0000
  Se  Se4       1.0  0.50000  0.68100  0.81900  1.0000
  Tl  Tl1       1.0  0.00000  0.25000  0.25000  1.0000
  Tl  Tl2       1.0  0.50000  0.75000  0.25000  1.0000
  Tl  Tl3       1.0  0.50000  0.25000  0.75000  1.0000
  Tl  Tl4       1.0  0.00000  0.75000  0.75000  1.0000
