data_image0
_chemical_formula_structural       K2Pt4Se6
_chemical_formula_sum              "K2 Pt4 Se6"
_cell_length_a       7.53954
_cell_length_b       7.53954
_cell_length_c       7.84724
_cell_angle_alpha    90
_cell_angle_beta     61.2889
_cell_angle_gamma    120

_space_group_name_H-M_alt    "P 1"
_space_group_IT_number       1

loop_
  _space_group_symop_operation_xyz
  'x, y, z'

loop_
  _atom_site_type_symbol
  _atom_site_label
  _atom_site_symmetry_multiplicity
  _atom_site_fract_x
  _atom_site_fract_y
  _atom_site_fract_z
  _atom_site_occupancy
  K   K1        1.0  0.40100  0.20000  0.39900  1.0000
  K   K2        1.0  0.59900  0.80000  0.60100  1.0000
  Pt  Pt1       1.0  0.00000  0.00000  0.00000  1.0000
  Pt  Pt2       1.0  0.50000  0.50000  0.00000  1.0000
  Pt  Pt3       1.0  0.50000  0.00000  0.00000  1.0000
  Pt  Pt4       1.0  0.00000  0.50000  0.00000  1.0000
  Se  Se1       1.0  0.04530  0.27900  0.18900  1.0000
  Se  Se2       1.0  0.04530  0.76600  0.18900  1.0000
  Se  Se3       1.0  0.53200  0.76600  0.18900  1.0000
  Se  Se4       1.0  0.95500  0.23400  0.81100  1.0000
  Se  Se5       1.0  0.46800  0.23400  0.81100  1.0000
  Se  Se6       1.0  0.95500  0.72100  0.81100  1.0000
