data_image0
_chemical_formula_structural       Ni4Tm4
_chemical_formula_sum              "Ni4 Tm4"
_cell_length_a       6.93362
_cell_length_b       4.10924
_cell_length_c       5.37452
_cell_angle_alpha    90
_cell_angle_beta     90
_cell_angle_gamma    90

_space_group_name_H-M_alt    "P 1"
_space_group_IT_number       1

loop_
  _space_group_symop_operation_xyz
  'x, y, z'

loop_
  _atom_site_type_symbol
  _atom_site_label
  _atom_site_symmetry_multiplicity
  _atom_site_fract_x
  _atom_site_fract_y
  _atom_site_fract_z
  _atom_site_occupancy
  Ni  Ni1       1.0  0.46200  0.75000  0.12900  1.0000
  Ni  Ni2       1.0  0.96200  0.75000  0.37100  1.0000
  Ni  Ni3       1.0  0.03800  0.25000  0.62900  1.0000
  Ni  Ni4       1.0  0.53800  0.25000  0.87100  1.0000
  Tm  Tm1       1.0  0.17900  0.25000  0.13400  1.0000
  Tm  Tm2       1.0  0.67900  0.25000  0.36600  1.0000
  Tm  Tm3       1.0  0.32100  0.75000  0.63400  1.0000
  Tm  Tm4       1.0  0.82100  0.75000  0.86600  1.0000
