data_image0
_chemical_formula_structural       Cl2Hg4P6
_chemical_formula_sum              "Cl2 Hg4 P6"
_cell_length_a       6.00225
_cell_length_b       6.00225
_cell_length_c       7.74223
_cell_angle_alpha    95.3368
_cell_angle_beta     95.3368
_cell_angle_gamma    96.5909

_space_group_name_H-M_alt    "P 1"
_space_group_IT_number       1

loop_
  _space_group_symop_operation_xyz
  'x, y, z'

loop_
  _atom_site_type_symbol
  _atom_site_label
  _atom_site_symmetry_multiplicity
  _atom_site_fract_x
  _atom_site_fract_y
  _atom_site_fract_z
  _atom_site_occupancy
  Cl  Cl1       1.0  0.62800  0.37200  0.25000  1.0000
  Cl  Cl2       1.0  0.37200  0.62800  0.75000  1.0000
  Hg  Hg1       1.0  0.59000  0.86200  0.17100  1.0000
  Hg  Hg2       1.0  0.13800  0.41000  0.32900  1.0000
  Hg  Hg3       1.0  0.86200  0.59000  0.67100  1.0000
  Hg  Hg4       1.0  0.41000  0.13800  0.82900  1.0000
  P   P1        1.0  0.94100  0.82700  0.02600  1.0000
  P   P2        1.0  0.19300  0.80700  0.25000  1.0000
  P   P3        1.0  0.17300  0.05920  0.47400  1.0000
  P   P4        1.0  0.82700  0.94100  0.52600  1.0000
  P   P5        1.0  0.80700  0.19300  0.75000  1.0000
  P   P6        1.0  0.05920  0.17300  0.97400  1.0000
