data_image0
_chemical_formula_structural       Ba2Sn2
_chemical_formula_sum              "Ba2 Sn2"
_cell_length_a       4.70275
_cell_length_b       5.34372
_cell_length_c       6.903
_cell_angle_alpha    67.2284
_cell_angle_beta     90
_cell_angle_gamma    90

_space_group_name_H-M_alt    "P 1"
_space_group_IT_number       1

loop_
  _space_group_symop_operation_xyz
  'x, y, z'

loop_
  _atom_site_type_symbol
  _atom_site_label
  _atom_site_symmetry_multiplicity
  _atom_site_fract_x
  _atom_site_fract_y
  _atom_site_fract_z
  _atom_site_occupancy
  Ba  Ba1       1.0  0.25000  0.86300  0.27400  1.0000
  Ba  Ba2       1.0  0.75000  0.13700  0.72600  1.0000
  Sn  Sn1       1.0  0.75000  0.42700  0.14600  1.0000
  Sn  Sn2       1.0  0.25000  0.57300  0.85400  1.0000
