data_image0
_chemical_formula_structural       Ce4Si4
_chemical_formula_sum              "Ce4 Si4"
_cell_length_a       8.41629
_cell_length_b       3.99098
_cell_length_c       6.03337
_cell_angle_alpha    90
_cell_angle_beta     90
_cell_angle_gamma    90

_space_group_name_H-M_alt    "P 1"
_space_group_IT_number       1

loop_
  _space_group_symop_operation_xyz
  'x, y, z'

loop_
  _atom_site_type_symbol
  _atom_site_label
  _atom_site_symmetry_multiplicity
  _atom_site_fract_x
  _atom_site_fract_y
  _atom_site_fract_z
  _atom_site_occupancy
  Ce  Ce1       1.0  0.18000  0.25000  0.11300  1.0000
  Ce  Ce2       1.0  0.68000  0.25000  0.38700  1.0000
  Ce  Ce3       1.0  0.32000  0.75000  0.61300  1.0000
  Ce  Ce4       1.0  0.82000  0.75000  0.88700  1.0000
  Si  Si1       1.0  0.46600  0.75000  0.11900  1.0000
  Si  Si2       1.0  0.96600  0.75000  0.38100  1.0000
  Si  Si3       1.0  0.03390  0.25000  0.61900  1.0000
  Si  Si4       1.0  0.53400  0.25000  0.88100  1.0000
