data_image0
_chemical_formula_structural       MgPb3
_chemical_formula_sum              "Mg1 Pb3"
_cell_length_a       3.49559
_cell_length_b       6.61346
_cell_length_c       5.89475
_cell_angle_alpha    63.5343
_cell_angle_beta     90
_cell_angle_gamma    74.6759

_space_group_name_H-M_alt    "P 1"
_space_group_IT_number       1

loop_
  _space_group_symop_operation_xyz
  'x, y, z'

loop_
  _atom_site_type_symbol
  _atom_site_label
  _atom_site_symmetry_multiplicity
  _atom_site_fract_x
  _atom_site_fract_y
  _atom_site_fract_z
  _atom_site_occupancy
  Mg  Mg1       1.0  0.75000  0.50000  0.08350  1.0000
  Pb  Pb1       1.0  0.00249  0.99500  0.00139  1.0000
  Pb  Pb2       1.0  0.49800  0.00499  0.49600  1.0000
  Pb  Pb3       1.0  0.25000  0.50000  0.58500  1.0000
