data_image0
_chemical_formula_structural       In8La2Ni2
_chemical_formula_sum              "In8 La2 Ni2"
_cell_length_a       4.52465
_cell_length_b       7.28847
_cell_length_c       8.81148
_cell_angle_alpha    90
_cell_angle_beta     75.1228
_cell_angle_gamma    90

_space_group_name_H-M_alt    "P 1"
_space_group_IT_number       1

loop_
  _space_group_symop_operation_xyz
  'x, y, z'

loop_
  _atom_site_type_symbol
  _atom_site_label
  _atom_site_symmetry_multiplicity
  _atom_site_fract_x
  _atom_site_fract_y
  _atom_site_fract_z
  _atom_site_occupancy
  In  In1       1.0  0.50000  0.00000  0.00000  1.0000
  In  In2       1.0  0.50000  0.50000  0.00000  1.0000
  In  In3       1.0  0.92400  0.75000  0.15200  1.0000
  In  In4       1.0  0.31100  0.54900  0.37700  1.0000
  In  In5       1.0  0.31100  0.95100  0.37700  1.0000
  In  In6       1.0  0.68900  0.04900  0.62300  1.0000
  In  In7       1.0  0.68900  0.45100  0.62300  1.0000
  In  In8       1.0  0.07590  0.25000  0.84800  1.0000
  La  La1       1.0  0.88200  0.25000  0.23600  1.0000
  La  La2       1.0  0.11800  0.75000  0.76400  1.0000
  Ni  Ni1       1.0  0.77300  0.75000  0.45300  1.0000
  Ni  Ni2       1.0  0.22700  0.25000  0.54700  1.0000
