data_image0
_chemical_formula_structural       Pd2Sm2
_chemical_formula_sum              "Pd2 Sm2"
_cell_length_a       3.80314
_cell_length_b       4.6103
_cell_length_c       5.68207
_cell_angle_alpha    90
_cell_angle_beta     70.4481
_cell_angle_gamma    90

_space_group_name_H-M_alt    "P 1"
_space_group_IT_number       1

loop_
  _space_group_symop_operation_xyz
  'x, y, z'

loop_
  _atom_site_type_symbol
  _atom_site_label
  _atom_site_symmetry_multiplicity
  _atom_site_fract_x
  _atom_site_fract_y
  _atom_site_fract_z
  _atom_site_occupancy
  Pd  Pd1       1.0  0.41500  0.75000  0.17100  1.0000
  Pd  Pd2       1.0  0.58500  0.25000  0.82900  1.0000
  Sm  Sm1       1.0  0.86200  0.25000  0.27500  1.0000
  Sm  Sm2       1.0  0.13800  0.75000  0.72500  1.0000
