data_image0
_chemical_formula_structural       F8Mn2Na2
_chemical_formula_sum              "F8 Mn2 Na2"
_cell_length_a       5.51944
_cell_length_b       4.8133
_cell_length_c       5.62544
_cell_angle_alpha    90.0001
_cell_angle_beta     108.209
_cell_angle_gamma    90

_space_group_name_H-M_alt    "P 1"
_space_group_IT_number       1

loop_
  _space_group_symop_operation_xyz
  'x, y, z'

loop_
  _atom_site_type_symbol
  _atom_site_label
  _atom_site_symmetry_multiplicity
  _atom_site_fract_x
  _atom_site_fract_y
  _atom_site_fract_z
  _atom_site_occupancy
  F   F1        1.0  0.31600  0.84100  0.11500  1.0000
  F   F2        1.0  0.87000  0.73100  0.16900  1.0000
  F   F3        1.0  0.13000  0.23100  0.33100  1.0000
  F   F4        1.0  0.68400  0.34100  0.38500  1.0000
  F   F5        1.0  0.31600  0.65900  0.61500  1.0000
  F   F6        1.0  0.87000  0.76900  0.66900  1.0000
  F   F7        1.0  0.13000  0.26900  0.83100  1.0000
  F   F8        1.0  0.68400  0.15900  0.88500  1.0000
  Mn  Mn1       1.0  0.00000  0.00000  0.00000  1.0000
  Mn  Mn2       1.0  0.00000  0.50000  0.50000  1.0000
  Na  Na1       1.0  0.50000  0.00000  0.50000  1.0000
  Na  Na2       1.0  0.50000  0.50000  0.00000  1.0000
