data_image0
_chemical_formula_structural       Bi6Se6
_chemical_formula_sum              "Bi6 Se6"
_cell_length_a       4.23791
_cell_length_b       4.2379
_cell_length_c       23.2769
_cell_angle_alpha    90
_cell_angle_beta     90.0002
_cell_angle_gamma    120

_space_group_name_H-M_alt    "P 1"
_space_group_IT_number       1

loop_
  _space_group_symop_operation_xyz
  'x, y, z'

loop_
  _atom_site_type_symbol
  _atom_site_label
  _atom_site_symmetry_multiplicity
  _atom_site_fract_x
  _atom_site_fract_y
  _atom_site_fract_z
  _atom_site_occupancy
  Bi  Bi1       1.0  0.00001  0.00001  0.12600  1.0000
  Bi  Bi2       1.0  0.33300  0.66700  0.28800  1.0000
  Bi  Bi3       1.0  0.66700  0.33300  0.46100  1.0000
  Bi  Bi4       1.0  0.33300  0.66700  0.53900  1.0000
  Bi  Bi5       1.0  0.66700  0.33300  0.71200  1.0000
  Bi  Bi6       1.0  0.00000  0.00000  0.87400  1.0000
  Se  Se1       1.0  0.33300  0.66700  0.06070  1.0000
  Se  Se2       1.0  0.66700  0.33300  0.20800  1.0000
  Se  Se3       1.0  0.00001  0.00000  0.35500  1.0000
  Se  Se4       1.0  0.00000  0.00000  0.64500  1.0000
  Se  Se5       1.0  0.33300  0.66700  0.79200  1.0000
  Se  Se6       1.0  0.66700  0.33300  0.93900  1.0000
