data_image0
_chemical_formula_structural       La4P4Pt4
_chemical_formula_sum              "La4 P4 Pt4"
_cell_length_a       8.15686
_cell_length_b       4.24934
_cell_length_c       7.34975
_cell_angle_alpha    90
_cell_angle_beta     90
_cell_angle_gamma    90

_space_group_name_H-M_alt    "P 1"
_space_group_IT_number       1

loop_
  _space_group_symop_operation_xyz
  'x, y, z'

loop_
  _atom_site_type_symbol
  _atom_site_label
  _atom_site_symmetry_multiplicity
  _atom_site_fract_x
  _atom_site_fract_y
  _atom_site_fract_z
  _atom_site_occupancy
  La  La1       1.0  0.50000  0.75000  0.25000  1.0000
  La  La2       1.0  0.00000  0.75000  0.25000  1.0000
  La  La3       1.0  0.00042  0.25000  0.75000  1.0000
  La  La4       1.0  0.50000  0.25000  0.75000  1.0000
  P   P1        1.0  0.24900  0.25000  0.08440  1.0000
  P   P2        1.0  0.74900  0.25000  0.41600  1.0000
  P   P3        1.0  0.25100  0.75000  0.58400  1.0000
  P   P4        1.0  0.75100  0.75000  0.91600  1.0000
  Pt  Pt1       1.0  0.75000  0.25000  0.08170  1.0000
  Pt  Pt2       1.0  0.25000  0.25000  0.41800  1.0000
  Pt  Pt3       1.0  0.75000  0.75000  0.58200  1.0000
  Pt  Pt4       1.0  0.25000  0.75000  0.91800  1.0000
