data_image0
_chemical_formula_structural       Na6O6
_chemical_formula_sum              "Na6 O6"
_cell_length_a       6.12701
_cell_length_b       6.12701
_cell_length_c       4.45303
_cell_angle_alpha    90
_cell_angle_beta     90
_cell_angle_gamma    120.001

_space_group_name_H-M_alt    "P 1"
_space_group_IT_number       1

loop_
  _space_group_symop_operation_xyz
  'x, y, z'

loop_
  _atom_site_type_symbol
  _atom_site_label
  _atom_site_symmetry_multiplicity
  _atom_site_fract_x
  _atom_site_fract_y
  _atom_site_fract_z
  _atom_site_occupancy
  Na  Na1       1.0  0.29600  0.00001  0.00000  1.0000
  Na  Na2       1.0  0.00001  0.29600  0.00000  1.0000
  Na  Na3       1.0  0.70400  0.70400  0.00000  1.0000
  Na  Na4       1.0  0.63100  0.00000  0.50000  1.0000
  Na  Na5       1.0  0.36900  0.36900  0.50000  1.0000
  Na  Na6       1.0  0.00000  0.63100  0.50000  1.0000
  O   O1        1.0  0.66700  0.33300  0.17300  1.0000
  O   O2        1.0  0.33300  0.66700  0.17300  1.0000
  O   O3        1.0  0.00000  0.00000  0.32900  1.0000
  O   O4        1.0  0.00000  0.00000  0.67100  1.0000
  O   O5        1.0  0.66700  0.33300  0.82700  1.0000
  O   O6        1.0  0.33300  0.66700  0.82700  1.0000
