data_image0
_chemical_formula_structural       Dy2P10
_chemical_formula_sum              "Dy2 P10"
_cell_length_a       4.92141
_cell_length_b       9.42417
_cell_length_c       5.35586
_cell_angle_alpha    90
_cell_angle_beta     102.644
_cell_angle_gamma    90

_space_group_name_H-M_alt    "P 1"
_space_group_IT_number       1

loop_
  _space_group_symop_operation_xyz
  'x, y, z'

loop_
  _atom_site_type_symbol
  _atom_site_label
  _atom_site_symmetry_multiplicity
  _atom_site_fract_x
  _atom_site_fract_y
  _atom_site_fract_z
  _atom_site_occupancy
  Dy  Dy1       1.0  0.00708  0.25000  0.35000  1.0000
  Dy  Dy2       1.0  0.99300  0.75000  0.65000  1.0000
  P   P1        1.0  0.38100  0.59200  0.04180  1.0000
  P   P2        1.0  0.38100  0.90800  0.04180  1.0000
  P   P3        1.0  0.72400  0.75000  0.10300  1.0000
  P   P4        1.0  0.28400  0.53000  0.40300  1.0000
  P   P5        1.0  0.28400  0.97000  0.40300  1.0000
  P   P6        1.0  0.71600  0.02990  0.59700  1.0000
  P   P7        1.0  0.71600  0.47000  0.59700  1.0000
  P   P8        1.0  0.27600  0.25000  0.89700  1.0000
  P   P9        1.0  0.61900  0.09220  0.95800  1.0000
  P   P10       1.0  0.61900  0.40800  0.95800  1.0000
