data_image0
_chemical_formula_structural       Lu2P10
_chemical_formula_sum              "Lu2 P10"
_cell_length_a       4.89059
_cell_length_b       9.31193
_cell_length_c       5.29147
_cell_angle_alpha    90
_cell_angle_beta     102.645
_cell_angle_gamma    90

_space_group_name_H-M_alt    "P 1"
_space_group_IT_number       1

loop_
  _space_group_symop_operation_xyz
  'x, y, z'

loop_
  _atom_site_type_symbol
  _atom_site_label
  _atom_site_symmetry_multiplicity
  _atom_site_fract_x
  _atom_site_fract_y
  _atom_site_fract_z
  _atom_site_occupancy
  Lu  Lu1       1.0  0.00335  0.25000  0.34900  1.0000
  Lu  Lu2       1.0  0.99700  0.75000  0.65100  1.0000
  P   P1        1.0  0.38100  0.59300  0.04110  1.0000
  P   P2        1.0  0.38100  0.90700  0.04110  1.0000
  P   P3        1.0  0.73000  0.75000  0.10800  1.0000
  P   P4        1.0  0.28100  0.52900  0.40500  1.0000
  P   P5        1.0  0.28100  0.97100  0.40500  1.0000
  P   P6        1.0  0.71900  0.02900  0.59500  1.0000
  P   P7        1.0  0.71900  0.47100  0.59500  1.0000
  P   P8        1.0  0.27000  0.25000  0.89200  1.0000
  P   P9        1.0  0.61900  0.09350  0.95900  1.0000
  P   P10       1.0  0.61900  0.40700  0.95900  1.0000
