data_image0
_chemical_formula_structural       BaO8P2Sn
_chemical_formula_sum              "Ba1 O8 P2 Sn1"
_cell_length_a       4.85147
_cell_length_b       4.85147
_cell_length_c       7.86168
_cell_angle_alpha    93.9822
_cell_angle_beta     93.9822
_cell_angle_gamma    65.6969

_space_group_name_H-M_alt    "P 1"
_space_group_IT_number       1

loop_
  _space_group_symop_operation_xyz
  'x, y, z'

loop_
  _atom_site_type_symbol
  _atom_site_label
  _atom_site_symmetry_multiplicity
  _atom_site_fract_x
  _atom_site_fract_y
  _atom_site_fract_z
  _atom_site_occupancy
  Ba  Ba1       1.0  0.00000  0.00000  0.00000  1.0000
  O   O1        1.0  0.68900  0.68900  0.11100  1.0000
  O   O2        1.0  0.75700  0.27600  0.30500  1.0000
  O   O3        1.0  0.27600  0.75700  0.30500  1.0000
  O   O4        1.0  0.75500  0.75500  0.44400  1.0000
  O   O5        1.0  0.24500  0.24500  0.55600  1.0000
  O   O6        1.0  0.72400  0.24300  0.69500  1.0000
  O   O7        1.0  0.24300  0.72400  0.69500  1.0000
  O   O8        1.0  0.31100  0.31100  0.88900  1.0000
  P   P1        1.0  0.62800  0.62800  0.28800  1.0000
  P   P2        1.0  0.37200  0.37200  0.71200  1.0000
  Sn  Sn1       1.0  1.00000  0.00000  0.50000  1.0000
