data_image0
_chemical_formula_structural       Au4Na4Sn4
_chemical_formula_sum              "Au4 Na4 Sn4"
_cell_length_a       7.56927
_cell_length_b       8.19761
_cell_length_c       4.58387
_cell_angle_alpha    90
_cell_angle_beta     90
_cell_angle_gamma    90

_space_group_name_H-M_alt    "P 1"
_space_group_IT_number       1

loop_
  _space_group_symop_operation_xyz
  'x, y, z'

loop_
  _atom_site_type_symbol
  _atom_site_label
  _atom_site_symmetry_multiplicity
  _atom_site_fract_x
  _atom_site_fract_y
  _atom_site_fract_z
  _atom_site_occupancy
  Au  Au1       1.0  0.70800  0.13000  0.25000  1.0000
  Au  Au2       1.0  0.20800  0.37000  0.25000  1.0000
  Au  Au3       1.0  0.79200  0.63000  0.75000  1.0000
  Au  Au4       1.0  0.29200  0.87000  0.75000  1.0000
  Na  Na1       1.0  0.48800  0.66500  0.25000  1.0000
  Na  Na2       1.0  0.98800  0.83500  0.25000  1.0000
  Na  Na3       1.0  0.01180  0.16500  0.75000  1.0000
  Na  Na4       1.0  0.51200  0.33500  0.75000  1.0000
  Sn  Sn1       1.0  0.34100  0.05970  0.25000  1.0000
  Sn  Sn2       1.0  0.84100  0.44000  0.25000  1.0000
  Sn  Sn3       1.0  0.15900  0.56000  0.75000  1.0000
  Sn  Sn4       1.0  0.65900  0.94000  0.75000  1.0000
