data_image0
_chemical_formula_structural       Cs2Gd2Hg2Se6
_chemical_formula_sum              "Cs2 Gd2 Hg2 Se6"
_cell_length_a       4.30562
_cell_length_b       8.32651
_cell_length_c       11.1646
_cell_angle_alpha    90
_cell_angle_beta     90
_cell_angle_gamma    75.016

_space_group_name_H-M_alt    "P 1"
_space_group_IT_number       1

loop_
  _space_group_symop_operation_xyz
  'x, y, z'

loop_
  _atom_site_type_symbol
  _atom_site_label
  _atom_site_symmetry_multiplicity
  _atom_site_fract_x
  _atom_site_fract_y
  _atom_site_fract_z
  _atom_site_occupancy
  Cs  Cs1       1.0  0.74400  0.51200  0.25000  1.0000
  Cs  Cs2       1.0  0.25600  0.48800  0.75000  1.0000
  Gd  Gd1       1.0  0.00000  0.00000  0.00000  1.0000
  Gd  Gd2       1.0  0.00000  0.00000  0.50000  1.0000
  Hg  Hg1       1.0  0.45400  0.09210  0.25000  1.0000
  Hg  Hg2       1.0  0.54600  0.90800  0.75000  1.0000
  Se  Se1       1.0  0.37800  0.24400  0.04200  1.0000
  Se  Se2       1.0  0.06170  0.87700  0.25000  1.0000
  Se  Se3       1.0  0.37800  0.24400  0.45800  1.0000
  Se  Se4       1.0  0.62200  0.75600  0.54200  1.0000
  Se  Se5       1.0  0.93800  0.12300  0.75000  1.0000
  Se  Se6       1.0  0.62200  0.75600  0.95800  1.0000
