data_image0
_chemical_formula_structural       Dy4Rh4Zn4
_chemical_formula_sum              "Dy4 Rh4 Zn4"
_cell_length_a       6.93598
_cell_length_b       4.03448
_cell_length_c       8.12091
_cell_angle_alpha    90
_cell_angle_beta     90
_cell_angle_gamma    90

_space_group_name_H-M_alt    "P 1"
_space_group_IT_number       1

loop_
  _space_group_symop_operation_xyz
  'x, y, z'

loop_
  _atom_site_type_symbol
  _atom_site_label
  _atom_site_symmetry_multiplicity
  _atom_site_fract_x
  _atom_site_fract_y
  _atom_site_fract_z
  _atom_site_occupancy
  Dy  Dy1       1.0  0.46200  0.75000  0.18300  1.0000
  Dy  Dy2       1.0  0.96200  0.75000  0.31700  1.0000
  Dy  Dy3       1.0  0.03810  0.25000  0.68300  1.0000
  Dy  Dy4       1.0  0.53800  0.25000  0.81700  1.0000
  Rh  Rh1       1.0  0.75600  0.25000  0.12400  1.0000
  Rh  Rh2       1.0  0.25600  0.25000  0.37600  1.0000
  Rh  Rh3       1.0  0.74400  0.75000  0.62400  1.0000
  Rh  Rh4       1.0  0.24400  0.75000  0.87600  1.0000
  Zn  Zn1       1.0  0.13600  0.25000  0.06270  1.0000
  Zn  Zn2       1.0  0.63600  0.25000  0.43700  1.0000
  Zn  Zn3       1.0  0.36400  0.75000  0.56300  1.0000
  Zn  Zn4       1.0  0.86400  0.75000  0.93700  1.0000
