data_image0
_chemical_formula_structural       Ag6K2Se4
_chemical_formula_sum              "Ag6 K2 Se4"
_cell_length_a       4.4167
_cell_length_b       8.65258
_cell_length_c       8.85768
_cell_angle_alpha    114.668
_cell_angle_beta     90
_cell_angle_gamma    104.787

_space_group_name_H-M_alt    "P 1"
_space_group_IT_number       1

loop_
  _space_group_symop_operation_xyz
  'x, y, z'

loop_
  _atom_site_type_symbol
  _atom_site_label
  _atom_site_symmetry_multiplicity
  _atom_site_fract_x
  _atom_site_fract_y
  _atom_site_fract_z
  _atom_site_occupancy
  Ag  Ag1       1.0  0.40600  0.81100  0.35000  1.0000
  Ag  Ag2       1.0  0.05630  0.11300  0.40000  1.0000
  Ag  Ag3       1.0  0.68800  0.37600  0.43800  1.0000
  Ag  Ag4       1.0  0.31200  0.62400  0.56200  1.0000
  Ag  Ag5       1.0  0.94400  0.88700  0.60000  1.0000
  Ag  Ag6       1.0  0.59400  0.18900  0.65000  1.0000
  K   K1        1.0  0.13600  0.27200  0.04810  1.0000
  K   K2        1.0  0.86400  0.72800  0.95200  1.0000
  Se  Se1       1.0  0.51400  0.02860  0.20800  1.0000
  Se  Se2       1.0  0.79600  0.59200  0.29200  1.0000
  Se  Se3       1.0  0.20400  0.40800  0.70800  1.0000
  Se  Se4       1.0  0.48600  0.97100  0.79200  1.0000
