data_image0
_chemical_formula_structural       Ir6Ta6
_chemical_formula_sum              "Ir6 Ta6"
_cell_length_a       13.8396
_cell_length_b       2.87699
_cell_length_c       4.85238
_cell_angle_alpha    90
_cell_angle_beta     90
_cell_angle_gamma    90

_space_group_name_H-M_alt    "P 1"
_space_group_IT_number       1

loop_
  _space_group_symop_operation_xyz
  'x, y, z'

loop_
  _atom_site_type_symbol
  _atom_site_label
  _atom_site_symmetry_multiplicity
  _atom_site_fract_x
  _atom_site_fract_y
  _atom_site_fract_z
  _atom_site_occupancy
  Ir  Ir1       1.0  0.08210  0.50000  0.17600  1.0000
  Ir  Ir2       1.0  0.41800  0.50000  0.17600  1.0000
  Ir  Ir3       1.0  0.75000  0.50000  0.45800  1.0000
  Ir  Ir4       1.0  0.25000  0.50000  0.54200  1.0000
  Ir  Ir5       1.0  0.58200  0.50000  0.82400  1.0000
  Ir  Ir6       1.0  0.91800  0.50000  0.82400  1.0000
  Ta  Ta1       1.0  0.25000  0.00000  0.05140  1.0000
  Ta  Ta2       1.0  0.58600  0.00000  0.32600  1.0000
  Ta  Ta3       1.0  0.91400  0.00000  0.32600  1.0000
  Ta  Ta4       1.0  0.08550  0.00000  0.67400  1.0000
  Ta  Ta5       1.0  0.41400  0.00000  0.67400  1.0000
  Ta  Ta6       1.0  0.75000  0.00000  0.94900  1.0000
