data_image0
_chemical_formula_structural       Cd2IrNa3O6
_chemical_formula_sum              "Cd2 Ir1 Na3 O6"
_cell_length_a       5.69567
_cell_length_b       5.69567
_cell_length_c       5.62761
_cell_angle_alpha    100.057
_cell_angle_beta     100.057
_cell_angle_gamma    119.84

_space_group_name_H-M_alt    "P 1"
_space_group_IT_number       1

loop_
  _space_group_symop_operation_xyz
  'x, y, z'

loop_
  _atom_site_type_symbol
  _atom_site_label
  _atom_site_symmetry_multiplicity
  _atom_site_fract_x
  _atom_site_fract_y
  _atom_site_fract_z
  _atom_site_occupancy
  Cd  Cd1       1.0  0.66700  0.33300  0.00000  1.0000
  Cd  Cd2       1.0  0.33300  0.66700  0.00000  1.0000
  Ir  Ir1       1.0  0.00000  0.00000  0.00000  1.0000
  Na  Na1       1.0  0.83200  0.16800  0.50000  1.0000
  Na  Na2       1.0  0.50000  0.50000  0.50000  1.0000
  Na  Na3       1.0  0.16800  0.83200  0.50000  1.0000
  O   O1        1.0  0.78200  0.78200  0.21100  1.0000
  O   O2        1.0  0.36300  0.07220  0.21900  1.0000
  O   O3        1.0  0.07220  0.36300  0.21900  1.0000
  O   O4        1.0  0.92800  0.63700  0.78100  1.0000
  O   O5        1.0  0.63700  0.92800  0.78100  1.0000
  O   O6        1.0  0.21800  0.21800  0.78900  1.0000
