data_image0
_chemical_formula_structural       Er4Ni4
_chemical_formula_sum              "Er4 Ni4"
_cell_length_a       6.96367
_cell_length_b       4.11654
_cell_length_c       5.39474
_cell_angle_alpha    90
_cell_angle_beta     90
_cell_angle_gamma    90

_space_group_name_H-M_alt    "P 1"
_space_group_IT_number       1

loop_
  _space_group_symop_operation_xyz
  'x, y, z'

loop_
  _atom_site_type_symbol
  _atom_site_label
  _atom_site_symmetry_multiplicity
  _atom_site_fract_x
  _atom_site_fract_y
  _atom_site_fract_z
  _atom_site_occupancy
  Er  Er1       1.0  0.18000  0.25000  0.13200  1.0000
  Er  Er2       1.0  0.68000  0.25000  0.36800  1.0000
  Er  Er3       1.0  0.32000  0.75000  0.63200  1.0000
  Er  Er4       1.0  0.82000  0.75000  0.86800  1.0000
  Ni  Ni1       1.0  0.46200  0.75000  0.12800  1.0000
  Ni  Ni2       1.0  0.96200  0.75000  0.37200  1.0000
  Ni  Ni3       1.0  0.03750  0.25000  0.62800  1.0000
  Ni  Ni4       1.0  0.53800  0.25000  0.87200  1.0000
