data_image0
_chemical_formula_structural       Cl2Sc2
_chemical_formula_sum              "Cl2 Sc2"
_cell_length_a       3.47636
_cell_length_b       3.47636
_cell_length_c       9.17551
_cell_angle_alpha    79.0801
_cell_angle_beta     100.92
_cell_angle_gamma    120

_space_group_name_H-M_alt    "P 1"
_space_group_IT_number       1

loop_
  _space_group_symop_operation_xyz
  'x, y, z'

loop_
  _atom_site_type_symbol
  _atom_site_label
  _atom_site_symmetry_multiplicity
  _atom_site_fract_x
  _atom_site_fract_y
  _atom_site_fract_z
  _atom_site_occupancy
  Cl  Cl1       1.0  0.39200  0.60800  0.17700  1.0000
  Cl  Cl2       1.0  0.60800  0.39200  0.82300  1.0000
  Sc  Sc1       1.0  0.78600  0.21400  0.35800  1.0000
  Sc  Sc2       1.0  0.21400  0.78600  0.64200  1.0000
