data_image0
_chemical_formula_structural       P10Tm2
_chemical_formula_sum              "P10 Tm2"
_cell_length_a       4.8972
_cell_length_b       9.35007
_cell_length_c       5.3065
_cell_angle_alpha    90
_cell_angle_beta     102.467
_cell_angle_gamma    90

_space_group_name_H-M_alt    "P 1"
_space_group_IT_number       1

loop_
  _space_group_symop_operation_xyz
  'x, y, z'

loop_
  _atom_site_type_symbol
  _atom_site_label
  _atom_site_symmetry_multiplicity
  _atom_site_fract_x
  _atom_site_fract_y
  _atom_site_fract_z
  _atom_site_occupancy
  P   P1        1.0  0.38100  0.59300  0.04170  1.0000
  P   P2        1.0  0.38100  0.90700  0.04170  1.0000
  P   P3        1.0  0.72800  0.75000  0.10700  1.0000
  P   P4        1.0  0.28200  0.52900  0.40600  1.0000
  P   P5        1.0  0.28200  0.97100  0.40600  1.0000
  P   P6        1.0  0.71800  0.02910  0.59400  1.0000
  P   P7        1.0  0.71800  0.47100  0.59400  1.0000
  P   P8        1.0  0.27200  0.25000  0.89300  1.0000
  P   P9        1.0  0.61900  0.09300  0.95800  1.0000
  P   P10       1.0  0.61900  0.40700  0.95800  1.0000
  Tm  Tm1       1.0  0.00653  0.25000  0.34900  1.0000
  Tm  Tm2       1.0  0.99300  0.75000  0.65100  1.0000
