data_image0
_chemical_formula_structural       Br2F8Rb2
_chemical_formula_sum              "Br2 F8 Rb2"
_cell_length_a       6.54595
_cell_length_b       6.54595
_cell_length_c       6.5461
_cell_angle_alpha    119.999
_cell_angle_beta     119.999
_cell_angle_gamma    90

_space_group_name_H-M_alt    "P 1"
_space_group_IT_number       1

loop_
  _space_group_symop_operation_xyz
  'x, y, z'

loop_
  _atom_site_type_symbol
  _atom_site_label
  _atom_site_symmetry_multiplicity
  _atom_site_fract_x
  _atom_site_fract_y
  _atom_site_fract_z
  _atom_site_occupancy
  Br  Br1       1.0  0.50000  0.00000  0.00000  1.0000
  Br  Br2       1.0  0.00000  0.50000  0.00000  1.0000
  F   F1        1.0  0.48900  0.29400  0.28300  1.0000
  F   F2        1.0  0.98900  0.48900  0.28300  1.0000
  F   F3        1.0  0.29400  0.79400  0.28300  1.0000
  F   F4        1.0  0.79400  0.98900  0.28300  1.0000
  F   F5        1.0  0.20600  0.01070  0.71700  1.0000
  F   F6        1.0  0.70600  0.20600  0.71700  1.0000
  F   F7        1.0  0.01070  0.51100  0.71700  1.0000
  F   F8        1.0  0.51100  0.70600  0.71700  1.0000
  Rb  Rb1       1.0  0.00000  0.00000  0.00000  1.0000
  Rb  Rb2       1.0  0.50000  0.50000  0.00000  1.0000
