data_image0
_chemical_formula_structural       Ce2In8Ni2
_chemical_formula_sum              "Ce2 In8 Ni2"
_cell_length_a       4.51412
_cell_length_b       7.27275
_cell_length_c       8.80013
_cell_angle_alpha    90
_cell_angle_beta     75.1387
_cell_angle_gamma    90

_space_group_name_H-M_alt    "P 1"
_space_group_IT_number       1

loop_
  _space_group_symop_operation_xyz
  'x, y, z'

loop_
  _atom_site_type_symbol
  _atom_site_label
  _atom_site_symmetry_multiplicity
  _atom_site_fract_x
  _atom_site_fract_y
  _atom_site_fract_z
  _atom_site_occupancy
  Ce  Ce1       1.0  0.88300  0.75000  0.23400  1.0000
  Ce  Ce2       1.0  0.11700  0.25000  0.76600  1.0000
  In  In1       1.0  0.50000  0.00000  0.00000  1.0000
  In  In2       1.0  0.50000  0.50000  0.00000  1.0000
  In  In3       1.0  0.92500  0.25000  0.15100  1.0000
  In  In4       1.0  0.31100  0.04790  0.37800  1.0000
  In  In5       1.0  0.31100  0.45200  0.37800  1.0000
  In  In6       1.0  0.68900  0.54800  0.62200  1.0000
  In  In7       1.0  0.68900  0.95200  0.62200  1.0000
  In  In8       1.0  0.07530  0.75000  0.84900  1.0000
  Ni  Ni1       1.0  0.77500  0.25000  0.45100  1.0000
  Ni  Ni2       1.0  0.22500  0.75000  0.54900  1.0000
