data_image0
_chemical_formula_structural       C2Li2
_chemical_formula_sum              "C2 Li2"
_cell_length_a       3.61339
_cell_length_b       4.02301
_cell_length_c       4.02301
_cell_angle_alpha    96.9064
_cell_angle_beta     63.3146
_cell_angle_gamma    116.685

_space_group_name_H-M_alt    "P 1"
_space_group_IT_number       1

loop_
  _space_group_symop_operation_xyz
  'x, y, z'

loop_
  _atom_site_type_symbol
  _atom_site_label
  _atom_site_symmetry_multiplicity
  _atom_site_fract_x
  _atom_site_fract_y
  _atom_site_fract_z
  _atom_site_occupancy
  C   C1        1.0  0.63100  0.63100  0.36900  1.0000
  C   C2        1.0  0.36900  0.36900  0.63100  1.0000
  Li  Li1       1.0  0.00000  0.23900  0.23900  1.0000
  Li  Li2       1.0  0.00000  0.76100  0.76100  1.0000
