data_image0
_chemical_formula_structural       Np2Pt2
_chemical_formula_sum              "Np2 Pt2"
_cell_length_a       3.906
_cell_length_b       4.32054
_cell_length_c       5.65025
_cell_angle_alpha    90
_cell_angle_beta     69.7786
_cell_angle_gamma    90

_space_group_name_H-M_alt    "P 1"
_space_group_IT_number       1

loop_
  _space_group_symop_operation_xyz
  'x, y, z'

loop_
  _atom_site_type_symbol
  _atom_site_label
  _atom_site_symmetry_multiplicity
  _atom_site_fract_x
  _atom_site_fract_y
  _atom_site_fract_z
  _atom_site_occupancy
  Np  Np1       1.0  0.86500  0.25000  0.26900  1.0000
  Np  Np2       1.0  0.13500  0.75000  0.73100  1.0000
  Pt  Pt1       1.0  0.40400  0.75000  0.19100  1.0000
  Pt  Pt2       1.0  0.59600  0.25000  0.80900  1.0000
