data_image0
_chemical_formula_structural       As4Cu4Mn4
_chemical_formula_sum              "As4 Cu4 Mn4"
_cell_length_a       6.26734
_cell_length_b       3.66995
_cell_length_c       7.55386
_cell_angle_alpha    90
_cell_angle_beta     90.0104
_cell_angle_gamma    90

_space_group_name_H-M_alt    "P 1"
_space_group_IT_number       1

loop_
  _space_group_symop_operation_xyz
  'x, y, z'

loop_
  _atom_site_type_symbol
  _atom_site_label
  _atom_site_symmetry_multiplicity
  _atom_site_fract_x
  _atom_site_fract_y
  _atom_site_fract_z
  _atom_site_occupancy
  As  As1       1.0  0.25100  0.25000  0.14400  1.0000
  As  As2       1.0  0.75100  0.25000  0.35600  1.0000
  As  As3       1.0  0.24900  0.75000  0.64400  1.0000
  As  As4       1.0  0.74900  0.75000  0.85600  1.0000
  Cu  Cu1       1.0  0.63700  0.25000  0.05290  1.0000
  Cu  Cu2       1.0  0.13700  0.25000  0.44700  1.0000
  Cu  Cu3       1.0  0.86300  0.75000  0.55300  1.0000
  Cu  Cu4       1.0  0.36300  0.75000  0.94700  1.0000
  Mn  Mn1       1.0  0.95800  0.75000  0.15500  1.0000
  Mn  Mn2       1.0  0.45800  0.75000  0.34500  1.0000
  Mn  Mn3       1.0  0.54200  0.25000  0.65500  1.0000
  Mn  Mn4       1.0  0.04200  0.25000  0.84500  1.0000
