data_image0
_chemical_formula_structural       Ce4Ge4
_chemical_formula_sum              "Ce4 Ge4"
_cell_length_a       8.48911
_cell_length_b       4.12242
_cell_length_c       6.10206
_cell_angle_alpha    90
_cell_angle_beta     90
_cell_angle_gamma    90

_space_group_name_H-M_alt    "P 1"
_space_group_IT_number       1

loop_
  _space_group_symop_operation_xyz
  'x, y, z'

loop_
  _atom_site_type_symbol
  _atom_site_label
  _atom_site_symmetry_multiplicity
  _atom_site_fract_x
  _atom_site_fract_y
  _atom_site_fract_z
  _atom_site_occupancy
  Ce  Ce1       1.0  0.18100  0.25000  0.11600  1.0000
  Ce  Ce2       1.0  0.68100  0.25000  0.38400  1.0000
  Ce  Ce3       1.0  0.31900  0.75000  0.61600  1.0000
  Ce  Ce4       1.0  0.81900  0.75000  0.88400  1.0000
  Ge  Ge1       1.0  0.46300  0.75000  0.13400  1.0000
  Ge  Ge2       1.0  0.96300  0.75000  0.36600  1.0000
  Ge  Ge3       1.0  0.03710  0.25000  0.63400  1.0000
  Ge  Ge4       1.0  0.53700  0.25000  0.86600  1.0000
