data_image0
_chemical_formula_structural       Li8S4
_chemical_formula_sum              "Li8 S4"
_cell_length_a       6.18358
_cell_length_b       3.74705
_cell_length_c       7.13646
_cell_angle_alpha    90
_cell_angle_beta     90
_cell_angle_gamma    90

_space_group_name_H-M_alt    "P 1"
_space_group_IT_number       1

loop_
  _space_group_symop_operation_xyz
  'x, y, z'

loop_
  _atom_site_type_symbol
  _atom_site_label
  _atom_site_symmetry_multiplicity
  _atom_site_fract_x
  _atom_site_fract_y
  _atom_site_fract_z
  _atom_site_occupancy
  Li  Li1       1.0  0.35700  0.75000  0.06990  1.0000
  Li  Li2       1.0  0.02650  0.25000  0.17100  1.0000
  Li  Li3       1.0  0.52700  0.25000  0.32900  1.0000
  Li  Li4       1.0  0.85700  0.75000  0.43000  1.0000
  Li  Li5       1.0  0.14300  0.25000  0.57000  1.0000
  Li  Li6       1.0  0.47300  0.75000  0.67100  1.0000
  Li  Li7       1.0  0.97300  0.75000  0.82900  1.0000
  Li  Li8       1.0  0.64300  0.25000  0.93000  1.0000
  S   S1        1.0  0.74500  0.75000  0.11300  1.0000
  S   S2        1.0  0.24500  0.75000  0.38700  1.0000
  S   S3        1.0  0.75500  0.25000  0.61300  1.0000
  S   S4        1.0  0.25500  0.25000  0.88700  1.0000
