data_image0
_chemical_formula_structural       Pd2Sr2
_chemical_formula_sum              "Pd2 Sr2"
_cell_length_a       4.21561
_cell_length_b       4.53848
_cell_length_c       6.04117
_cell_angle_alpha    90
_cell_angle_beta     69.5796
_cell_angle_gamma    90

_space_group_name_H-M_alt    "P 1"
_space_group_IT_number       1

loop_
  _space_group_symop_operation_xyz
  'x, y, z'

loop_
  _atom_site_type_symbol
  _atom_site_label
  _atom_site_symmetry_multiplicity
  _atom_site_fract_x
  _atom_site_fract_y
  _atom_site_fract_z
  _atom_site_occupancy
  Pd  Pd1       1.0  0.42700  0.75000  0.14700  1.0000
  Pd  Pd2       1.0  0.57300  0.25000  0.85300  1.0000
  Sr  Sr1       1.0  0.86000  0.25000  0.28000  1.0000
  Sr  Sr2       1.0  0.14000  0.75000  0.72000  1.0000
