data_image0
_chemical_formula_structural       Pt4Tb4
_chemical_formula_sum              "Pt4 Tb4"
_cell_length_a       7.04613
_cell_length_b       4.80048
_cell_length_c       5.03378
_cell_angle_alpha    90
_cell_angle_beta     90
_cell_angle_gamma    90

_space_group_name_H-M_alt    "P 1"
_space_group_IT_number       1

loop_
  _space_group_symop_operation_xyz
  'x, y, z'

loop_
  _atom_site_type_symbol
  _atom_site_label
  _atom_site_symmetry_multiplicity
  _atom_site_fract_x
  _atom_site_fract_y
  _atom_site_fract_z
  _atom_site_occupancy
  Pt  Pt1       1.0  0.24400  0.25000  0.24900  1.0000
  Pt  Pt2       1.0  0.74500  0.25000  0.25100  1.0000
  Pt  Pt3       1.0  0.25600  0.75000  0.74900  1.0000
  Pt  Pt4       1.0  0.75500  0.75000  0.75100  1.0000
  Tb  Tb1       1.0  0.49600  0.75000  0.25000  1.0000
  Tb  Tb2       1.0  0.99600  0.75000  0.25000  1.0000
  Tb  Tb3       1.0  0.00371  0.25000  0.75000  1.0000
  Tb  Tb4       1.0  0.50400  0.25000  0.75000  1.0000
