data_image0
_chemical_formula_structural       C5Ca4Ni3
_chemical_formula_sum              "C5 Ca4 Ni3"
_cell_length_a       3.73869
_cell_length_b       5.80836
_cell_length_c       9.35156
_cell_angle_alpha    96.1766
_cell_angle_beta     101.531
_cell_angle_gamma    108.774

_space_group_name_H-M_alt    "P 1"
_space_group_IT_number       1

loop_
  _space_group_symop_operation_xyz
  'x, y, z'

loop_
  _atom_site_type_symbol
  _atom_site_label
  _atom_site_symmetry_multiplicity
  _atom_site_fract_x
  _atom_site_fract_y
  _atom_site_fract_z
  _atom_site_occupancy
  C   C1        1.0  0.50000  0.00000  0.00000  1.0000
  C   C2        1.0  0.91300  0.51700  0.30800  1.0000
  C   C3        1.0  0.06440  0.73400  0.39500  1.0000
  C   C4        1.0  0.93600  0.26600  0.60500  1.0000
  C   C5        1.0  0.08710  0.48300  0.69200  1.0000
  Ca  Ca1       1.0  0.41600  0.67200  0.16100  1.0000
  Ca  Ca2       1.0  0.29800  0.19800  0.39700  1.0000
  Ca  Ca3       1.0  0.70200  0.80200  0.60300  1.0000
  Ca  Ca4       1.0  0.58400  0.32800  0.83900  1.0000
  Ni  Ni1       1.0  0.00000  0.00000  0.00000  1.0000
  Ni  Ni2       1.0  0.70500  0.24700  0.16400  1.0000
  Ni  Ni3       1.0  0.29500  0.75300  0.83600  1.0000
