data_image0
_chemical_formula_structural       F12MnSb2
_chemical_formula_sum              "F12 Mn1 Sb2"
_cell_length_a       4.77765
_cell_length_b       5.25584
_cell_length_c       8.25122
_cell_angle_alpha    74.3487
_cell_angle_beta     89.5602
_cell_angle_gamma    63.3808

_space_group_name_H-M_alt    "P 1"
_space_group_IT_number       1

loop_
  _space_group_symop_operation_xyz
  'x, y, z'

loop_
  _atom_site_type_symbol
  _atom_site_label
  _atom_site_symmetry_multiplicity
  _atom_site_fract_x
  _atom_site_fract_y
  _atom_site_fract_z
  _atom_site_occupancy
  F   F1        1.0  0.44900  0.26000  0.03070  1.0000
  F   F2        1.0  0.05520  0.74900  0.12100  1.0000
  F   F3        1.0  0.96100  0.25700  0.21000  1.0000
  F   F4        1.0  0.55400  0.76600  0.28200  1.0000
  F   F5        1.0  0.47400  0.23700  0.36300  1.0000
  F   F6        1.0  0.01640  0.76600  0.44000  1.0000
  F   F7        1.0  0.98400  0.23400  0.56000  1.0000
  F   F8        1.0  0.52600  0.76300  0.63700  1.0000
  F   F9        1.0  0.44600  0.23400  0.71800  1.0000
  F   F10       1.0  0.03920  0.74300  0.79000  1.0000
  F   F11       1.0  0.94500  0.25100  0.87900  1.0000
  F   F12       1.0  0.55100  0.74000  0.96900  1.0000
  Mn  Mn1       1.0  0.50000  0.50000  0.50000  1.0000
  Sb  Sb1       1.0  0.75600  0.02170  0.21900  1.0000
  Sb  Sb2       1.0  0.24400  0.97800  0.78100  1.0000
