data_image0
_chemical_formula_structural       Rb6Se6
_chemical_formula_sum              "Rb6 Se6"
_cell_length_a       9.38018
_cell_length_b       9.38018
_cell_length_c       6.28629
_cell_angle_alpha    90
_cell_angle_beta     90
_cell_angle_gamma    120

_space_group_name_H-M_alt    "P 1"
_space_group_IT_number       1

loop_
  _space_group_symop_operation_xyz
  'x, y, z'

loop_
  _atom_site_type_symbol
  _atom_site_label
  _atom_site_symmetry_multiplicity
  _atom_site_fract_x
  _atom_site_fract_y
  _atom_site_fract_z
  _atom_site_occupancy
  Rb  Rb1       1.0  0.64800  0.00002  0.00000  1.0000
  Rb  Rb2       1.0  0.35200  0.35200  0.00000  1.0000
  Rb  Rb3       1.0  0.00002  0.64800  0.00000  1.0000
  Rb  Rb4       1.0  0.31200  0.00002  0.50000  1.0000
  Rb  Rb5       1.0  0.00002  0.31200  0.50000  1.0000
  Rb  Rb6       1.0  0.68800  0.68800  0.50000  1.0000
  Se  Se1       1.0  0.00001  0.00001  0.19300  1.0000
  Se  Se2       1.0  0.66700  0.33300  0.30600  1.0000
  Se  Se3       1.0  0.33300  0.66700  0.30600  1.0000
  Se  Se4       1.0  0.66700  0.33300  0.69400  1.0000
  Se  Se5       1.0  0.33300  0.66700  0.69400  1.0000
  Se  Se6       1.0  0.00001  0.00001  0.80700  1.0000
