data_image0
_chemical_formula_structural       MgSb3
_chemical_formula_sum              "Mg1 Sb3"
_cell_length_a       3.29171
_cell_length_b       6.27611
_cell_length_c       6.35051
_cell_angle_alpha    59.6071
_cell_angle_beta     90
_cell_angle_gamma    74.7969

_space_group_name_H-M_alt    "P 1"
_space_group_IT_number       1

loop_
  _space_group_symop_operation_xyz
  'x, y, z'

loop_
  _atom_site_type_symbol
  _atom_site_label
  _atom_site_symmetry_multiplicity
  _atom_site_fract_x
  _atom_site_fract_y
  _atom_site_fract_z
  _atom_site_occupancy
  Mg  Mg1       1.0  0.75000  0.50000  0.01410  1.0000
  Sb  Sb1       1.0  0.05450  0.89100  0.07910  1.0000
  Sb  Sb2       1.0  0.44600  0.10900  0.47000  1.0000
  Sb  Sb3       1.0  0.25000  0.50000  0.60300  1.0000
