data_image0
_chemical_formula_structural       Ca9Pt6
_chemical_formula_sum              "Ca9 Pt6"
_cell_length_a       7.58127
_cell_length_b       7.58127
_cell_length_c       7.58127
_cell_angle_alpha    70.8991
_cell_angle_beta     109.101
_cell_angle_gamma    109.101

_space_group_name_H-M_alt    "P 1"
_space_group_IT_number       1

loop_
  _space_group_symop_operation_xyz
  'x, y, z'

loop_
  _atom_site_type_symbol
  _atom_site_label
  _atom_site_symmetry_multiplicity
  _atom_site_fract_x
  _atom_site_fract_y
  _atom_site_fract_z
  _atom_site_occupancy
  Ca  Ca1       1.0  0.00000  0.00000  0.00000  1.0000
  Ca  Ca2       1.0  0.60100  0.66600  0.15300  1.0000
  Ca  Ca3       1.0  0.79900  0.20100  0.20100  1.0000
  Ca  Ca4       1.0  0.15300  0.60100  0.33400  1.0000
  Ca  Ca5       1.0  0.33400  0.15300  0.39900  1.0000
  Ca  Ca6       1.0  0.66600  0.84700  0.60100  1.0000
  Ca  Ca7       1.0  0.84700  0.39900  0.66600  1.0000
  Ca  Ca8       1.0  0.20100  0.79900  0.79900  1.0000
  Ca  Ca9       1.0  0.39900  0.33400  0.84700  1.0000
  Pt  Pt1       1.0  0.16100  0.41300  0.04600  1.0000
  Pt  Pt2       1.0  0.41300  0.95400  0.16100  1.0000
  Pt  Pt3       1.0  0.95400  0.83900  0.41300  1.0000
  Pt  Pt4       1.0  0.04600  0.16100  0.58700  1.0000
  Pt  Pt5       1.0  0.58700  0.04600  0.83900  1.0000
  Pt  Pt6       1.0  0.83900  0.58700  0.95400  1.0000
