data_image0
_chemical_formula_structural       Ge2Sr2
_chemical_formula_sum              "Ge2 Sr2"
_cell_length_a       4.20164
_cell_length_b       4.83725
_cell_length_c       6.23144
_cell_angle_alpha    67.1616
_cell_angle_beta     90
_cell_angle_gamma    90

_space_group_name_H-M_alt    "P 1"
_space_group_IT_number       1

loop_
  _space_group_symop_operation_xyz
  'x, y, z'

loop_
  _atom_site_type_symbol
  _atom_site_label
  _atom_site_symmetry_multiplicity
  _atom_site_fract_x
  _atom_site_fract_y
  _atom_site_fract_z
  _atom_site_occupancy
  Ge  Ge1       1.0  0.25000  0.92900  0.14200  1.0000
  Ge  Ge2       1.0  0.75000  0.07110  0.85800  1.0000
  Sr  Sr1       1.0  0.75000  0.36300  0.27400  1.0000
  Sr  Sr2       1.0  0.25000  0.63700  0.72600  1.0000
