data_image0
_chemical_formula_structural       Cs2S2
_chemical_formula_sum              "Cs2 S2"
_cell_length_a       5.34261
_cell_length_b       6.37211
_cell_length_c       6.37211
_cell_angle_alpha    68.1967
_cell_angle_beta     114.785
_cell_angle_gamma    114.785

_space_group_name_H-M_alt    "P 1"
_space_group_IT_number       1

loop_
  _space_group_symop_operation_xyz
  'x, y, z'

loop_
  _atom_site_type_symbol
  _atom_site_label
  _atom_site_symmetry_multiplicity
  _atom_site_fract_x
  _atom_site_fract_y
  _atom_site_fract_z
  _atom_site_occupancy
  Cs  Cs1       1.0  0.72200  0.22200  0.22200  1.0000
  Cs  Cs2       1.0  0.27800  0.77800  0.77800  1.0000
  S   S1        1.0  0.00000  0.85100  0.14900  1.0000
  S   S2        1.0  0.00000  0.14900  0.85100  1.0000
