data_image0
_chemical_formula_structural       C6CrCsMnN6
_chemical_formula_sum              "C6 Cr1 Cs1 Mn1 N6"
_cell_length_a       7.17723
_cell_length_b       7.17723
_cell_length_c       7.17723
_cell_angle_alpha    120
_cell_angle_beta     90
_cell_angle_gamma    120

_space_group_name_H-M_alt    "P 1"
_space_group_IT_number       1

loop_
  _space_group_symop_operation_xyz
  'x, y, z'

loop_
  _atom_site_type_symbol
  _atom_site_label
  _atom_site_symmetry_multiplicity
  _atom_site_fract_x
  _atom_site_fract_y
  _atom_site_fract_z
  _atom_site_occupancy
  C   C1        1.0  0.69600  0.00000  0.30400  1.0000
  C   C2        1.0  0.30400  0.60800  0.30400  1.0000
  C   C3        1.0  0.30400  0.00000  0.30400  1.0000
  C   C4        1.0  0.30400  0.00000  0.69600  1.0000
  C   C5        1.0  0.69600  0.39200  0.69600  1.0000
  C   C6        1.0  0.69600  0.00000  0.69600  1.0000
  Cr  Cr1       1.0  0.50000  0.00000  0.50000  1.0000
  Cs  Cs1       1.0  0.75000  0.50000  0.25000  1.0000
  Mn  Mn1       1.0  0.00000  0.00000  0.00000  1.0000
  N   N1        1.0  0.81200  0.00000  0.18800  1.0000
  N   N2        1.0  0.18800  0.37600  0.18800  1.0000
  N   N3        1.0  0.18800  0.00000  0.18800  1.0000
  N   N4        1.0  0.81200  0.00000  0.81200  1.0000
  N   N5        1.0  0.18800  0.00000  0.81200  1.0000
  N   N6        1.0  0.81200  0.62400  0.81200  1.0000
