data_image0
_chemical_formula_structural       B2Cr2
_chemical_formula_sum              "B2 Cr2"
_cell_length_a       2.91249
_cell_length_b       2.91822
_cell_length_c       4.18169
_cell_angle_alpha    69.5782
_cell_angle_beta     90
_cell_angle_gamma    90

_space_group_name_H-M_alt    "P 1"
_space_group_IT_number       1

loop_
  _space_group_symop_operation_xyz
  'x, y, z'

loop_
  _atom_site_type_symbol
  _atom_site_label
  _atom_site_symmetry_multiplicity
  _atom_site_fract_x
  _atom_site_fract_y
  _atom_site_fract_z
  _atom_site_occupancy
  B   B1        1.0  0.75000  0.43600  0.12800  1.0000
  B   B2        1.0  0.25000  0.56400  0.87200  1.0000
  Cr  Cr1       1.0  0.25000  0.85400  0.29200  1.0000
  Cr  Cr2       1.0  0.75000  0.14600  0.70800  1.0000
