data_image0
_chemical_formula_structural       Au2Lu
_chemical_formula_sum              "Au2 Lu1"
_cell_length_a       3.65133
_cell_length_b       3.65133
_cell_length_c       5.15999
_cell_angle_alpha    110.721
_cell_angle_beta     110.721
_cell_angle_gamma    90

_space_group_name_H-M_alt    "P 1"
_space_group_IT_number       1

loop_
  _space_group_symop_operation_xyz
  'x, y, z'

loop_
  _atom_site_type_symbol
  _atom_site_label
  _atom_site_symmetry_multiplicity
  _atom_site_fract_x
  _atom_site_fract_y
  _atom_site_fract_z
  _atom_site_occupancy
  Au  Au1       1.0  0.66300  0.66300  0.32600  1.0000
  Au  Au2       1.0  0.33700  0.33700  0.67400  1.0000
  Lu  Lu1       1.0  0.00000  0.00000  0.00000  1.0000
