data_image0
_chemical_formula_structural       Br2Mo2Te8
_chemical_formula_sum              "Br2 Mo2 Te8"
_cell_length_a       6.90278
_cell_length_b       8.09114
_cell_length_c       8.14683
_cell_angle_alpha    113.609
_cell_angle_beta     102.947
_cell_angle_gamma    101.099

_space_group_name_H-M_alt    "P 1"
_space_group_IT_number       1

loop_
  _space_group_symop_operation_xyz
  'x, y, z'

loop_
  _atom_site_type_symbol
  _atom_site_label
  _atom_site_symmetry_multiplicity
  _atom_site_fract_x
  _atom_site_fract_y
  _atom_site_fract_z
  _atom_site_occupancy
  Br  Br1       1.0  0.74300  0.59700  0.41600  1.0000
  Br  Br2       1.0  0.25700  0.40300  0.58400  1.0000
  Mo  Mo1       1.0  0.78200  0.00001  0.00121  1.0000
  Mo  Mo2       1.0  0.21800  0.00000  0.99900  1.0000
  Te  Te1       1.0  0.46300  0.76700  0.06240  1.0000
  Te  Te2       1.0  0.12100  0.32600  0.17900  1.0000
  Te  Te3       1.0  0.03550  0.88700  0.22300  1.0000
  Te  Te4       1.0  0.61200  0.14500  0.30600  1.0000
  Te  Te5       1.0  0.38800  0.85500  0.69400  1.0000
  Te  Te6       1.0  0.96400  0.11300  0.77700  1.0000
  Te  Te7       1.0  0.87900  0.67400  0.82100  1.0000
  Te  Te8       1.0  0.53700  0.23300  0.93800  1.0000
