data_image0
_chemical_formula_structural       Lu2Mn10
_chemical_formula_sum              "Lu2 Mn10"
_cell_length_a       4.76226
_cell_length_b       4.7624
_cell_length_c       7.88443
_cell_angle_alpha    90.0038
_cell_angle_beta     89.995
_cell_angle_gamma    119.993

_space_group_name_H-M_alt    "P 1"
_space_group_IT_number       1

loop_
  _space_group_symop_operation_xyz
  'x, y, z'

loop_
  _atom_site_type_symbol
  _atom_site_label
  _atom_site_symmetry_multiplicity
  _atom_site_fract_x
  _atom_site_fract_y
  _atom_site_fract_z
  _atom_site_occupancy
  Lu  Lu1       1.0  0.33300  0.66700  0.25700  1.0000
  Lu  Lu2       1.0  0.66700  0.33300  0.75800  1.0000
  Mn  Mn1       1.0  0.66700  0.33300  0.11800  1.0000
  Mn  Mn2       1.0  0.00000  0.00006  0.20800  1.0000
  Mn  Mn3       1.0  0.82900  0.17100  0.45100  1.0000
  Mn  Mn4       1.0  0.34300  0.17100  0.45100  1.0000
  Mn  Mn5       1.0  0.82900  0.65700  0.45100  1.0000
  Mn  Mn6       1.0  0.33300  0.66700  0.61800  1.0000
  Mn  Mn7       1.0  0.00000  0.00000  0.70700  1.0000
  Mn  Mn8       1.0  0.17200  0.82800  0.95100  1.0000
  Mn  Mn9       1.0  0.65700  0.82800  0.95100  1.0000
  Mn  Mn10      1.0  0.17200  0.34300  0.95100  1.0000
