data_image0
_chemical_formula_structural       Br2Zr2
_chemical_formula_sum              "Br2 Zr2"
_cell_length_a       3.52232
_cell_length_b       3.52232
_cell_length_c       9.65984
_cell_angle_alpha    79.4952
_cell_angle_beta     100.505
_cell_angle_gamma    120

_space_group_name_H-M_alt    "P 1"
_space_group_IT_number       1

loop_
  _space_group_symop_operation_xyz
  'x, y, z'

loop_
  _atom_site_type_symbol
  _atom_site_label
  _atom_site_symmetry_multiplicity
  _atom_site_fract_x
  _atom_site_fract_y
  _atom_site_fract_z
  _atom_site_occupancy
  Br  Br1       1.0  0.39100  0.60900  0.17400  1.0000
  Br  Br2       1.0  0.60900  0.39100  0.82600  1.0000
  Zr  Zr1       1.0  0.79200  0.20800  0.37600  1.0000
  Zr  Zr2       1.0  0.20800  0.79200  0.62400  1.0000
