data_image0
_chemical_formula_structural       S8Tc4
_chemical_formula_sum              "S8 Tc4"
_cell_length_a       6.41172
_cell_length_b       6.51614
_cell_length_c       6.87716
_cell_angle_alpha    63.78
_cell_angle_beta     103.208
_cell_angle_gamma    118.832

_space_group_name_H-M_alt    "P 1"
_space_group_IT_number       1

loop_
  _space_group_symop_operation_xyz
  'x, y, z'

loop_
  _atom_site_type_symbol
  _atom_site_label
  _atom_site_symmetry_multiplicity
  _atom_site_fract_x
  _atom_site_fract_y
  _atom_site_fract_z
  _atom_site_occupancy
  S   S1        1.0  0.63800  0.68600  0.22000  1.0000
  S   S2        1.0  0.17700  0.71600  0.24700  1.0000
  S   S3        1.0  0.14200  0.16600  0.28300  1.0000
  S   S4        1.0  0.68000  0.18300  0.30900  1.0000
  S   S5        1.0  0.32000  0.81700  0.69100  1.0000
  S   S6        1.0  0.85800  0.83400  0.71700  1.0000
  S   S7        1.0  0.82300  0.28400  0.75300  1.0000
  S   S8        1.0  0.36200  0.31400  0.78000  1.0000
  Tc  Tc1       1.0  0.93800  0.69100  0.49100  1.0000
  Tc  Tc2       1.0  0.51200  0.71500  0.49700  1.0000
  Tc  Tc3       1.0  0.48800  0.28500  0.50300  1.0000
  Tc  Tc4       1.0  0.06210  0.30900  0.50900  1.0000
