data_image0
_chemical_formula_structural       GeP
_chemical_formula_sum              "Ge1 P1"
_cell_length_a       3.55862
_cell_length_b       3.55862
_cell_length_c       3.8011
_cell_angle_alpha    117.911
_cell_angle_beta     117.911
_cell_angle_gamma    90

_space_group_name_H-M_alt    "P 1"
_space_group_IT_number       1

loop_
  _space_group_symop_operation_xyz
  'x, y, z'

loop_
  _atom_site_type_symbol
  _atom_site_label
  _atom_site_symmetry_multiplicity
  _atom_site_fract_x
  _atom_site_fract_y
  _atom_site_fract_z
  _atom_site_occupancy
  Ge  Ge1       1.0  0.99700  0.99700  0.99500  1.0000
  P   P1        1.0  0.57600  0.57600  0.15100  1.0000
