data_image0
_chemical_formula_structural       Ag2Au2F8
_chemical_formula_sum              "Ag2 Au2 F8"
_cell_length_a       5.58732
_cell_length_b       5.58732
_cell_length_c       6.63924
_cell_angle_alpha    114.884
_cell_angle_beta     114.884
_cell_angle_gamma    90

_space_group_name_H-M_alt    "P 1"
_space_group_IT_number       1

loop_
  _space_group_symop_operation_xyz
  'x, y, z'

loop_
  _atom_site_type_symbol
  _atom_site_label
  _atom_site_symmetry_multiplicity
  _atom_site_fract_x
  _atom_site_fract_y
  _atom_site_fract_z
  _atom_site_occupancy
  Ag  Ag1       1.0  0.75000  0.75000  0.50000  1.0000
  Ag  Ag2       1.0  0.25000  0.25000  0.50000  1.0000
  Au  Au1       1.0  0.50000  1.00000  0.00000  1.0000
  Au  Au2       1.0  1.00000  0.50000  0.00000  1.0000
  F   F1        1.0  0.95100  0.80900  0.26100  1.0000
  F   F2        1.0  0.45100  0.95100  0.26100  1.0000
  F   F3        1.0  0.80900  0.30900  0.26100  1.0000
  F   F4        1.0  0.30900  0.45100  0.26100  1.0000
  F   F5        1.0  0.69100  0.54900  0.73900  1.0000
  F   F6        1.0  0.19100  0.69100  0.73900  1.0000
  F   F7        1.0  0.54900  0.04850  0.73900  1.0000
  F   F8        1.0  0.04850  0.19100  0.73900  1.0000
