data_image0
_chemical_formula_structural       BaF12Sb2
_chemical_formula_sum              "Ba1 F12 Sb2"
_cell_length_a       5.2219
_cell_length_b       4.95511
_cell_length_c       8.79296
_cell_angle_alpha    96.2314
_cell_angle_beta     104.613
_cell_angle_gamma    118.238

_space_group_name_H-M_alt    "P 1"
_space_group_IT_number       1

loop_
  _space_group_symop_operation_xyz
  'x, y, z'

loop_
  _atom_site_type_symbol
  _atom_site_label
  _atom_site_symmetry_multiplicity
  _atom_site_fract_x
  _atom_site_fract_y
  _atom_site_fract_z
  _atom_site_occupancy
  Ba  Ba1       1.0  0.08200  0.17700  0.09960  1.0000
  F   F1        1.0  0.52500  0.14500  0.02110  1.0000
  F   F2        1.0  0.96100  0.66000  0.23500  1.0000
  F   F3        1.0  0.53800  0.16700  0.31400  1.0000
  F   F4        1.0  0.10300  0.30800  0.38800  1.0000
  F   F5        1.0  0.69000  0.75000  0.43000  1.0000
  F   F6        1.0  0.31400  0.93000  0.53400  1.0000
  F   F7        1.0  0.94800  0.42600  0.63400  1.0000
  F   F8        1.0  0.51600  0.50200  0.65800  1.0000
  F   F9        1.0  0.09850  0.00866  0.75100  1.0000
  F   F10       1.0  0.68300  0.03550  0.79500  1.0000
  F   F11       1.0  0.96100  0.61400  0.94300  1.0000
  F   F12       1.0  0.46200  0.59200  0.95700  1.0000
  Sb  Sb1       1.0  0.92300  0.55100  0.43800  1.0000
  Sb  Sb2       1.0  0.52700  0.30200  0.82500  1.0000
