data_image0
_chemical_formula_structural       C2O6Tl4
_chemical_formula_sum              "C2 O6 Tl4"
_cell_length_a       5.23275
_cell_length_b       6.61923
_cell_length_c       7.07291
_cell_angle_alpha    97.6006
_cell_angle_beta     111.71
_cell_angle_gamma    113.283

_space_group_name_H-M_alt    "P 1"
_space_group_IT_number       1

loop_
  _space_group_symop_operation_xyz
  'x, y, z'

loop_
  _atom_site_type_symbol
  _atom_site_label
  _atom_site_symmetry_multiplicity
  _atom_site_fract_x
  _atom_site_fract_y
  _atom_site_fract_z
  _atom_site_occupancy
  C   C1        1.0  0.51000  0.85800  0.16200  1.0000
  C   C2        1.0  0.49000  0.14200  0.83800  1.0000
  O   O1        1.0  0.20600  0.77500  0.06670  1.0000
  O   O2        1.0  0.63600  0.77500  0.06670  1.0000
  O   O3        1.0  0.68300  0.01870  0.34700  1.0000
  O   O4        1.0  0.31700  0.98100  0.65300  1.0000
  O   O5        1.0  0.36400  0.22500  0.93300  1.0000
  O   O6        1.0  0.79400  0.22500  0.93300  1.0000
  Tl  Tl1       1.0  0.90500  0.55100  0.25900  1.0000
  Tl  Tl2       1.0  0.23300  0.16000  0.30700  1.0000
  Tl  Tl3       1.0  0.76700  0.84000  0.69300  1.0000
  Tl  Tl4       1.0  0.09470  0.44900  0.74100  1.0000
