data_image0
_chemical_formula_structural       FeNaO8S2
_chemical_formula_sum              "Fe1 Na1 O8 S2"
_cell_length_a       4.61548
_cell_length_b       4.70862
_cell_length_c       6.82355
_cell_angle_alpha    93.1447
_cell_angle_beta     91.8136
_cell_angle_gamma    67.3057

_space_group_name_H-M_alt    "P 1"
_space_group_IT_number       1

loop_
  _space_group_symop_operation_xyz
  'x, y, z'

loop_
  _atom_site_type_symbol
  _atom_site_label
  _atom_site_symmetry_multiplicity
  _atom_site_fract_x
  _atom_site_fract_y
  _atom_site_fract_z
  _atom_site_occupancy
  Fe  Fe1       1.0  0.00000  0.00000  0.00000  1.0000
  Na  Na1       1.0  1.00000  0.00000  0.50000  1.0000
  O   O1        1.0  0.24900  0.24400  0.04850  1.0000
  O   O2        1.0  0.72400  0.23700  0.21100  1.0000
  O   O3        1.0  0.25500  0.70400  0.21700  1.0000
  O   O4        1.0  0.29000  0.28000  0.41300  1.0000
  O   O5        1.0  0.71000  0.72000  0.58700  1.0000
  O   O6        1.0  0.74500  0.29600  0.78300  1.0000
  O   O7        1.0  0.27600  0.76300  0.78900  1.0000
  O   O8        1.0  0.75100  0.75600  0.95200  1.0000
  S   S1        1.0  0.36800  0.36400  0.22700  1.0000
  S   S2        1.0  0.63200  0.63600  0.77300  1.0000
