data_image0
_chemical_formula_structural       CrMo6Se8
_chemical_formula_sum              "Cr1 Mo6 Se8"
_cell_length_a       6.70676
_cell_length_b       6.71997
_cell_length_c       6.72184
_cell_angle_alpha    90.7268
_cell_angle_beta     93.6987
_cell_angle_gamma    91.4408

_space_group_name_H-M_alt    "P 1"
_space_group_IT_number       1

loop_
  _space_group_symop_operation_xyz
  'x, y, z'

loop_
  _atom_site_type_symbol
  _atom_site_label
  _atom_site_symmetry_multiplicity
  _atom_site_fract_x
  _atom_site_fract_y
  _atom_site_fract_z
  _atom_site_occupancy
  Cr  Cr1       1.0  0.00000  0.00000  0.00000  1.0000
  Mo  Mo1       1.0  0.54700  0.42100  0.22700  1.0000
  Mo  Mo2       1.0  0.22700  0.55100  0.41600  1.0000
  Mo  Mo3       1.0  0.57800  0.77300  0.44800  1.0000
  Mo  Mo4       1.0  0.42200  0.22700  0.55200  1.0000
  Mo  Mo5       1.0  0.77300  0.44900  0.58400  1.0000
  Mo  Mo6       1.0  0.45300  0.57900  0.77300  1.0000
  Se  Se1       1.0  0.35800  0.75100  0.12100  1.0000
  Se  Se2       1.0  0.21700  0.22400  0.22000  1.0000
  Se  Se3       1.0  0.86600  0.63700  0.25500  1.0000
  Se  Se4       1.0  0.74600  0.12900  0.37300  1.0000
  Se  Se5       1.0  0.25400  0.87100  0.62700  1.0000
  Se  Se6       1.0  0.13400  0.36300  0.74500  1.0000
  Se  Se7       1.0  0.78300  0.77600  0.78000  1.0000
  Se  Se8       1.0  0.64200  0.24900  0.87900  1.0000
