data_image0
_chemical_formula_structural       AgF12Ta2
_chemical_formula_sum              "Ag1 F12 Ta2"
_cell_length_a       8.5357
_cell_length_b       5.27115
_cell_length_c       4.76683
_cell_angle_alpha    117.528
_cell_angle_beta     91.2033
_cell_angle_gamma    102.458

_space_group_name_H-M_alt    "P 1"
_space_group_IT_number       1

loop_
  _space_group_symop_operation_xyz
  'x, y, z'

loop_
  _atom_site_type_symbol
  _atom_site_label
  _atom_site_symmetry_multiplicity
  _atom_site_fract_x
  _atom_site_fract_y
  _atom_site_fract_z
  _atom_site_occupancy
  Ag  Ag1       1.0  0.00000  0.00000  0.00000  1.0000
  F   F1        1.0  0.76000  0.70400  0.02290  1.0000
  F   F2        1.0  0.14300  0.74700  0.05360  1.0000
  F   F3        1.0  0.46700  0.77100  0.06460  1.0000
  F   F4        1.0  0.72000  0.23300  0.43000  1.0000
  F   F5        1.0  0.38600  0.26100  0.45100  1.0000
  F   F6        1.0  0.93000  0.72200  0.49300  1.0000
  F   F7        1.0  0.07000  0.27800  0.50700  1.0000
  F   F8        1.0  0.61400  0.73900  0.54900  1.0000
  F   F9        1.0  0.28000  0.76700  0.57000  1.0000
  F   F10       1.0  0.53300  0.22900  0.93500  1.0000
  F   F11       1.0  0.85700  0.25300  0.94600  1.0000
  F   F12       1.0  0.24000  0.29600  0.97700  1.0000
  Ta  Ta1       1.0  0.71200  0.47400  0.24200  1.0000
  Ta  Ta2       1.0  0.28800  0.52600  0.75800  1.0000
