data_image0
_chemical_formula_structural       C6Mn2N6Os
_chemical_formula_sum              "C6 Mn2 N6 Os1"
_cell_length_a       5.91447
_cell_length_b       5.89895
_cell_length_c       6.84503
_cell_angle_alpha    90.1115
_cell_angle_beta     89.9681
_cell_angle_gamma    120.517

_space_group_name_H-M_alt    "P 1"
_space_group_IT_number       1

loop_
  _space_group_symop_operation_xyz
  'x, y, z'

loop_
  _atom_site_type_symbol
  _atom_site_label
  _atom_site_symmetry_multiplicity
  _atom_site_fract_x
  _atom_site_fract_y
  _atom_site_fract_z
  _atom_site_occupancy
  C   C1        1.0  0.73400  0.73600  0.18300  1.0000
  C   C2        1.0  0.99800  0.26200  0.18400  1.0000
  C   C3        1.0  0.25700  0.99900  0.18800  1.0000
  C   C4        1.0  0.74300  0.00109  0.81200  1.0000
  C   C5        1.0  0.00230  0.73800  0.81600  1.0000
  C   C6        1.0  0.26600  0.26400  0.81700  1.0000
  Mn  Mn1       1.0  0.66700  0.33500  0.50000  1.0000
  Mn  Mn2       1.0  0.33300  0.66500  0.50000  1.0000
  N   N1        1.0  0.60200  0.60500  0.31500  1.0000
  N   N2        1.0  0.99500  0.39300  0.31600  1.0000
  N   N3        1.0  0.38700  0.99700  0.32000  1.0000
  N   N4        1.0  0.61300  0.00283  0.68000  1.0000
  N   N5        1.0  0.00497  0.60700  0.68400  1.0000
  N   N6        1.0  0.39800  0.39500  0.68500  1.0000
  Os  Os1       1.0  0.00000  0.00000  0.00000  1.0000
