data_image0
_chemical_formula_structural       F4Se4Y4
_chemical_formula_sum              "F4 Se4 Y4"
_cell_length_a       10.5699
_cell_length_b       5.62444
_cell_length_c       4.1609
_cell_angle_alpha    90
_cell_angle_beta     90
_cell_angle_gamma    90

_space_group_name_H-M_alt    "P 1"
_space_group_IT_number       1

loop_
  _space_group_symop_operation_xyz
  'x, y, z'

loop_
  _atom_site_type_symbol
  _atom_site_label
  _atom_site_symmetry_multiplicity
  _atom_site_fract_x
  _atom_site_fract_y
  _atom_site_fract_z
  _atom_site_occupancy
  F   F1        1.0  0.56000  0.02570  0.25000  1.0000
  F   F2        1.0  0.06010  0.47400  0.25000  1.0000
  F   F3        1.0  0.44000  0.97400  0.75000  1.0000
  F   F4        1.0  0.94000  0.52600  0.75000  1.0000
  Se  Se1       1.0  0.84800  0.01520  0.25000  1.0000
  Se  Se2       1.0  0.34800  0.48500  0.25000  1.0000
  Se  Se3       1.0  0.65200  0.51500  0.75000  1.0000
  Se  Se4       1.0  0.15200  0.98500  0.75000  1.0000
  Y   Y1        1.0  0.84700  0.51700  0.25000  1.0000
  Y   Y2        1.0  0.34700  0.98300  0.25000  1.0000
  Y   Y3        1.0  0.65300  0.01710  0.75000  1.0000
  Y   Y4        1.0  0.15300  0.48300  0.75000  1.0000
