data_image0
_chemical_formula_structural       Li40Mn8O32
_chemical_formula_sum              "Li40 Mn8 O32"
_cell_length_a       8.68129
_cell_length_b       9.3626
_cell_length_c       9.35697
_cell_angle_alpha    90
_cell_angle_beta     90
_cell_angle_gamma    90

_space_group_name_H-M_alt    "P 1"
_space_group_IT_number       1

loop_
  _space_group_symop_operation_xyz
  'x, y, z'

loop_
  _atom_site_type_symbol
  _atom_site_label
  _atom_site_symmetry_multiplicity
  _atom_site_fract_x
  _atom_site_fract_y
  _atom_site_fract_z
  _atom_site_occupancy
  Li  Li1       1.0  0.66500  0.11600  0.10800  1.0000
  Li  Li2       1.0  0.83500  0.61600  0.10800  1.0000
  Li  Li3       1.0  0.34200  0.36600  0.11200  1.0000
  Li  Li4       1.0  0.15800  0.86600  0.11200  1.0000
  Li  Li5       1.0  0.87100  0.35700  0.12000  1.0000
  Li  Li6       1.0  0.62900  0.85700  0.12000  1.0000
  Li  Li7       1.0  0.38300  0.10200  0.13800  1.0000
  Li  Li8       1.0  0.11700  0.60200  0.13800  1.0000
  Li  Li9       1.0  0.61000  0.37800  0.16200  1.0000
  Li  Li10      1.0  0.89000  0.87800  0.16200  1.0000
  Li  Li11      1.0  0.11000  0.37800  0.33800  1.0000
  Li  Li12      1.0  0.39000  0.87800  0.33800  1.0000
  Li  Li13      1.0  0.88300  0.10200  0.36200  1.0000
  Li  Li14      1.0  0.61700  0.60200  0.36200  1.0000
  Li  Li15      1.0  0.37100  0.35700  0.38000  1.0000
  Li  Li16      1.0  0.12900  0.85700  0.38000  1.0000
  Li  Li17      1.0  0.84200  0.36600  0.38800  1.0000
  Li  Li18      1.0  0.65800  0.86600  0.38800  1.0000
  Li  Li19      1.0  0.16500  0.11600  0.39200  1.0000
  Li  Li20      1.0  0.33500  0.61600  0.39200  1.0000
  Li  Li21      1.0  0.66500  0.38400  0.60800  1.0000
  Li  Li22      1.0  0.83500  0.88400  0.60800  1.0000
  Li  Li23      1.0  0.34200  0.13400  0.61200  1.0000
  Li  Li24      1.0  0.15800  0.63400  0.61200  1.0000
  Li  Li25      1.0  0.87100  0.14300  0.62000  1.0000
  Li  Li26      1.0  0.62900  0.64300  0.62000  1.0000
  Li  Li27      1.0  0.38300  0.39800  0.63800  1.0000
  Li  Li28      1.0  0.11700  0.89800  0.63800  1.0000
  Li  Li29      1.0  0.61000  0.12200  0.66200  1.0000
  Li  Li30      1.0  0.89000  0.62200  0.66200  1.0000
  Li  Li31      1.0  0.11000  0.12200  0.83800  1.0000
  Li  Li32      1.0  0.39000  0.62200  0.83800  1.0000
  Li  Li33      1.0  0.88300  0.39800  0.86200  1.0000
  Li  Li34      1.0  0.61700  0.89800  0.86200  1.0000
  Li  Li35      1.0  0.37100  0.14300  0.88000  1.0000
  Li  Li36      1.0  0.12900  0.64300  0.88000  1.0000
  Li  Li37      1.0  0.84200  0.13400  0.88800  1.0000
  Li  Li38      1.0  0.65800  0.63400  0.88800  1.0000
  Li  Li39      1.0  0.16500  0.38400  0.89200  1.0000
  Li  Li40      1.0  0.33500  0.88400  0.89200  1.0000
  Mn  Mn1       1.0  0.08780  0.13800  0.11900  1.0000
  Mn  Mn2       1.0  0.41200  0.63800  0.11900  1.0000
  Mn  Mn3       1.0  0.58800  0.13800  0.38100  1.0000
  Mn  Mn4       1.0  0.91200  0.63800  0.38100  1.0000
  Mn  Mn5       1.0  0.08780  0.36200  0.61900  1.0000
  Mn  Mn6       1.0  0.41200  0.86200  0.61900  1.0000
  Mn  Mn7       1.0  0.58800  0.36200  0.88100  1.0000
  Mn  Mn8       1.0  0.91200  0.86200  0.88100  1.0000
  O   O1        1.0  0.72300  0.47400  0.00426  1.0000
  O   O2        1.0  0.77700  0.97400  0.00426  1.0000
  O   O3        1.0  0.50400  0.23900  0.01950  1.0000
  O   O4        1.0  0.99600  0.73900  0.01950  1.0000
  O   O5        1.0  0.23900  0.24200  0.24100  1.0000
  O   O6        1.0  0.26100  0.74200  0.24100  1.0000
  O   O7        1.0  0.96000  0.49600  0.24600  1.0000
  O   O8        1.0  0.54000  0.99600  0.24600  1.0000
  O   O9        1.0  0.46000  0.49600  0.25400  1.0000
  O   O10       1.0  0.04030  0.99600  0.25400  1.0000
  O   O11       1.0  0.73900  0.24200  0.25900  1.0000
  O   O12       1.0  0.76100  0.74200  0.25900  1.0000
  O   O13       1.0  0.00388  0.23900  0.48100  1.0000
  O   O14       1.0  0.49600  0.73900  0.48100  1.0000
  O   O15       1.0  0.22300  0.47400  0.49600  1.0000
  O   O16       1.0  0.27700  0.97400  0.49600  1.0000
  O   O17       1.0  0.72300  0.02620  0.50400  1.0000
  O   O18       1.0  0.77700  0.52600  0.50400  1.0000
  O   O19       1.0  0.50400  0.26100  0.51900  1.0000
  O   O20       1.0  0.99600  0.76100  0.51900  1.0000
  O   O21       1.0  0.23900  0.25800  0.74100  1.0000
  O   O22       1.0  0.26100  0.75800  0.74100  1.0000
  O   O23       1.0  0.96000  0.00359  0.74600  1.0000
  O   O24       1.0  0.54000  0.50400  0.74600  1.0000
  O   O25       1.0  0.46000  0.00359  0.75400  1.0000
  O   O26       1.0  0.04030  0.50400  0.75400  1.0000
  O   O27       1.0  0.73900  0.25800  0.75900  1.0000
  O   O28       1.0  0.76100  0.75800  0.75900  1.0000
  O   O29       1.0  0.00388  0.26100  0.98100  1.0000
  O   O30       1.0  0.49600  0.76100  0.98100  1.0000
  O   O31       1.0  0.22300  0.02620  0.99600  1.0000
  O   O32       1.0  0.27700  0.52600  0.99600  1.0000
