data_image0
_chemical_formula_structural       Cl6N2Y4
_chemical_formula_sum              "Cl6 N2 Y4"
_cell_length_a       3.84373
_cell_length_b       8.16694
_cell_length_c       9.68076
_cell_angle_alpha    102.831
_cell_angle_beta     101.451
_cell_angle_gamma    103.611

_space_group_name_H-M_alt    "P 1"
_space_group_IT_number       1

loop_
  _space_group_symop_operation_xyz
  'x, y, z'

loop_
  _atom_site_type_symbol
  _atom_site_label
  _atom_site_symmetry_multiplicity
  _atom_site_fract_x
  _atom_site_fract_y
  _atom_site_fract_z
  _atom_site_occupancy
  Cl  Cl1       1.0  0.88900  0.66400  0.11300  1.0000
  Cl  Cl2       1.0  0.30700  0.35700  0.25600  1.0000
  Cl  Cl3       1.0  0.14800  0.81300  0.48400  1.0000
  Cl  Cl4       1.0  0.85200  0.18700  0.51600  1.0000
  Cl  Cl5       1.0  0.69300  0.64300  0.74400  1.0000
  Cl  Cl6       1.0  0.11100  0.33600  0.88700  1.0000
  N   N1        1.0  0.58200  0.00565  0.15800  1.0000
  N   N2        1.0  0.41800  0.99400  0.84200  1.0000
  Y   Y1        1.0  0.63400  0.22100  0.04760  1.0000
  Y   Y2        1.0  0.15700  0.02080  0.29300  1.0000
  Y   Y3        1.0  0.84300  0.97900  0.70700  1.0000
  Y   Y4        1.0  0.36600  0.77900  0.95200  1.0000
