data_image0
_chemical_formula_structural       Eu2F8Mg2
_chemical_formula_sum              "Eu2 F8 Mg2"
_cell_length_a       3.8916
_cell_length_b       5.28702
_cell_length_c       7.20042
_cell_angle_alpha    90
_cell_angle_beta     74.3218
_cell_angle_gamma    90

_space_group_name_H-M_alt    "P 1"
_space_group_IT_number       1

loop_
  _space_group_symop_operation_xyz
  'x, y, z'

loop_
  _atom_site_type_symbol
  _atom_site_label
  _atom_site_symmetry_multiplicity
  _atom_site_fract_x
  _atom_site_fract_y
  _atom_site_fract_z
  _atom_site_occupancy
  Eu  Eu1       1.0  0.33800  0.75000  0.32400  1.0000
  Eu  Eu2       1.0  0.66200  0.25000  0.67600  1.0000
  F   F1        1.0  0.00000  0.00000  0.00000  1.0000
  F   F2        1.0  0.00000  0.50000  0.00000  1.0000
  F   F3        1.0  0.39600  0.25000  0.20800  1.0000
  F   F4        1.0  0.80700  0.50800  0.38600  1.0000
  F   F5        1.0  0.80700  0.99200  0.38600  1.0000
  F   F6        1.0  0.19300  0.00797  0.61400  1.0000
  F   F7        1.0  0.19300  0.49200  0.61400  1.0000
  F   F8        1.0  0.60400  0.75000  0.79200  1.0000
  Mg  Mg1       1.0  0.90500  0.25000  0.19000  1.0000
  Mg  Mg2       1.0  0.09500  0.75000  0.81000  1.0000
