data_image0
_chemical_formula_structural       F4Na2O4V2
_chemical_formula_sum              "F4 Na2 O4 V2"
_cell_length_a       6.25358
_cell_length_b       3.53488
_cell_length_c       6.98408
_cell_angle_alpha    90
_cell_angle_beta     111.231
_cell_angle_gamma    90

_space_group_name_H-M_alt    "P 1"
_space_group_IT_number       1

loop_
  _space_group_symop_operation_xyz
  'x, y, z'

loop_
  _atom_site_type_symbol
  _atom_site_label
  _atom_site_symmetry_multiplicity
  _atom_site_fract_x
  _atom_site_fract_y
  _atom_site_fract_z
  _atom_site_occupancy
  F   F1        1.0  0.38400  0.23600  0.11300  1.0000
  F   F2        1.0  0.85800  0.23600  0.25300  1.0000
  F   F3        1.0  0.14200  0.73600  0.74700  1.0000
  F   F4        1.0  0.61600  0.73600  0.88700  1.0000
  Na  Na1       1.0  0.62900  0.73500  0.21100  1.0000
  Na  Na2       1.0  0.37100  0.23500  0.78900  1.0000
  O   O1        1.0  0.09220  0.74000  0.13800  1.0000
  O   O2        1.0  0.30000  0.24800  0.45200  1.0000
  O   O3        1.0  0.70000  0.74800  0.54800  1.0000
  O   O4        1.0  0.90800  0.24000  0.86200  1.0000
  V   V1        1.0  0.13700  0.24500  0.21400  1.0000
  V   V2        1.0  0.86300  0.74500  0.78600  1.0000
