data_image0
_chemical_formula_structural       Te10Zr2
_chemical_formula_sum              "Te10 Zr2"
_cell_length_a       4.04792
_cell_length_b       7.90724
_cell_length_c       13.8204
_cell_angle_alpha    90
_cell_angle_beta     90
_cell_angle_gamma    75.1693

_space_group_name_H-M_alt    "P 1"
_space_group_IT_number       1

loop_
  _space_group_symop_operation_xyz
  'x, y, z'

loop_
  _atom_site_type_symbol
  _atom_site_label
  _atom_site_symmetry_multiplicity
  _atom_site_fract_x
  _atom_site_fract_y
  _atom_site_fract_z
  _atom_site_occupancy
  Te  Te1       1.0  0.78800  0.42500  0.06580  1.0000
  Te  Te2       1.0  0.07390  0.85200  0.15000  1.0000
  Te  Te3       1.0  0.33100  0.33900  0.25000  1.0000
  Te  Te4       1.0  0.07390  0.85200  0.35000  1.0000
  Te  Te5       1.0  0.78800  0.42500  0.43400  1.0000
  Te  Te6       1.0  0.21200  0.57500  0.56600  1.0000
  Te  Te7       1.0  0.92600  0.14800  0.65000  1.0000
  Te  Te8       1.0  0.66900  0.66100  0.75000  1.0000
  Te  Te9       1.0  0.92600  0.14800  0.85000  1.0000
  Te  Te10      1.0  0.21200  0.57500  0.93400  1.0000
  Zr  Zr1       1.0  0.68400  0.63200  0.25000  1.0000
  Zr  Zr2       1.0  0.31600  0.36800  0.75000  1.0000
