data_image0
_chemical_formula_structural       As4Ce4Rh4
_chemical_formula_sum              "As4 Ce4 Rh4"
_cell_length_a       8.31086
_cell_length_b       4.28368
_cell_length_c       7.42142
_cell_angle_alpha    90
_cell_angle_beta     90
_cell_angle_gamma    90

_space_group_name_H-M_alt    "P 1"
_space_group_IT_number       1

loop_
  _space_group_symop_operation_xyz
  'x, y, z'

loop_
  _atom_site_type_symbol
  _atom_site_label
  _atom_site_symmetry_multiplicity
  _atom_site_fract_x
  _atom_site_fract_y
  _atom_site_fract_z
  _atom_site_occupancy
  As  As1       1.0  0.24700  0.25000  0.08300  1.0000
  As  As2       1.0  0.74700  0.25000  0.41700  1.0000
  As  As3       1.0  0.25300  0.75000  0.58300  1.0000
  As  As4       1.0  0.75300  0.75000  0.91700  1.0000
  Ce  Ce1       1.0  0.49900  0.75000  0.24700  1.0000
  Ce  Ce2       1.0  0.99900  0.75000  0.25300  1.0000
  Ce  Ce3       1.0  0.00052  0.25000  0.74700  1.0000
  Ce  Ce4       1.0  0.50100  0.25000  0.75300  1.0000
  Rh  Rh1       1.0  0.75200  0.25000  0.08360  1.0000
  Rh  Rh2       1.0  0.25200  0.25000  0.41600  1.0000
  Rh  Rh3       1.0  0.74800  0.75000  0.58400  1.0000
  Rh  Rh4       1.0  0.24800  0.75000  0.91600  1.0000
