data_image0
_chemical_formula_structural       Ba4Na8
_chemical_formula_sum              "Ba4 Na8"
_cell_length_a       7.14058
_cell_length_b       7.14044
_cell_length_c       11.5892
_cell_angle_alpha    90
_cell_angle_beta     90
_cell_angle_gamma    120.001

_space_group_name_H-M_alt    "P 1"
_space_group_IT_number       1

loop_
  _space_group_symop_operation_xyz
  'x, y, z'

loop_
  _atom_site_type_symbol
  _atom_site_label
  _atom_site_symmetry_multiplicity
  _atom_site_fract_x
  _atom_site_fract_y
  _atom_site_fract_z
  _atom_site_occupancy
  Ba  Ba1       1.0  0.33300  0.66700  0.06190  1.0000
  Ba  Ba2       1.0  0.33300  0.66700  0.43800  1.0000
  Ba  Ba3       1.0  0.66700  0.33300  0.56200  1.0000
  Ba  Ba4       1.0  0.66700  0.33300  0.93800  1.0000
  Na  Na1       1.0  0.00000  0.00000  0.00000  1.0000
  Na  Na2       1.0  0.34000  0.17000  0.25000  1.0000
  Na  Na3       1.0  0.83000  0.17000  0.25000  1.0000
  Na  Na4       1.0  0.83000  0.66000  0.25000  1.0000
  Na  Na5       1.0  0.00000  0.00000  0.50000  1.0000
  Na  Na6       1.0  0.17000  0.34000  0.75000  1.0000
  Na  Na7       1.0  0.17000  0.83000  0.75000  1.0000
  Na  Na8       1.0  0.66000  0.83000  0.75000  1.0000
