data_image0
_chemical_formula_structural       Br2Cr
_chemical_formula_sum              "Br2 Cr1"
_cell_length_a       3.63965
_cell_length_b       4.03874
_cell_length_c       6.26284
_cell_angle_alpha    94.6991
_cell_angle_beta     90
_cell_angle_gamma    116.782

_space_group_name_H-M_alt    "P 1"
_space_group_IT_number       1

loop_
  _space_group_symop_operation_xyz
  'x, y, z'

loop_
  _atom_site_type_symbol
  _atom_site_label
  _atom_site_symmetry_multiplicity
  _atom_site_fract_x
  _atom_site_fract_y
  _atom_site_fract_z
  _atom_site_occupancy
  Br  Br1       1.0  0.64700  0.29500  0.24000  1.0000
  Br  Br2       1.0  0.35300  0.70500  0.76000  1.0000
  Cr  Cr1       1.0  0.00000  0.00000  0.00000  1.0000
