data_image0
_chemical_formula_structural       Ag8K4
_chemical_formula_sum              "Ag8 K4"
_cell_length_a       5.85842
_cell_length_b       5.85843
_cell_length_c       9.91589
_cell_angle_alpha    90
_cell_angle_beta     90
_cell_angle_gamma    120

_space_group_name_H-M_alt    "P 1"
_space_group_IT_number       1

loop_
  _space_group_symop_operation_xyz
  'x, y, z'

loop_
  _atom_site_type_symbol
  _atom_site_label
  _atom_site_symmetry_multiplicity
  _atom_site_fract_x
  _atom_site_fract_y
  _atom_site_fract_z
  _atom_site_occupancy
  Ag  Ag1       1.0  0.00000  0.00000  0.00000  1.0000
  Ag  Ag2       1.0  0.33300  0.16600  0.25000  1.0000
  Ag  Ag3       1.0  0.83400  0.16600  0.25000  1.0000
  Ag  Ag4       1.0  0.83400  0.66700  0.25000  1.0000
  Ag  Ag5       1.0  0.00000  0.00000  0.50000  1.0000
  Ag  Ag6       1.0  0.16600  0.33300  0.75000  1.0000
  Ag  Ag7       1.0  0.16600  0.83400  0.75000  1.0000
  Ag  Ag8       1.0  0.66700  0.83400  0.75000  1.0000
  K   K1        1.0  0.33300  0.66700  0.06140  1.0000
  K   K2        1.0  0.33300  0.66700  0.43900  1.0000
  K   K3        1.0  0.66700  0.33300  0.56100  1.0000
  K   K4        1.0  0.66700  0.33300  0.93900  1.0000
