data_image0
_chemical_formula_structural       Cu2O8Se2
_chemical_formula_sum              "Cu2 O8 Se2"
_cell_length_a       4.81696
_cell_length_b       4.81696
_cell_length_c       6.46438
_cell_angle_alpha    90
_cell_angle_beta     90
_cell_angle_gamma    109.685

_space_group_name_H-M_alt    "P 1"
_space_group_IT_number       1

loop_
  _space_group_symop_operation_xyz
  'x, y, z'

loop_
  _atom_site_type_symbol
  _atom_site_label
  _atom_site_symmetry_multiplicity
  _atom_site_fract_x
  _atom_site_fract_y
  _atom_site_fract_z
  _atom_site_occupancy
  Cu  Cu1       1.0  0.00000  0.00000  0.00000  1.0000
  Cu  Cu2       1.0  0.00000  0.00000  0.50000  1.0000
  O   O1        1.0  0.24000  0.76000  0.02970  1.0000
  O   O2        1.0  0.23000  0.27700  0.25000  1.0000
  O   O3        1.0  0.72300  0.77000  0.25000  1.0000
  O   O4        1.0  0.24000  0.76000  0.47000  1.0000
  O   O5        1.0  0.76000  0.24000  0.53000  1.0000
  O   O6        1.0  0.27700  0.23000  0.75000  1.0000
  O   O7        1.0  0.77000  0.72300  0.75000  1.0000
  O   O8        1.0  0.76000  0.24000  0.97000  1.0000
  Se  Se1       1.0  0.35100  0.64900  0.25000  1.0000
  Se  Se2       1.0  0.64900  0.35100  0.75000  1.0000
