data_image0
_chemical_formula_structural       CrS2
_chemical_formula_sum              "Cr1 S2"
_cell_length_a       3.29816
_cell_length_b       3.29816
_cell_length_c       10.699
_cell_angle_alpha    94.0458
_cell_angle_beta     94.0458
_cell_angle_gamma    60.1004

_space_group_name_H-M_alt    "P 1"
_space_group_IT_number       1

loop_
  _space_group_symop_operation_xyz
  'x, y, z'

loop_
  _atom_site_type_symbol
  _atom_site_label
  _atom_site_symmetry_multiplicity
  _atom_site_fract_x
  _atom_site_fract_y
  _atom_site_fract_z
  _atom_site_occupancy
  Cr  Cr1       1.0  0.00000  0.00000  0.00000  1.0000
  S   S1        1.0  0.68700  0.68700  0.12800  1.0000
  S   S2        1.0  0.31300  0.31300  0.87200  1.0000
