data_image0
_chemical_formula_structural       F8Pb2Sn2
_chemical_formula_sum              "F8 Pb2 Sn2"
_cell_length_a       4.17974
_cell_length_b       4.17974
_cell_length_c       10.3359
_cell_angle_alpha    90
_cell_angle_beta     90
_cell_angle_gamma    90

_space_group_name_H-M_alt    "P 1"
_space_group_IT_number       1

loop_
  _space_group_symop_operation_xyz
  'x, y, z'

loop_
  _atom_site_type_symbol
  _atom_site_label
  _atom_site_symmetry_multiplicity
  _atom_site_fract_x
  _atom_site_fract_y
  _atom_site_fract_z
  _atom_site_occupancy
  F   F1        1.0  0.75000  0.25000  0.18100  1.0000
  F   F2        1.0  0.25000  0.75000  0.18100  1.0000
  F   F3        1.0  0.75000  0.75000  0.32100  1.0000
  F   F4        1.0  0.75000  0.25000  0.50000  1.0000
  F   F5        1.0  0.25000  0.75000  0.50000  1.0000
  F   F6        1.0  0.25000  0.25000  0.67900  1.0000
  F   F7        1.0  0.75000  0.25000  0.81900  1.0000
  F   F8        1.0  0.25000  0.75000  0.81900  1.0000
  Pb  Pb1       1.0  0.25000  0.25000  0.36900  1.0000
  Pb  Pb2       1.0  0.75000  0.75000  0.63100  1.0000
  Sn  Sn1       1.0  0.75000  0.75000  0.11200  1.0000
  Sn  Sn2       1.0  0.25000  0.25000  0.88800  1.0000
