data_image0
_chemical_formula_structural       Eu8Ge4
_chemical_formula_sum              "Eu8 Ge4"
_cell_length_a       7.59058
_cell_length_b       4.98588
_cell_length_c       9.22881
_cell_angle_alpha    90
_cell_angle_beta     90
_cell_angle_gamma    90

_space_group_name_H-M_alt    "P 1"
_space_group_IT_number       1

loop_
  _space_group_symop_operation_xyz
  'x, y, z'

loop_
  _atom_site_type_symbol
  _atom_site_label
  _atom_site_symmetry_multiplicity
  _atom_site_fract_x
  _atom_site_fract_y
  _atom_site_fract_z
  _atom_site_occupancy
  Eu  Eu1       1.0  0.15800  0.25000  0.08140  1.0000
  Eu  Eu2       1.0  0.48200  0.75000  0.18200  1.0000
  Eu  Eu3       1.0  0.98200  0.75000  0.31800  1.0000
  Eu  Eu4       1.0  0.65800  0.25000  0.41900  1.0000
  Eu  Eu5       1.0  0.34200  0.75000  0.58100  1.0000
  Eu  Eu6       1.0  0.01850  0.25000  0.68200  1.0000
  Eu  Eu7       1.0  0.51800  0.25000  0.81800  1.0000
  Eu  Eu8       1.0  0.84200  0.75000  0.91900  1.0000
  Ge  Ge1       1.0  0.75000  0.25000  0.09890  1.0000
  Ge  Ge2       1.0  0.25000  0.25000  0.40100  1.0000
  Ge  Ge3       1.0  0.75000  0.75000  0.59900  1.0000
  Ge  Ge4       1.0  0.25000  0.75000  0.90100  1.0000
