data_image0
_chemical_formula_structural       Ba2F8Sn2
_chemical_formula_sum              "Ba2 F8 Sn2"
_cell_length_a       4.27475
_cell_length_b       4.27475
_cell_length_c       10.507
_cell_angle_alpha    90
_cell_angle_beta     90
_cell_angle_gamma    90

_space_group_name_H-M_alt    "P 1"
_space_group_IT_number       1

loop_
  _space_group_symop_operation_xyz
  'x, y, z'

loop_
  _atom_site_type_symbol
  _atom_site_label
  _atom_site_symmetry_multiplicity
  _atom_site_fract_x
  _atom_site_fract_y
  _atom_site_fract_z
  _atom_site_occupancy
  Ba  Ba1       1.0  0.25000  0.25000  0.35900  1.0000
  Ba  Ba2       1.0  0.75000  0.75000  0.64100  1.0000
  F   F1        1.0  0.75000  0.25000  0.17100  1.0000
  F   F2        1.0  0.25000  0.75000  0.17100  1.0000
  F   F3        1.0  0.75000  0.75000  0.30700  1.0000
  F   F4        1.0  0.75000  0.25000  0.50000  1.0000
  F   F5        1.0  0.25000  0.75000  0.50000  1.0000
  F   F6        1.0  0.25000  0.25000  0.69300  1.0000
  F   F7        1.0  0.75000  0.25000  0.82900  1.0000
  F   F8        1.0  0.25000  0.75000  0.82900  1.0000
  Sn  Sn1       1.0  0.75000  0.75000  0.10600  1.0000
  Sn  Sn2       1.0  0.25000  0.25000  0.89400  1.0000
