data_image0
_chemical_formula_structural       K8O3P
_chemical_formula_sum              "K8 O3 P1"
_cell_length_a       6.73118
_cell_length_b       6.73118
_cell_length_c       6.73118
_cell_angle_alpha    90
_cell_angle_beta     90
_cell_angle_gamma    90

_space_group_name_H-M_alt    "P 1"
_space_group_IT_number       1

loop_
  _space_group_symop_operation_xyz
  'x, y, z'

loop_
  _atom_site_type_symbol
  _atom_site_label
  _atom_site_symmetry_multiplicity
  _atom_site_fract_x
  _atom_site_fract_y
  _atom_site_fract_z
  _atom_site_occupancy
  K   K1        1.0  0.26400  0.26400  0.26400  1.0000
  K   K2        1.0  0.73600  0.26400  0.26400  1.0000
  K   K3        1.0  0.26400  0.73600  0.26400  1.0000
  K   K4        1.0  0.73600  0.73600  0.26400  1.0000
  K   K5        1.0  0.26400  0.26400  0.73600  1.0000
  K   K6        1.0  0.73600  0.26400  0.73600  1.0000
  K   K7        1.0  0.26400  0.73600  0.73600  1.0000
  K   K8        1.0  0.73600  0.73600  0.73600  1.0000
  O   O1        1.0  0.50000  0.50000  0.00000  1.0000
  O   O2        1.0  0.50000  0.00000  0.50000  1.0000
  O   O3        1.0  0.00000  0.50000  0.50000  1.0000
  P   P1        1.0  0.00000  0.00000  0.00000  1.0000
