data_image0
_chemical_formula_structural       Mn8Tm4
_chemical_formula_sum              "Mn8 Tm4"
_cell_length_a       5.02686
_cell_length_b       5.02746
_cell_length_c       8.24186
_cell_angle_alpha    89.9998
_cell_angle_beta     89.9999
_cell_angle_gamma    119.996

_space_group_name_H-M_alt    "P 1"
_space_group_IT_number       1

loop_
  _space_group_symop_operation_xyz
  'x, y, z'

loop_
  _atom_site_type_symbol
  _atom_site_label
  _atom_site_symmetry_multiplicity
  _atom_site_fract_x
  _atom_site_fract_y
  _atom_site_fract_z
  _atom_site_occupancy
  Mn  Mn1       1.0  0.00000  0.00000  0.00000  1.0000
  Mn  Mn2       1.0  0.83100  0.66200  0.25000  1.0000
  Mn  Mn3       1.0  0.83100  0.16900  0.25000  1.0000
  Mn  Mn4       1.0  0.33800  0.16900  0.25000  1.0000
  Mn  Mn5       1.0  0.00000  0.00000  0.50000  1.0000
  Mn  Mn6       1.0  0.66200  0.83100  0.75000  1.0000
  Mn  Mn7       1.0  0.16900  0.83100  0.75000  1.0000
  Mn  Mn8       1.0  0.16900  0.33800  0.75000  1.0000
  Tm  Tm1       1.0  0.33300  0.66700  0.06250  1.0000
  Tm  Tm2       1.0  0.33300  0.66700  0.43800  1.0000
  Tm  Tm3       1.0  0.66700  0.33300  0.56200  1.0000
  Tm  Tm4       1.0  0.66700  0.33300  0.93800  1.0000
