data_image0
_chemical_formula_structural       Fe4S6Tl2
_chemical_formula_sum              "Fe4 S6 Tl2"
_cell_length_a       5.12799
_cell_length_b       6.98326
_cell_length_c       6.98326
_cell_angle_alpha    79.5292
_cell_angle_beta     90
_cell_angle_gamma    90

_space_group_name_H-M_alt    "P 1"
_space_group_IT_number       1

loop_
  _space_group_symop_operation_xyz
  'x, y, z'

loop_
  _atom_site_type_symbol
  _atom_site_label
  _atom_site_symmetry_multiplicity
  _atom_site_fract_x
  _atom_site_fract_y
  _atom_site_fract_z
  _atom_site_occupancy
  Fe  Fe1       1.0  0.00000  0.85800  0.14200  1.0000
  Fe  Fe2       1.0  0.50000  0.85800  0.14200  1.0000
  Fe  Fe3       1.0  0.00000  0.14200  0.85800  1.0000
  Fe  Fe4       1.0  0.50000  0.14200  0.85800  1.0000
  S   S1        1.0  0.25000  0.11300  0.11300  1.0000
  S   S2        1.0  0.25000  0.61400  0.16400  1.0000
  S   S3        1.0  0.75000  0.83600  0.38600  1.0000
  S   S4        1.0  0.25000  0.16400  0.61400  1.0000
  S   S5        1.0  0.75000  0.38600  0.83600  1.0000
  S   S6        1.0  0.75000  0.88700  0.88700  1.0000
  Tl  Tl1       1.0  0.75000  0.34500  0.34500  1.0000
  Tl  Tl2       1.0  0.25000  0.65500  0.65500  1.0000
