data_image0
_chemical_formula_structural       Au2K2P2Se6
_chemical_formula_sum              "Au2 K2 P2 Se6"
_cell_length_a       7.22948
_cell_length_b       7.22948
_cell_length_c       8.23288
_cell_angle_alpha    110.889
_cell_angle_beta     110.889
_cell_angle_gamma    61.4867

_space_group_name_H-M_alt    "P 1"
_space_group_IT_number       1

loop_
  _space_group_symop_operation_xyz
  'x, y, z'

loop_
  _atom_site_type_symbol
  _atom_site_label
  _atom_site_symmetry_multiplicity
  _atom_site_fract_x
  _atom_site_fract_y
  _atom_site_fract_z
  _atom_site_occupancy
  Au  Au1       1.0  0.74300  0.25700  0.00000  1.0000
  Au  Au2       1.0  0.25700  0.74300  0.00000  1.0000
  K   K1        1.0  0.29800  0.29800  0.25500  1.0000
  K   K2        1.0  0.70200  0.70200  0.74500  1.0000
  P   P1        1.0  0.97600  0.97600  0.35000  1.0000
  P   P2        1.0  0.02440  0.02440  0.65000  1.0000
  Se  Se1       1.0  0.78600  0.78600  0.20100  1.0000
  Se  Se2       1.0  0.82200  0.32300  0.32500  1.0000
  Se  Se3       1.0  0.32300  0.82200  0.32500  1.0000
  Se  Se4       1.0  0.67700  0.17800  0.67500  1.0000
  Se  Se5       1.0  0.17800  0.67700  0.67500  1.0000
  Se  Se6       1.0  0.21400  0.21400  0.79900  1.0000
