data_image0
_chemical_formula_structural       Au2P2Se6Tl2
_chemical_formula_sum              "Au2 P2 Se6 Tl2"
_cell_length_a       7.22822
_cell_length_b       7.22822
_cell_length_c       8.44419
_cell_angle_alpha    90.646
_cell_angle_beta     115.442
_cell_angle_gamma    119.009

_space_group_name_H-M_alt    "P 1"
_space_group_IT_number       1

loop_
  _space_group_symop_operation_xyz
  'x, y, z'

loop_
  _atom_site_type_symbol
  _atom_site_label
  _atom_site_symmetry_multiplicity
  _atom_site_fract_x
  _atom_site_fract_y
  _atom_site_fract_z
  _atom_site_occupancy
  Au  Au1       1.0  0.23700  0.23700  0.00000  1.0000
  Au  Au2       1.0  0.76300  0.76300  0.00000  1.0000
  P   P1        1.0  0.37900  0.96800  0.34700  1.0000
  P   P2        1.0  0.62100  0.03200  0.65300  1.0000
  Se  Se1       1.0  0.42300  0.76700  0.19000  1.0000
  Se  Se2       1.0  0.51700  0.31600  0.32500  1.0000
  Se  Se3       1.0  0.00920  0.80800  0.32500  1.0000
  Se  Se4       1.0  0.99100  0.19200  0.67500  1.0000
  Se  Se5       1.0  0.48300  0.68400  0.67500  1.0000
  Se  Se6       1.0  0.57700  0.23300  0.81000  1.0000
  Tl  Tl1       1.0  0.94400  0.28500  0.22900  1.0000
  Tl  Tl2       1.0  0.05620  0.71500  0.77100  1.0000
