data_image0
_chemical_formula_structural       I8Sr4
_chemical_formula_sum              "I8 Sr4"
_cell_length_a       12.5259
_cell_length_b       5.01447
_cell_length_c       8.47272
_cell_angle_alpha    90
_cell_angle_beta     90
_cell_angle_gamma    90

_space_group_name_H-M_alt    "P 1"
_space_group_IT_number       1

loop_
  _space_group_symop_operation_xyz
  'x, y, z'

loop_
  _atom_site_type_symbol
  _atom_site_label
  _atom_site_symmetry_multiplicity
  _atom_site_fract_x
  _atom_site_fract_y
  _atom_site_fract_z
  _atom_site_occupancy
  I   I1        1.0  0.62300  0.75000  0.12000  1.0000
  I   I2        1.0  0.89200  0.25000  0.12300  1.0000
  I   I3        1.0  0.39200  0.25000  0.37700  1.0000
  I   I4        1.0  0.12300  0.75000  0.38000  1.0000
  I   I5        1.0  0.87700  0.25000  0.62000  1.0000
  I   I6        1.0  0.60800  0.75000  0.62300  1.0000
  I   I7        1.0  0.10800  0.75000  0.87700  1.0000
  I   I8        1.0  0.37700  0.25000  0.88000  1.0000
  Sr  Sr1       1.0  0.17000  0.25000  0.13200  1.0000
  Sr  Sr2       1.0  0.67000  0.25000  0.36800  1.0000
  Sr  Sr3       1.0  0.33000  0.75000  0.63200  1.0000
  Sr  Sr4       1.0  0.83000  0.75000  0.86800  1.0000
