data_image0
_chemical_formula_structural       Cs2Se6Yb2Zn2
_chemical_formula_sum              "Cs2 Se6 Yb2 Zn2"
_cell_length_a       4.10249
_cell_length_b       8.4222
_cell_length_c       11.1217
_cell_angle_alpha    90
_cell_angle_beta     90
_cell_angle_gamma    75.9037

_space_group_name_H-M_alt    "P 1"
_space_group_IT_number       1

loop_
  _space_group_symop_operation_xyz
  'x, y, z'

loop_
  _atom_site_type_symbol
  _atom_site_label
  _atom_site_symmetry_multiplicity
  _atom_site_fract_x
  _atom_site_fract_y
  _atom_site_fract_z
  _atom_site_occupancy
  Cs  Cs1       1.0  0.26200  0.47700  0.25000  1.0000
  Cs  Cs2       1.0  0.73800  0.52300  0.75000  1.0000
  Se  Se1       1.0  0.62000  0.76000  0.06380  1.0000
  Se  Se2       1.0  0.94700  0.10700  0.25000  1.0000
  Se  Se3       1.0  0.62000  0.76000  0.43600  1.0000
  Se  Se4       1.0  0.38000  0.24000  0.56400  1.0000
  Se  Se5       1.0  0.05330  0.89300  0.75000  1.0000
  Se  Se6       1.0  0.38000  0.24000  0.93600  1.0000
  Yb  Yb1       1.0  0.00000  0.00000  0.00000  1.0000
  Yb  Yb2       1.0  0.00000  0.00000  0.50000  1.0000
  Zn  Zn1       1.0  0.53900  0.92200  0.25000  1.0000
  Zn  Zn2       1.0  0.46100  0.07780  0.75000  1.0000
