data_image0
_chemical_formula_structural       Au2Cs2F8
_chemical_formula_sum              "Au2 Cs2 F8"
_cell_length_a       5.10177
_cell_length_b       6.4262
_cell_length_c       7.45254
_cell_angle_alpha    115.54
_cell_angle_beta     110.016
_cell_angle_gamma    90

_space_group_name_H-M_alt    "P 1"
_space_group_IT_number       1

loop_
  _space_group_symop_operation_xyz
  'x, y, z'

loop_
  _atom_site_type_symbol
  _atom_site_label
  _atom_site_symmetry_multiplicity
  _atom_site_fract_x
  _atom_site_fract_y
  _atom_site_fract_z
  _atom_site_occupancy
  Au  Au1       1.0  0.00000  0.50000  0.00000  1.0000
  Au  Au2       1.0  0.50000  0.00000  0.00000  1.0000
  Cs  Cs1       1.0  0.21700  0.21700  0.43400  1.0000
  Cs  Cs2       1.0  0.78300  0.78300  0.56600  1.0000
  F   F1        1.0  0.00000  0.19700  0.00000  1.0000
  F   F2        1.0  0.00000  0.80300  0.00000  1.0000
  F   F3        1.0  0.61300  0.32600  0.22700  1.0000
  F   F4        1.0  0.61300  0.90100  0.22700  1.0000
  F   F5        1.0  0.15800  0.65800  0.31600  1.0000
  F   F6        1.0  0.84200  0.34200  0.68400  1.0000
  F   F7        1.0  0.38700  0.09890  0.77300  1.0000
  F   F8        1.0  0.38700  0.67400  0.77300  1.0000
