data_image0
_chemical_formula_structural       Al4Ce4Ir4
_chemical_formula_sum              "Al4 Ce4 Ir4"
_cell_length_a       7.17678
_cell_length_b       4.32939
_cell_length_c       8.20739
_cell_angle_alpha    90
_cell_angle_beta     90
_cell_angle_gamma    90

_space_group_name_H-M_alt    "P 1"
_space_group_IT_number       1

loop_
  _space_group_symop_operation_xyz
  'x, y, z'

loop_
  _atom_site_type_symbol
  _atom_site_label
  _atom_site_symmetry_multiplicity
  _atom_site_fract_x
  _atom_site_fract_y
  _atom_site_fract_z
  _atom_site_occupancy
  Al  Al1       1.0  0.36300  0.25000  0.06100  1.0000
  Al  Al2       1.0  0.86300  0.25000  0.43900  1.0000
  Al  Al3       1.0  0.13700  0.75000  0.56100  1.0000
  Al  Al4       1.0  0.63700  0.75000  0.93900  1.0000
  Ce  Ce1       1.0  0.03220  0.75000  0.18200  1.0000
  Ce  Ce2       1.0  0.53200  0.75000  0.31800  1.0000
  Ce  Ce3       1.0  0.46800  0.25000  0.68200  1.0000
  Ce  Ce4       1.0  0.96800  0.25000  0.81800  1.0000
  Ir  Ir1       1.0  0.72100  0.25000  0.11300  1.0000
  Ir  Ir2       1.0  0.22100  0.25000  0.38700  1.0000
  Ir  Ir3       1.0  0.77900  0.75000  0.61300  1.0000
  Ir  Ir4       1.0  0.27900  0.75000  0.88700  1.0000
