data_image0
_chemical_formula_structural       CsFeO8S2
_chemical_formula_sum              "Cs1 Fe1 O8 S2"
_cell_length_a       4.84988
_cell_length_b       4.84987
_cell_length_c       8.58163
_cell_angle_alpha    90
_cell_angle_beta     90.0002
_cell_angle_gamma    120

_space_group_name_H-M_alt    "P 1"
_space_group_IT_number       1

loop_
  _space_group_symop_operation_xyz
  'x, y, z'

loop_
  _atom_site_type_symbol
  _atom_site_label
  _atom_site_symmetry_multiplicity
  _atom_site_fract_x
  _atom_site_fract_y
  _atom_site_fract_z
  _atom_site_occupancy
  Cs  Cs1       1.0  0.00000  0.00000  0.50000  1.0000
  Fe  Fe1       1.0  0.00000  0.00000  0.00000  1.0000
  O   O1        1.0  0.64100  0.70600  0.13900  1.0000
  O   O2        1.0  0.29400  0.93500  0.13900  1.0000
  O   O3        1.0  0.06450  0.35900  0.13900  1.0000
  O   O4        1.0  0.33300  0.66700  0.36700  1.0000
  O   O5        1.0  0.66700  0.33300  0.63300  1.0000
  O   O6        1.0  0.93500  0.64100  0.86100  1.0000
  O   O7        1.0  0.70600  0.06450  0.86100  1.0000
  O   O8        1.0  0.35900  0.29400  0.86100  1.0000
  S   S1        1.0  0.33300  0.66700  0.19700  1.0000
  S   S2        1.0  0.66700  0.33300  0.80300  1.0000
