data_image0
_chemical_formula_structural       Cs4Na8
_chemical_formula_sum              "Cs4 Na8"
_cell_length_a       7.5393
_cell_length_b       7.53927
_cell_length_c       12.5488
_cell_angle_alpha    90
_cell_angle_beta     90
_cell_angle_gamma    120.002

_space_group_name_H-M_alt    "P 1"
_space_group_IT_number       1

loop_
  _space_group_symop_operation_xyz
  'x, y, z'

loop_
  _atom_site_type_symbol
  _atom_site_label
  _atom_site_symmetry_multiplicity
  _atom_site_fract_x
  _atom_site_fract_y
  _atom_site_fract_z
  _atom_site_occupancy
  Cs  Cs1       1.0  0.33300  0.66700  0.06320  1.0000
  Cs  Cs2       1.0  0.33300  0.66700  0.43700  1.0000
  Cs  Cs3       1.0  0.66700  0.33300  0.56300  1.0000
  Cs  Cs4       1.0  0.66700  0.33300  0.93700  1.0000
  Na  Na1       1.0  0.00000  0.00000  0.00000  1.0000
  Na  Na2       1.0  0.83400  0.16600  0.25000  1.0000
  Na  Na3       1.0  0.33300  0.16600  0.25000  1.0000
  Na  Na4       1.0  0.83400  0.66700  0.25000  1.0000
  Na  Na5       1.0  0.00000  0.00000  0.50000  1.0000
  Na  Na6       1.0  0.16600  0.33300  0.75000  1.0000
  Na  Na7       1.0  0.66700  0.83400  0.75000  1.0000
  Na  Na8       1.0  0.16600  0.83400  0.75000  1.0000
