data_image0
_chemical_formula_structural       Ge2Hf2Te8
_chemical_formula_sum              "Ge2 Hf2 Te8"
_cell_length_a       4.01959
_cell_length_b       8.59565
_cell_length_c       11.0849
_cell_angle_alpha    90
_cell_angle_beta     90
_cell_angle_gamma    76.4782

_space_group_name_H-M_alt    "P 1"
_space_group_IT_number       1

loop_
  _space_group_symop_operation_xyz
  'x, y, z'

loop_
  _atom_site_type_symbol
  _atom_site_label
  _atom_site_symmetry_multiplicity
  _atom_site_fract_x
  _atom_site_fract_y
  _atom_site_fract_z
  _atom_site_occupancy
  Ge  Ge1       1.0  0.22900  0.54100  0.03870  1.0000
  Ge  Ge2       1.0  0.77100  0.45900  0.53900  1.0000
  Hf  Hf1       1.0  0.34600  0.30800  0.22800  1.0000
  Hf  Hf2       1.0  0.65400  0.69200  0.72800  1.0000
  Te  Te1       1.0  0.62300  0.75400  0.00017  1.0000
  Te  Te2       1.0  0.89600  0.20900  0.04020  1.0000
  Te  Te3       1.0  0.97500  0.05040  0.26000  1.0000
  Te  Te4       1.0  0.72500  0.54900  0.30100  1.0000
  Te  Te5       1.0  0.37700  0.24600  0.50000  1.0000
  Te  Te6       1.0  0.10400  0.79100  0.54000  1.0000
  Te  Te7       1.0  0.02520  0.95000  0.76000  1.0000
  Te  Te8       1.0  0.27500  0.45100  0.80100  1.0000
