data_image0
_chemical_formula_structural       F4I2Na2O4
_chemical_formula_sum              "F4 I2 Na2 O4"
_cell_length_a       4.92164
_cell_length_b       4.92164
_cell_length_c       7.0969
_cell_angle_alpha    90
_cell_angle_beta     90
_cell_angle_gamma    88.1452

_space_group_name_H-M_alt    "P 1"
_space_group_IT_number       1

loop_
  _space_group_symop_operation_xyz
  'x, y, z'

loop_
  _atom_site_type_symbol
  _atom_site_label
  _atom_site_symmetry_multiplicity
  _atom_site_fract_x
  _atom_site_fract_y
  _atom_site_fract_z
  _atom_site_occupancy
  F   F1        1.0  0.83300  0.23700  0.25000  1.0000
  F   F2        1.0  0.23700  0.83300  0.25000  1.0000
  F   F3        1.0  0.76300  0.16700  0.75000  1.0000
  F   F4        1.0  0.16700  0.76300  0.75000  1.0000
  I   I1        1.0  0.52700  0.52700  0.25000  1.0000
  I   I2        1.0  0.47300  0.47300  0.75000  1.0000
  Na  Na1       1.0  0.00000  0.00000  0.00000  1.0000
  Na  Na2       1.0  0.00000  0.00000  0.50000  1.0000
  O   O1        1.0  0.68900  0.68900  0.05350  1.0000
  O   O2        1.0  0.68900  0.68900  0.44600  1.0000
  O   O3        1.0  0.31100  0.31100  0.55400  1.0000
  O   O4        1.0  0.31100  0.31100  0.94600  1.0000
