data_image0
_chemical_formula_structural       Ge2Te8Zr2
_chemical_formula_sum              "Ge2 Te8 Zr2"
_cell_length_a       4.02822
_cell_length_b       8.58297
_cell_length_c       11.1253
_cell_angle_alpha    90
_cell_angle_beta     90
_cell_angle_gamma    76.4282

_space_group_name_H-M_alt    "P 1"
_space_group_IT_number       1

loop_
  _space_group_symop_operation_xyz
  'x, y, z'

loop_
  _atom_site_type_symbol
  _atom_site_label
  _atom_site_symmetry_multiplicity
  _atom_site_fract_x
  _atom_site_fract_y
  _atom_site_fract_z
  _atom_site_occupancy
  Ge  Ge1       1.0  0.77100  0.45900  0.03610  1.0000
  Ge  Ge2       1.0  0.22900  0.54100  0.53600  1.0000
  Te  Te1       1.0  0.37700  0.24500  0.00001  1.0000
  Te  Te2       1.0  0.10300  0.79400  0.03970  1.0000
  Te  Te3       1.0  0.02310  0.95400  0.25800  1.0000
  Te  Te4       1.0  0.27600  0.44700  0.30100  1.0000
  Te  Te5       1.0  0.62300  0.75500  0.50000  1.0000
  Te  Te6       1.0  0.89700  0.20600  0.54000  1.0000
  Te  Te7       1.0  0.97700  0.04630  0.75800  1.0000
  Te  Te8       1.0  0.72400  0.55300  0.80100  1.0000
  Zr  Zr1       1.0  0.65400  0.69300  0.22600  1.0000
  Zr  Zr2       1.0  0.34600  0.30700  0.72600  1.0000
