data_image0
_chemical_formula_structural       In8Zr4
_chemical_formula_sum              "In8 Zr4"
_cell_length_a       14.0423
_cell_length_b       4.41527
_cell_length_c       4.41527
_cell_angle_alpha    90
_cell_angle_beta     99.0452
_cell_angle_gamma    99.0452

_space_group_name_H-M_alt    "P 1"
_space_group_IT_number       1

loop_
  _space_group_symop_operation_xyz
  'x, y, z'

loop_
  _atom_site_type_symbol
  _atom_site_label
  _atom_site_symmetry_multiplicity
  _atom_site_fract_x
  _atom_site_fract_y
  _atom_site_fract_z
  _atom_site_occupancy
  In  In1       1.0  0.75100  0.37600  0.12600  1.0000
  In  In2       1.0  0.07440  0.53700  0.28700  1.0000
  In  In3       1.0  0.25100  0.12600  0.37600  1.0000
  In  In4       1.0  0.42600  0.71300  0.46300  1.0000
  In  In5       1.0  0.57400  0.28700  0.53700  1.0000
  In  In6       1.0  0.74900  0.87400  0.62400  1.0000
  In  In7       1.0  0.92600  0.46300  0.71300  1.0000
  In  In8       1.0  0.24900  0.62400  0.87400  1.0000
  Zr  Zr1       1.0  0.59500  0.79700  0.04730  1.0000
  Zr  Zr2       1.0  0.90500  0.95300  0.20300  1.0000
  Zr  Zr3       1.0  0.09470  0.04730  0.79700  1.0000
  Zr  Zr4       1.0  0.40500  0.20300  0.95300  1.0000
