data_image0
_chemical_formula_structural       K4Se6Sn2
_chemical_formula_sum              "K4 Se6 Sn2"
_cell_length_a       8.79919
_cell_length_b       7.79792
_cell_length_c       6.99643
_cell_angle_alpha    67.3999
_cell_angle_beta     74.4833
_cell_angle_gamma    76.0472

_space_group_name_H-M_alt    "P 1"
_space_group_IT_number       1

loop_
  _space_group_symop_operation_xyz
  'x, y, z'

loop_
  _atom_site_type_symbol
  _atom_site_label
  _atom_site_symmetry_multiplicity
  _atom_site_fract_x
  _atom_site_fract_y
  _atom_site_fract_z
  _atom_site_occupancy
  K   K1        1.0  0.68700  0.47100  0.14200  1.0000
  K   K2        1.0  0.89300  0.79300  0.39300  1.0000
  K   K3        1.0  0.10700  0.20700  0.60700  1.0000
  K   K4        1.0  0.31300  0.52900  0.85800  1.0000
  Se  Se1       1.0  0.07130  0.18900  0.13700  1.0000
  Se  Se2       1.0  0.53900  0.04670  0.23500  1.0000
  Se  Se3       1.0  0.28500  0.59700  0.34800  1.0000
  Se  Se4       1.0  0.71500  0.40300  0.65200  1.0000
  Se  Se5       1.0  0.46100  0.95300  0.76500  1.0000
  Se  Se6       1.0  0.92900  0.81100  0.86300  1.0000
  Sn  Sn1       1.0  0.31000  0.93600  0.14900  1.0000
  Sn  Sn2       1.0  0.69000  0.06360  0.85100  1.0000
