data_image0
_chemical_formula_structural       Br2F6Rb2Sb2
_chemical_formula_sum              "Br2 F6 Rb2 Sb2"
_cell_length_a       7.46896
_cell_length_b       4.31818
_cell_length_c       8.7168
_cell_angle_alpha    100.644
_cell_angle_beta     110.12
_cell_angle_gamma    103.875

_space_group_name_H-M_alt    "P 1"
_space_group_IT_number       1

loop_
  _space_group_symop_operation_xyz
  'x, y, z'

loop_
  _atom_site_type_symbol
  _atom_site_label
  _atom_site_symmetry_multiplicity
  _atom_site_fract_x
  _atom_site_fract_y
  _atom_site_fract_z
  _atom_site_occupancy
  Br  Br1       1.0  0.75800  0.42900  0.06410  1.0000
  Br  Br2       1.0  0.24200  0.57100  0.93600  1.0000
  F   F1        1.0  0.23500  0.79000  0.30200  1.0000
  F   F2        1.0  0.45100  0.39800  0.31900  1.0000
  F   F3        1.0  0.11100  0.30100  0.41900  1.0000
  F   F4        1.0  0.88900  0.69900  0.58100  1.0000
  F   F5        1.0  0.54900  0.60200  0.68100  1.0000
  F   F6        1.0  0.76500  0.21000  0.69800  1.0000
  Rb  Rb1       1.0  0.69300  0.01380  0.34700  1.0000
  Rb  Rb2       1.0  0.30700  0.98600  0.65300  1.0000
  Sb  Sb1       1.0  0.15500  0.29400  0.20400  1.0000
  Sb  Sb2       1.0  0.84500  0.70600  0.79600  1.0000
