data_image0
_chemical_formula_structural       Eu4Ge2Zn6
_chemical_formula_sum              "Eu4 Ge2 Zn6"
_cell_length_a       4.52625
_cell_length_b       7.70551
_cell_length_c       7.38149
_cell_angle_alpha    90
_cell_angle_beta     90
_cell_angle_gamma    90

_space_group_name_H-M_alt    "P 1"
_space_group_IT_number       1

loop_
  _space_group_symop_operation_xyz
  'x, y, z'

loop_
  _atom_site_type_symbol
  _atom_site_label
  _atom_site_symmetry_multiplicity
  _atom_site_fract_x
  _atom_site_fract_y
  _atom_site_fract_z
  _atom_site_occupancy
  Eu  Eu1       1.0  0.50000  0.96600  0.24700  1.0000
  Eu  Eu2       1.0  0.00000  0.54800  0.25100  1.0000
  Eu  Eu3       1.0  0.50000  0.03430  0.74700  1.0000
  Eu  Eu4       1.0  0.00000  0.45200  0.75100  1.0000
  Ge  Ge1       1.0  0.50000  0.34200  0.44400  1.0000
  Ge  Ge2       1.0  0.50000  0.65800  0.94400  1.0000
  Zn  Zn1       1.0  0.00000  0.16200  0.04760  1.0000
  Zn  Zn2       1.0  0.50000  0.33300  0.06710  1.0000
  Zn  Zn3       1.0  0.00000  0.16400  0.44300  1.0000
  Zn  Zn4       1.0  0.00000  0.83800  0.54800  1.0000
  Zn  Zn5       1.0  0.50000  0.66700  0.56700  1.0000
  Zn  Zn6       1.0  0.00000  0.83600  0.94300  1.0000
