data_image0
_chemical_formula_structural       Au2P2S8
_chemical_formula_sum              "Au2 P2 S8"
_cell_length_a       6.00686
_cell_length_b       7.1063
_cell_length_c       8.21745
_cell_angle_alpha    78.9203
_cell_angle_beta     87.2326
_cell_angle_gamma    79.2802

_space_group_name_H-M_alt    "P 1"
_space_group_IT_number       1

loop_
  _space_group_symop_operation_xyz
  'x, y, z'

loop_
  _atom_site_type_symbol
  _atom_site_label
  _atom_site_symmetry_multiplicity
  _atom_site_fract_x
  _atom_site_fract_y
  _atom_site_fract_z
  _atom_site_occupancy
  Au  Au1       1.0  0.00000  0.00000  0.00000  1.0000
  Au  Au2       1.0  0.50000  0.50000  0.50000  1.0000
  P   P1        1.0  0.73100  0.24800  0.24500  1.0000
  P   P2        1.0  0.26900  0.75200  0.75500  1.0000
  S   S1        1.0  0.27900  0.71300  0.00902  1.0000
  S   S2        1.0  0.95000  0.98400  0.29100  1.0000
  S   S3        1.0  0.83400  0.47200  0.33200  1.0000
  S   S4        1.0  0.42200  0.25200  0.36400  1.0000
  S   S5        1.0  0.57800  0.74800  0.63600  1.0000
  S   S6        1.0  0.16600  0.52800  0.66800  1.0000
  S   S7        1.0  0.04980  0.01620  0.70900  1.0000
  S   S8        1.0  0.72100  0.28700  0.99100  1.0000
