data_image0
_chemical_formula_structural       Ce2O8Zr2
_chemical_formula_sum              "Ce2 O8 Zr2"
_cell_length_a       5.40676
_cell_length_b       5.53055
_cell_length_c       5.53497
_cell_angle_alpha    89.9993
_cell_angle_beta     89.9922
_cell_angle_gamma    90.0032

_space_group_name_H-M_alt    "P 1"
_space_group_IT_number       1

loop_
  _space_group_symop_operation_xyz
  'x, y, z'

loop_
  _atom_site_type_symbol
  _atom_site_label
  _atom_site_symmetry_multiplicity
  _atom_site_fract_x
  _atom_site_fract_y
  _atom_site_fract_z
  _atom_site_occupancy
  Ce  Ce1       1.0  0.00000  0.00000  0.00000  1.0000
  Ce  Ce2       1.0  0.00000  0.50000  0.50000  1.0000
  O   O1        1.0  0.26700  0.29500  0.20500  1.0000
  O   O2        1.0  0.73300  0.70500  0.20500  1.0000
  O   O3        1.0  0.26700  0.79500  0.29500  1.0000
  O   O4        1.0  0.73300  0.20500  0.29500  1.0000
  O   O5        1.0  0.26700  0.20500  0.70500  1.0000
  O   O6        1.0  0.73300  0.79500  0.70500  1.0000
  O   O7        1.0  0.26700  0.70500  0.79500  1.0000
  O   O8        1.0  0.73300  0.29500  0.79500  1.0000
  Zr  Zr1       1.0  0.50000  0.50000  0.00001  1.0000
  Zr  Zr2       1.0  0.50000  0.00002  0.50000  1.0000
