data_image0
_chemical_formula_structural       Ag4Hg2I4S2
_chemical_formula_sum              "Ag4 Hg2 I4 S2"
_cell_length_a       7.31342
_cell_length_b       7.66624
_cell_length_c       8.00113
_cell_angle_alpha    61.3752
_cell_angle_beta     90
_cell_angle_gamma    90

_space_group_name_H-M_alt    "P 1"
_space_group_IT_number       1

loop_
  _space_group_symop_operation_xyz
  'x, y, z'

loop_
  _atom_site_type_symbol
  _atom_site_label
  _atom_site_symmetry_multiplicity
  _atom_site_fract_x
  _atom_site_fract_y
  _atom_site_fract_z
  _atom_site_occupancy
  Ag  Ag1       1.0  0.27100  0.18200  0.32400  1.0000
  Ag  Ag2       1.0  0.77100  0.49300  0.32400  1.0000
  Ag  Ag3       1.0  0.27100  0.50700  0.67600  1.0000
  Ag  Ag4       1.0  0.77100  0.81800  0.67600  1.0000
  Hg  Hg1       1.0  0.91300  0.02380  0.00000  1.0000
  Hg  Hg2       1.0  0.41300  0.97600  0.00000  1.0000
  I   I1        1.0  0.66800  0.13800  0.31700  1.0000
  I   I2        1.0  0.16800  0.54500  0.31700  1.0000
  I   I3        1.0  0.66800  0.45500  0.68300  1.0000
  I   I4        1.0  0.16800  0.86200  0.68300  1.0000
  S   S1        1.0  0.18400  0.20300  0.00000  1.0000
  S   S2        1.0  0.68400  0.79700  0.00000  1.0000
