data_image0
_chemical_formula_structural       Cu2K2S6U2
_chemical_formula_sum              "Cu2 K2 S6 U2"
_cell_length_a       3.95506
_cell_length_b       7.22415
_cell_length_c       10.2604
_cell_angle_alpha    90
_cell_angle_beta     90
_cell_angle_gamma    74.1132

_space_group_name_H-M_alt    "P 1"
_space_group_IT_number       1

loop_
  _space_group_symop_operation_xyz
  'x, y, z'

loop_
  _atom_site_type_symbol
  _atom_site_label
  _atom_site_symmetry_multiplicity
  _atom_site_fract_x
  _atom_site_fract_y
  _atom_site_fract_z
  _atom_site_occupancy
  Cu  Cu1       1.0  0.46500  0.06950  0.25000  1.0000
  Cu  Cu2       1.0  0.53500  0.93000  0.75000  1.0000
  K   K1        1.0  0.74300  0.51500  0.25000  1.0000
  K   K2        1.0  0.25700  0.48500  0.75000  1.0000
  S   S1        1.0  0.37500  0.25000  0.06120  1.0000
  S   S2        1.0  0.06190  0.87600  0.25000  1.0000
  S   S3        1.0  0.37500  0.25000  0.43900  1.0000
  S   S4        1.0  0.62500  0.75000  0.56100  1.0000
  S   S5        1.0  0.93800  0.12400  0.75000  1.0000
  S   S6        1.0  0.62500  0.75000  0.93900  1.0000
  U   U1        1.0  0.00000  0.00000  0.00000  1.0000
  U   U2        1.0  0.00000  0.00000  0.50000  1.0000
