data_image0
_chemical_formula_structural       AgCr3O8
_chemical_formula_sum              "Ag1 Cr3 O8"
_cell_length_a       5.02953
_cell_length_b       5.02953
_cell_length_c       6.77266
_cell_angle_alpha    91.6115
_cell_angle_beta     91.6115
_cell_angle_gamma    66.5021

_space_group_name_H-M_alt    "P 1"
_space_group_IT_number       1

loop_
  _space_group_symop_operation_xyz
  'x, y, z'

loop_
  _atom_site_type_symbol
  _atom_site_label
  _atom_site_symmetry_multiplicity
  _atom_site_fract_x
  _atom_site_fract_y
  _atom_site_fract_z
  _atom_site_occupancy
  Ag  Ag1       1.0  0.00000  0.00000  0.00000  1.0000
  Cr  Cr1       1.0  0.35600  0.35600  0.27500  1.0000
  Cr  Cr2       1.0  0.00000  0.00000  0.50000  1.0000
  Cr  Cr3       1.0  0.64400  0.64400  0.72500  1.0000
  O   O1        1.0  0.26100  0.26100  0.06280  1.0000
  O   O2        1.0  0.72400  0.22000  0.28800  1.0000
  O   O3        1.0  0.22000  0.72400  0.28800  1.0000
  O   O4        1.0  0.23100  0.23100  0.46000  1.0000
  O   O5        1.0  0.76900  0.76900  0.54000  1.0000
  O   O6        1.0  0.78000  0.27600  0.71200  1.0000
  O   O7        1.0  0.27600  0.78000  0.71200  1.0000
  O   O8        1.0  0.73900  0.73900  0.93700  1.0000
