data_image0
_chemical_formula_structural       Cl4N4O4
_chemical_formula_sum              "Cl4 N4 O4"
_cell_length_a       10.8021
_cell_length_b       5.05354
_cell_length_c       3.88094
_cell_angle_alpha    90
_cell_angle_beta     90
_cell_angle_gamma    90

_space_group_name_H-M_alt    "P 1"
_space_group_IT_number       1

loop_
  _space_group_symop_operation_xyz
  'x, y, z'

loop_
  _atom_site_type_symbol
  _atom_site_label
  _atom_site_symmetry_multiplicity
  _atom_site_fract_x
  _atom_site_fract_y
  _atom_site_fract_z
  _atom_site_occupancy
  Cl  Cl1       1.0  0.35600  0.75000  0.02240  1.0000
  Cl  Cl2       1.0  0.85600  0.75000  0.47800  1.0000
  Cl  Cl3       1.0  0.14400  0.25000  0.52200  1.0000
  Cl  Cl4       1.0  0.64400  0.25000  0.97800  1.0000
  N   N1        1.0  0.16200  0.75000  0.17700  1.0000
  N   N2        1.0  0.66200  0.75000  0.32300  1.0000
  N   N3        1.0  0.33800  0.25000  0.67700  1.0000
  N   N4        1.0  0.83800  0.25000  0.82300  1.0000
  O   O1        1.0  0.90300  0.25000  0.05540  1.0000
  O   O2        1.0  0.40300  0.25000  0.44500  1.0000
  O   O3        1.0  0.59700  0.75000  0.55500  1.0000
  O   O4        1.0  0.09730  0.75000  0.94500  1.0000
