data_image0
_chemical_formula_structural       Ge2Rb4Se6
_chemical_formula_sum              "Ge2 Rb4 Se6"
_cell_length_a       7.24518
_cell_length_b       8.00136
_cell_length_c       9.24588
_cell_angle_alpha    107.258
_cell_angle_beta     113.067
_cell_angle_gamma    63.08

_space_group_name_H-M_alt    "P 1"
_space_group_IT_number       1

loop_
  _space_group_symop_operation_xyz
  'x, y, z'

loop_
  _atom_site_type_symbol
  _atom_site_label
  _atom_site_symmetry_multiplicity
  _atom_site_fract_x
  _atom_site_fract_y
  _atom_site_fract_z
  _atom_site_occupancy
  Ge  Ge1       1.0  0.11900  0.94600  0.18400  1.0000
  Ge  Ge2       1.0  0.88100  0.05390  0.81600  1.0000
  Rb  Rb1       1.0  0.81000  0.56100  0.18100  1.0000
  Rb  Rb2       1.0  0.58800  0.19800  0.37400  1.0000
  Rb  Rb3       1.0  0.41200  0.80200  0.62600  1.0000
  Rb  Rb4       1.0  0.19000  0.43900  0.81900  1.0000
  Se  Se1       1.0  0.25100  0.00000  0.00000  1.0000
  Se  Se2       1.0  0.74900  0.00000  0.00000  1.0000
  Se  Se3       1.0  0.29700  0.62900  0.22400  1.0000
  Se  Se4       1.0  0.11100  0.18200  0.40400  1.0000
  Se  Se5       1.0  0.88900  0.81800  0.59600  1.0000
  Se  Se6       1.0  0.70300  0.37100  0.77600  1.0000
