data_image0
_chemical_formula_structural       F8Mn2Tl2
_chemical_formula_sum              "F8 Mn2 Tl2"
_cell_length_a       5.18767
_cell_length_b       5.27694
_cell_length_c       7.12071
_cell_angle_alpha    111.749
_cell_angle_beta     111.549
_cell_angle_gamma    90

_space_group_name_H-M_alt    "P 1"
_space_group_IT_number       1

loop_
  _space_group_symop_operation_xyz
  'x, y, z'

loop_
  _atom_site_type_symbol
  _atom_site_label
  _atom_site_symmetry_multiplicity
  _atom_site_fract_x
  _atom_site_fract_y
  _atom_site_fract_z
  _atom_site_occupancy
  F   F1        1.0  0.81100  0.45900  0.21300  1.0000
  F   F2        1.0  0.31100  0.75400  0.21300  1.0000
  F   F3        1.0  0.76400  0.12500  0.41900  1.0000
  F   F4        1.0  0.26400  0.29400  0.41900  1.0000
  F   F5        1.0  0.73600  0.70600  0.58100  1.0000
  F   F6        1.0  0.23600  0.87500  0.58100  1.0000
  F   F7        1.0  0.18900  0.54100  0.78700  1.0000
  F   F8        1.0  0.68900  0.24600  0.78700  1.0000
  Mn  Mn1       1.0  0.00000  0.50000  0.50000  1.0000
  Mn  Mn2       1.0  0.50000  0.00000  0.50000  1.0000
  Tl  Tl1       1.0  0.75000  0.78600  0.00000  1.0000
  Tl  Tl2       1.0  0.25000  0.21400  0.00000  1.0000
