data_image0
_chemical_formula_structural       Ge2O8Th2
_chemical_formula_sum              "Ge2 O8 Th2"
_cell_length_a       6.10105
_cell_length_b       6.10105
_cell_length_c       6.10105
_cell_angle_alpha    106.901
_cell_angle_beta     114.744
_cell_angle_gamma    106.901

_space_group_name_H-M_alt    "P 1"
_space_group_IT_number       1

loop_
  _space_group_symop_operation_xyz
  'x, y, z'

loop_
  _atom_site_type_symbol
  _atom_site_label
  _atom_site_symmetry_multiplicity
  _atom_site_fract_x
  _atom_site_fract_y
  _atom_site_fract_z
  _atom_site_occupancy
  Ge  Ge1       1.0  0.50000  1.00000  0.50000  1.0000
  Ge  Ge2       1.0  0.25000  0.50000  0.75000  1.0000
  O   O1        1.0  0.50400  0.18200  0.32200  1.0000
  O   O2        1.0  0.14000  0.81800  0.32200  1.0000
  O   O3        1.0  0.07230  0.31800  0.39000  1.0000
  O   O4        1.0  0.67800  0.81800  0.49600  1.0000
  O   O5        1.0  0.07230  0.68200  0.75400  1.0000
  O   O6        1.0  0.67800  0.18200  0.86000  1.0000
  O   O7        1.0  0.24600  0.31800  0.92800  1.0000
  O   O8        1.0  0.61000  0.68200  0.92800  1.0000
  Th  Th1       1.0  0.00000  0.00000  0.00000  1.0000
  Th  Th2       1.0  0.75000  0.50000  0.25000  1.0000
