data_image0
_chemical_formula_structural       Cs4Ge2Se6
_chemical_formula_sum              "Cs4 Ge2 Se6"
_cell_length_a       7.56108
_cell_length_b       8.23493
_cell_length_c       9.5619
_cell_angle_alpha    107.29
_cell_angle_beta     113.289
_cell_angle_gamma    62.6719

_space_group_name_H-M_alt    "P 1"
_space_group_IT_number       1

loop_
  _space_group_symop_operation_xyz
  'x, y, z'

loop_
  _atom_site_type_symbol
  _atom_site_label
  _atom_site_symmetry_multiplicity
  _atom_site_fract_x
  _atom_site_fract_y
  _atom_site_fract_z
  _atom_site_occupancy
  Cs  Cs1       1.0  0.80300  0.57400  0.18000  1.0000
  Cs  Cs2       1.0  0.58500  0.19600  0.36500  1.0000
  Cs  Cs3       1.0  0.41500  0.80400  0.63500  1.0000
  Cs  Cs4       1.0  0.19700  0.42600  0.82000  1.0000
  Ge  Ge1       1.0  0.11600  0.95000  0.18200  1.0000
  Ge  Ge2       1.0  0.88400  0.04990  0.81800  1.0000
  Se  Se1       1.0  0.24000  0.00000  0.00000  1.0000
  Se  Se2       1.0  0.76000  0.00000  0.00000  1.0000
  Se  Se3       1.0  0.29100  0.64300  0.22500  1.0000
  Se  Se4       1.0  0.10800  0.17900  0.39500  1.0000
  Se  Se5       1.0  0.89200  0.82100  0.60500  1.0000
  Se  Se6       1.0  0.70900  0.35700  0.77500  1.0000
