data_image0
_chemical_formula_structural       La3Ni2Sn7
_chemical_formula_sum              "La3 Ni2 Sn7"
_cell_length_a       4.65177
_cell_length_b       4.65441
_cell_length_c       14.0942
_cell_angle_alpha    80.4959
_cell_angle_beta     90
_cell_angle_gamma    90

_space_group_name_H-M_alt    "P 1"
_space_group_IT_number       1

loop_
  _space_group_symop_operation_xyz
  'x, y, z'

loop_
  _atom_site_type_symbol
  _atom_site_label
  _atom_site_symmetry_multiplicity
  _atom_site_fract_x
  _atom_site_fract_y
  _atom_site_fract_z
  _atom_site_occupancy
  La  La1       1.0  0.50000  0.50000  0.00000  1.0000
  La  La2       1.0  0.00000  0.81500  0.37000  1.0000
  La  La3       1.0  0.00000  0.18500  0.63000  1.0000
  Ni  Ni1       1.0  0.50000  0.37200  0.25700  1.0000
  Ni  Ni2       1.0  0.50000  0.62800  0.74300  1.0000
  Sn  Sn1       1.0  0.00000  0.00000  0.00000  1.0000
  Sn  Sn2       1.0  0.00000  0.41000  0.17900  1.0000
  Sn  Sn3       1.0  0.50000  0.91000  0.18000  1.0000
  Sn  Sn4       1.0  0.50000  0.28100  0.43700  1.0000
  Sn  Sn5       1.0  0.50000  0.71900  0.56300  1.0000
  Sn  Sn6       1.0  0.50000  0.08990  0.82000  1.0000
  Sn  Sn7       1.0  0.00000  0.59000  0.82100  1.0000
