data_image0
_chemical_formula_structural       Ir4Sb4Yb4
_chemical_formula_sum              "Ir4 Sb4 Yb4"
_cell_length_a       7.22728
_cell_length_b       4.55966
_cell_length_c       7.82737
_cell_angle_alpha    90
_cell_angle_beta     90
_cell_angle_gamma    90

_space_group_name_H-M_alt    "P 1"
_space_group_IT_number       1

loop_
  _space_group_symop_operation_xyz
  'x, y, z'

loop_
  _atom_site_type_symbol
  _atom_site_label
  _atom_site_symmetry_multiplicity
  _atom_site_fract_x
  _atom_site_fract_y
  _atom_site_fract_z
  _atom_site_occupancy
  Ir  Ir1       1.0  0.79500  0.25000  0.09970  1.0000
  Ir  Ir2       1.0  0.29500  0.25000  0.40000  1.0000
  Ir  Ir3       1.0  0.70500  0.75000  0.60000  1.0000
  Ir  Ir4       1.0  0.20500  0.75000  0.90000  1.0000
  Sb  Sb1       1.0  0.17500  0.25000  0.07950  1.0000
  Sb  Sb2       1.0  0.67500  0.25000  0.42000  1.0000
  Sb  Sb3       1.0  0.32500  0.75000  0.58000  1.0000
  Sb  Sb4       1.0  0.82500  0.75000  0.92000  1.0000
  Yb  Yb1       1.0  0.48200  0.75000  0.19100  1.0000
  Yb  Yb2       1.0  0.98200  0.75000  0.30900  1.0000
  Yb  Yb3       1.0  0.01810  0.25000  0.69100  1.0000
  Yb  Yb4       1.0  0.51800  0.25000  0.80900  1.0000
