data_image0
_chemical_formula_structural       Ag4As4S4
_chemical_formula_sum              "Ag4 As4 S4"
_cell_length_a       12.1119
_cell_length_b       6.06801
_cell_length_c       3.95595
_cell_angle_alpha    90
_cell_angle_beta     90
_cell_angle_gamma    90

_space_group_name_H-M_alt    "P 1"
_space_group_IT_number       1

loop_
  _space_group_symop_operation_xyz
  'x, y, z'

loop_
  _atom_site_type_symbol
  _atom_site_label
  _atom_site_symmetry_multiplicity
  _atom_site_fract_x
  _atom_site_fract_y
  _atom_site_fract_z
  _atom_site_occupancy
  Ag  Ag1       1.0  0.83100  0.06660  0.24800  1.0000
  Ag  Ag2       1.0  0.33100  0.43300  0.24800  1.0000
  Ag  Ag3       1.0  0.66900  0.56700  0.74800  1.0000
  Ag  Ag4       1.0  0.16900  0.93300  0.74800  1.0000
  As  As1       1.0  0.48900  0.13600  0.24700  1.0000
  As  As2       1.0  0.98900  0.36400  0.24700  1.0000
  As  As3       1.0  0.01140  0.63600  0.74700  1.0000
  As  As4       1.0  0.51100  0.86400  0.74700  1.0000
  S   S1        1.0  0.15600  0.20200  0.24800  1.0000
  S   S2        1.0  0.65600  0.29800  0.24800  1.0000
  S   S3        1.0  0.34400  0.70200  0.74800  1.0000
  S   S4        1.0  0.84400  0.79800  0.74800  1.0000
