data_image0
_chemical_formula_structural       O8Th4
_chemical_formula_sum              "O8 Th4"
_cell_length_a       6.17227
_cell_length_b       3.75486
_cell_length_c       7.13695
_cell_angle_alpha    90
_cell_angle_beta     90
_cell_angle_gamma    90

_space_group_name_H-M_alt    "P 1"
_space_group_IT_number       1

loop_
  _space_group_symop_operation_xyz
  'x, y, z'

loop_
  _atom_site_type_symbol
  _atom_site_label
  _atom_site_symmetry_multiplicity
  _atom_site_fract_x
  _atom_site_fract_y
  _atom_site_fract_z
  _atom_site_occupancy
  O   O1        1.0  0.64000  0.25000  0.07360  1.0000
  O   O2        1.0  0.97800  0.75000  0.16300  1.0000
  O   O3        1.0  0.47800  0.75000  0.33700  1.0000
  O   O4        1.0  0.14000  0.25000  0.42600  1.0000
  O   O5        1.0  0.86000  0.75000  0.57400  1.0000
  O   O6        1.0  0.52200  0.25000  0.66300  1.0000
  O   O7        1.0  0.02230  0.25000  0.83700  1.0000
  O   O8        1.0  0.36000  0.75000  0.92600  1.0000
  Th  Th1       1.0  0.25000  0.25000  0.10500  1.0000
  Th  Th2       1.0  0.75000  0.25000  0.39500  1.0000
  Th  Th3       1.0  0.25000  0.75000  0.60500  1.0000
  Th  Th4       1.0  0.75000  0.75000  0.89500  1.0000
