data_image0
_chemical_formula_structural       As4Cu4Te4
_chemical_formula_sum              "As4 Cu4 Te4"
_cell_length_a       12.4072
_cell_length_b       5.82283
_cell_length_c       4.17238
_cell_angle_alpha    90
_cell_angle_beta     90
_cell_angle_gamma    90

_space_group_name_H-M_alt    "P 1"
_space_group_IT_number       1

loop_
  _space_group_symop_operation_xyz
  'x, y, z'

loop_
  _atom_site_type_symbol
  _atom_site_label
  _atom_site_symmetry_multiplicity
  _atom_site_fract_x
  _atom_site_fract_y
  _atom_site_fract_z
  _atom_site_occupancy
  As  As1       1.0  0.48300  0.12500  0.24800  1.0000
  As  As2       1.0  0.98300  0.37500  0.24800  1.0000
  As  As3       1.0  0.01710  0.62500  0.74800  1.0000
  As  As4       1.0  0.51700  0.87500  0.74800  1.0000
  Cu  Cu1       1.0  0.83800  0.10900  0.24800  1.0000
  Cu  Cu2       1.0  0.33800  0.39100  0.24800  1.0000
  Cu  Cu3       1.0  0.66200  0.60900  0.74800  1.0000
  Cu  Cu4       1.0  0.16200  0.89100  0.74800  1.0000
  Te  Te1       1.0  0.16600  0.14200  0.24800  1.0000
  Te  Te2       1.0  0.66600  0.35800  0.24800  1.0000
  Te  Te3       1.0  0.33400  0.64200  0.74800  1.0000
  Te  Te4       1.0  0.83400  0.85800  0.74800  1.0000
