data_image0
_chemical_formula_structural       Ce2Cs2Cu2S6
_chemical_formula_sum              "Ce2 Cs2 Cu2 S6"
_cell_length_a       4.13154
_cell_length_b       7.86328
_cell_length_c       11.1229
_cell_angle_alpha    90
_cell_angle_beta     90
_cell_angle_gamma    74.769

_space_group_name_H-M_alt    "P 1"
_space_group_IT_number       1

loop_
  _space_group_symop_operation_xyz
  'x, y, z'

loop_
  _atom_site_type_symbol
  _atom_site_label
  _atom_site_symmetry_multiplicity
  _atom_site_fract_x
  _atom_site_fract_y
  _atom_site_fract_z
  _atom_site_occupancy
  Ce  Ce1       1.0  0.00000  0.00000  0.00000  1.0000
  Ce  Ce2       1.0  0.00000  0.00000  0.50000  1.0000
  Cs  Cs1       1.0  0.74000  0.52000  0.25000  1.0000
  Cs  Cs2       1.0  0.26000  0.48000  0.75000  1.0000
  Cu  Cu1       1.0  0.46300  0.07410  0.25000  1.0000
  Cu  Cu2       1.0  0.53700  0.92600  0.75000  1.0000
  S   S1        1.0  0.38200  0.23700  0.07410  1.0000
  S   S2        1.0  0.04690  0.90600  0.25000  1.0000
  S   S3        1.0  0.38200  0.23700  0.42600  1.0000
  S   S4        1.0  0.61800  0.76300  0.57400  1.0000
  S   S5        1.0  0.95300  0.09390  0.75000  1.0000
  S   S6        1.0  0.61800  0.76300  0.92600  1.0000
