data_image0
_chemical_formula_structural       Ce4Sb8
_chemical_formula_sum              "Ce4 Sb8"
_cell_length_a       4.44811
_cell_length_b       4.44811
_cell_length_c       18.6818
_cell_angle_alpha    90
_cell_angle_beta     90
_cell_angle_gamma    88.7544

_space_group_name_H-M_alt    "P 1"
_space_group_IT_number       1

loop_
  _space_group_symop_operation_xyz
  'x, y, z'

loop_
  _atom_site_type_symbol
  _atom_site_label
  _atom_site_symmetry_multiplicity
  _atom_site_fract_x
  _atom_site_fract_y
  _atom_site_fract_z
  _atom_site_occupancy
  Ce  Ce1       1.0  0.63700  0.36300  0.11100  1.0000
  Ce  Ce2       1.0  0.13700  0.86300  0.38900  1.0000
  Ce  Ce3       1.0  0.86300  0.13700  0.61100  1.0000
  Ce  Ce4       1.0  0.36300  0.63700  0.88900  1.0000
  Sb  Sb1       1.0  0.13200  0.86800  0.06270  1.0000
  Sb  Sb2       1.0  0.12400  0.37600  0.25000  1.0000
  Sb  Sb3       1.0  0.62400  0.87600  0.25000  1.0000
  Sb  Sb4       1.0  0.63200  0.36800  0.43700  1.0000
  Sb  Sb5       1.0  0.36800  0.63200  0.56300  1.0000
  Sb  Sb6       1.0  0.37600  0.12400  0.75000  1.0000
  Sb  Sb7       1.0  0.87600  0.62400  0.75000  1.0000
  Sb  Sb8       1.0  0.86800  0.13200  0.93700  1.0000
