data_image0
_chemical_formula_structural       P4Pt4Sc4
_chemical_formula_sum              "P4 Pt4 Sc4"
_cell_length_a       6.64038
_cell_length_b       3.85601
_cell_length_c       7.4777
_cell_angle_alpha    90
_cell_angle_beta     90
_cell_angle_gamma    90

_space_group_name_H-M_alt    "P 1"
_space_group_IT_number       1

loop_
  _space_group_symop_operation_xyz
  'x, y, z'

loop_
  _atom_site_type_symbol
  _atom_site_label
  _atom_site_symmetry_multiplicity
  _atom_site_fract_x
  _atom_site_fract_y
  _atom_site_fract_z
  _atom_site_occupancy
  P   P1        1.0  0.25500  0.25000  0.12500  1.0000
  P   P2        1.0  0.75500  0.25000  0.37500  1.0000
  P   P3        1.0  0.24500  0.75000  0.62500  1.0000
  P   P4        1.0  0.74500  0.75000  0.87500  1.0000
  Pt  Pt1       1.0  0.84800  0.25000  0.06200  1.0000
  Pt  Pt2       1.0  0.34800  0.25000  0.43800  1.0000
  Pt  Pt3       1.0  0.65200  0.75000  0.56200  1.0000
  Pt  Pt4       1.0  0.15200  0.75000  0.93800  1.0000
  Sc  Sc1       1.0  0.53200  0.75000  0.18100  1.0000
  Sc  Sc2       1.0  0.03170  0.75000  0.31900  1.0000
  Sc  Sc3       1.0  0.96800  0.25000  0.68100  1.0000
  Sc  Sc4       1.0  0.46800  0.25000  0.81900  1.0000
