data_image0
_chemical_formula_structural       Ce4Ga4Rh4
_chemical_formula_sum              "Ce4 Ga4 Rh4"
_cell_length_a       7.4424
_cell_length_b       4.67977
_cell_length_c       7.26549
_cell_angle_alpha    90
_cell_angle_beta     90
_cell_angle_gamma    90

_space_group_name_H-M_alt    "P 1"
_space_group_IT_number       1

loop_
  _space_group_symop_operation_xyz
  'x, y, z'

loop_
  _atom_site_type_symbol
  _atom_site_label
  _atom_site_symmetry_multiplicity
  _atom_site_fract_x
  _atom_site_fract_y
  _atom_site_fract_z
  _atom_site_occupancy
  Ce  Ce1       1.0  0.97200  0.25000  0.18700  1.0000
  Ce  Ce2       1.0  0.47200  0.25000  0.31300  1.0000
  Ce  Ce3       1.0  0.52800  0.75000  0.68700  1.0000
  Ce  Ce4       1.0  0.02770  0.75000  0.81300  1.0000
  Ga  Ga1       1.0  0.68800  0.75000  0.10300  1.0000
  Ga  Ga2       1.0  0.18800  0.75000  0.39700  1.0000
  Ga  Ga3       1.0  0.81200  0.25000  0.60300  1.0000
  Ga  Ga4       1.0  0.31200  0.25000  0.89700  1.0000
  Rh  Rh1       1.0  0.34300  0.75000  0.07290  1.0000
  Rh  Rh2       1.0  0.84300  0.75000  0.42700  1.0000
  Rh  Rh3       1.0  0.15700  0.25000  0.57300  1.0000
  Rh  Rh4       1.0  0.65700  0.25000  0.92700  1.0000
