data_image0
_chemical_formula_structural       Ag4As4Se4
_chemical_formula_sum              "Ag4 As4 Se4"
_cell_length_a       12.5037
_cell_length_b       6.22391
_cell_length_c       4.01498
_cell_angle_alpha    90
_cell_angle_beta     90
_cell_angle_gamma    90

_space_group_name_H-M_alt    "P 1"
_space_group_IT_number       1

loop_
  _space_group_symop_operation_xyz
  'x, y, z'

loop_
  _atom_site_type_symbol
  _atom_site_label
  _atom_site_symmetry_multiplicity
  _atom_site_fract_x
  _atom_site_fract_y
  _atom_site_fract_z
  _atom_site_occupancy
  Ag  Ag1       1.0  0.84200  0.07870  0.24800  1.0000
  Ag  Ag2       1.0  0.34200  0.42100  0.24800  1.0000
  Ag  Ag3       1.0  0.65800  0.57900  0.74800  1.0000
  Ag  Ag4       1.0  0.15800  0.92100  0.74800  1.0000
  As  As1       1.0  0.48900  0.12900  0.24700  1.0000
  As  As2       1.0  0.98900  0.37100  0.24700  1.0000
  As  As3       1.0  0.01110  0.62900  0.74700  1.0000
  As  As4       1.0  0.51100  0.87100  0.74700  1.0000
  Se  Se1       1.0  0.16100  0.19800  0.24800  1.0000
  Se  Se2       1.0  0.66100  0.30200  0.24800  1.0000
  Se  Se3       1.0  0.33900  0.69800  0.74800  1.0000
  Se  Se4       1.0  0.83900  0.80200  0.74800  1.0000
