data_image0
_chemical_formula_structural       Fe4Pt4Sb4
_chemical_formula_sum              "Fe4 Pt4 Sb4"
_cell_length_a       6.17982
_cell_length_b       6.17983
_cell_length_c       6.17982
_cell_angle_alpha    90.0005
_cell_angle_beta     89.9993
_cell_angle_gamma    89.9994

_space_group_name_H-M_alt    "P 1"
_space_group_IT_number       1

loop_
  _space_group_symop_operation_xyz
  'x, y, z'

loop_
  _atom_site_type_symbol
  _atom_site_label
  _atom_site_symmetry_multiplicity
  _atom_site_fract_x
  _atom_site_fract_y
  _atom_site_fract_z
  _atom_site_occupancy
  Fe  Fe1       1.0  0.93500  0.43500  0.06480  1.0000
  Fe  Fe2       1.0  0.06480  0.93500  0.43500  1.0000
  Fe  Fe3       1.0  0.56500  0.56500  0.56500  1.0000
  Fe  Fe4       1.0  0.43500  0.06480  0.93500  1.0000
  Pt  Pt1       1.0  0.03940  0.03940  0.03940  1.0000
  Pt  Pt2       1.0  0.96100  0.53900  0.46100  1.0000
  Pt  Pt3       1.0  0.46100  0.96100  0.53900  1.0000
  Pt  Pt4       1.0  0.53900  0.46100  0.96100  1.0000
  Sb  Sb1       1.0  0.69000  0.81000  0.19000  1.0000
  Sb  Sb2       1.0  0.31000  0.31000  0.31000  1.0000
  Sb  Sb3       1.0  0.81000  0.19000  0.69000  1.0000
  Sb  Sb4       1.0  0.19000  0.69000  0.81000  1.0000
