data_image0
_chemical_formula_structural       Lu2O8P2
_chemical_formula_sum              "Lu2 O8 P2"
_cell_length_a       5.61542
_cell_length_b       5.61542
_cell_length_c       5.61542
_cell_angle_alpha    106.15
_cell_angle_beta     116.34
_cell_angle_gamma    106.15

_space_group_name_H-M_alt    "P 1"
_space_group_IT_number       1

loop_
  _space_group_symop_operation_xyz
  'x, y, z'

loop_
  _atom_site_type_symbol
  _atom_site_label
  _atom_site_symmetry_multiplicity
  _atom_site_fract_x
  _atom_site_fract_y
  _atom_site_fract_z
  _atom_site_occupancy
  Lu  Lu1       1.0  0.87500  0.75000  0.12500  1.0000
  Lu  Lu2       1.0  0.12500  0.25000  0.87500  1.0000
  O   O1        1.0  0.28300  0.07150  0.21100  1.0000
  O   O2        1.0  0.64000  0.42800  0.21100  1.0000
  O   O3        1.0  0.21100  0.57200  0.28300  1.0000
  O   O4        1.0  0.78900  0.07150  0.36000  1.0000
  O   O5        1.0  0.21100  0.92800  0.64000  1.0000
  O   O6        1.0  0.78900  0.42800  0.71700  1.0000
  O   O7        1.0  0.36000  0.57200  0.78900  1.0000
  O   O8        1.0  0.71700  0.92800  0.78900  1.0000
  P   P1        1.0  0.62500  0.25000  0.37500  1.0000
  P   P2        1.0  0.37500  0.75000  0.62500  1.0000
