data_image0
_chemical_formula_structural       Ce4Ru4Sn4
_chemical_formula_sum              "Ce4 Ru4 Sn4"
_cell_length_a       4.72343
_cell_length_b       6.38761
_cell_length_c       10.796
_cell_angle_alpha    102.041
_cell_angle_beta     90
_cell_angle_gamma    111.699

_space_group_name_H-M_alt    "P 1"
_space_group_IT_number       1

loop_
  _space_group_symop_operation_xyz
  'x, y, z'

loop_
  _atom_site_type_symbol
  _atom_site_label
  _atom_site_symmetry_multiplicity
  _atom_site_fract_x
  _atom_site_fract_y
  _atom_site_fract_z
  _atom_site_occupancy
  Ce  Ce1       1.0  0.87200  0.74500  0.08880  1.0000
  Ce  Ce2       1.0  0.12900  0.25800  0.41100  1.0000
  Ce  Ce3       1.0  0.87100  0.74200  0.58900  1.0000
  Ce  Ce4       1.0  0.12800  0.25500  0.91100  1.0000
  Ru  Ru1       1.0  0.20000  0.40000  0.18100  1.0000
  Ru  Ru2       1.0  0.80400  0.60800  0.32000  1.0000
  Ru  Ru3       1.0  0.19600  0.39200  0.68000  1.0000
  Ru  Ru4       1.0  0.80000  0.60000  0.81900  1.0000
  Sn  Sn1       1.0  0.59100  0.18100  0.15600  1.0000
  Sn  Sn2       1.0  0.41300  0.82600  0.34500  1.0000
  Sn  Sn3       1.0  0.58700  0.17400  0.65500  1.0000
  Sn  Sn4       1.0  0.40900  0.81900  0.84400  1.0000
