data_image0
_chemical_formula_structural       Ce2I8Sm2
_chemical_formula_sum              "Ce2 I8 Sm2"
_cell_length_a       7.67216
_cell_length_b       7.63317
_cell_length_c       9.30997
_cell_angle_alpha    112.309
_cell_angle_beta     112.449
_cell_angle_gamma    94.2223

_space_group_name_H-M_alt    "P 1"
_space_group_IT_number       1

loop_
  _space_group_symop_operation_xyz
  'x, y, z'

loop_
  _atom_site_type_symbol
  _atom_site_label
  _atom_site_symmetry_multiplicity
  _atom_site_fract_x
  _atom_site_fract_y
  _atom_site_fract_z
  _atom_site_occupancy
  Ce  Ce1       1.0  0.20200  0.45200  0.90400  1.0000
  Ce  Ce2       1.0  0.79800  0.54800  0.09560  1.0000
  I   I1        1.0  0.48300  0.25500  0.11400  1.0000
  I   I2        1.0  0.13100  0.85900  0.11400  1.0000
  I   I3        1.0  0.72100  0.85800  0.39800  1.0000
  I   I4        1.0  0.17700  0.54000  0.39800  1.0000
  I   I5        1.0  0.82300  0.46000  0.60200  1.0000
  I   I6        1.0  0.27900  0.14200  0.60200  1.0000
  I   I7        1.0  0.86900  0.14100  0.88600  1.0000
  I   I8        1.0  0.51700  0.74500  0.88600  1.0000
  Sm  Sm1       1.0  0.88600  0.13600  0.27200  1.0000
  Sm  Sm2       1.0  0.11400  0.86400  0.72800  1.0000
