data_image0
_chemical_formula_structural       Fe4K2S6
_chemical_formula_sum              "Fe4 K2 S6"
_cell_length_a       5.14726
_cell_length_b       6.89992
_cell_length_c       6.89992
_cell_angle_alpha    99.5134
_cell_angle_beta     89.9744
_cell_angle_gamma    90.0256

_space_group_name_H-M_alt    "P 1"
_space_group_IT_number       1

loop_
  _space_group_symop_operation_xyz
  'x, y, z'

loop_
  _atom_site_type_symbol
  _atom_site_label
  _atom_site_symmetry_multiplicity
  _atom_site_fract_x
  _atom_site_fract_y
  _atom_site_fract_z
  _atom_site_occupancy
  Fe  Fe1       1.0  0.00000  0.14300  0.14300  1.0000
  Fe  Fe2       1.0  0.50000  0.14300  0.14300  1.0000
  Fe  Fe3       1.0  0.50000  0.85700  0.85700  1.0000
  Fe  Fe4       1.0  0.00000  0.85700  0.85700  1.0000
  K   K1        1.0  0.75000  0.66600  0.33400  1.0000
  K   K2        1.0  0.25000  0.33400  0.66600  1.0000
  S   S1        1.0  0.25000  0.88600  0.11400  1.0000
  S   S2        1.0  0.25000  0.39000  0.16400  1.0000
  S   S3        1.0  0.75000  0.16400  0.39000  1.0000
  S   S4        1.0  0.25000  0.83600  0.61000  1.0000
  S   S5        1.0  0.75000  0.61000  0.83600  1.0000
  S   S6        1.0  0.75000  0.11400  0.88600  1.0000
