data_image0
_chemical_formula_structural       Au2Cs2Te6U2
_chemical_formula_sum              "Au2 Cs2 Te6 U2"
_cell_length_a       4.44926
_cell_length_b       8.90029
_cell_length_c       11.4524
_cell_angle_alpha    90.0284
_cell_angle_beta     90
_cell_angle_gamma    75.5254

_space_group_name_H-M_alt    "P 1"
_space_group_IT_number       1

loop_
  _space_group_symop_operation_xyz
  'x, y, z'

loop_
  _atom_site_type_symbol
  _atom_site_label
  _atom_site_symmetry_multiplicity
  _atom_site_fract_x
  _atom_site_fract_y
  _atom_site_fract_z
  _atom_site_occupancy
  Au  Au1       1.0  0.53700  0.92600  0.25000  1.0000
  Au  Au2       1.0  0.46300  0.07370  0.75000  1.0000
  Cs  Cs1       1.0  0.24900  0.50100  0.25000  1.0000
  Cs  Cs2       1.0  0.75100  0.49900  0.75000  1.0000
  Te  Te1       1.0  0.62100  0.75700  0.04540  1.0000
  Te  Te2       1.0  0.93600  0.12800  0.25000  1.0000
  Te  Te3       1.0  0.62100  0.75700  0.45500  1.0000
  Te  Te4       1.0  0.37900  0.24300  0.54500  1.0000
  Te  Te5       1.0  0.06420  0.87200  0.75000  1.0000
  Te  Te6       1.0  0.37900  0.24300  0.95500  1.0000
  U   U1        1.0  0.00000  0.00000  0.00000  1.0000
  U   U2        1.0  0.00000  0.00000  0.50000  1.0000
