data_image0
_chemical_formula_structural       I8La2Nd2
_chemical_formula_sum              "I8 La2 Nd2"
_cell_length_a       7.7254
_cell_length_b       8.10077
_cell_length_c       8.91807
_cell_angle_alpha    112.527
_cell_angle_beta     111.015
_cell_angle_gamma    99.4432

_space_group_name_H-M_alt    "P 1"
_space_group_IT_number       1

loop_
  _space_group_symop_operation_xyz
  'x, y, z'

loop_
  _atom_site_type_symbol
  _atom_site_label
  _atom_site_symmetry_multiplicity
  _atom_site_fract_x
  _atom_site_fract_y
  _atom_site_fract_z
  _atom_site_occupancy
  I   I1        1.0  0.12900  0.87300  0.11900  1.0000
  I   I2        1.0  0.49000  0.24600  0.11900  1.0000
  I   I3        1.0  0.15100  0.55800  0.36900  1.0000
  I   I4        1.0  0.71800  0.81100  0.36900  1.0000
  I   I5        1.0  0.28200  0.18900  0.63100  1.0000
  I   I6        1.0  0.84900  0.44200  0.63100  1.0000
  I   I7        1.0  0.51000  0.75400  0.88100  1.0000
  I   I8        1.0  0.87100  0.12700  0.88100  1.0000
  La  La1       1.0  0.24300  0.49300  0.98500  1.0000
  La  La2       1.0  0.75700  0.50700  0.01490  1.0000
  Nd  Nd1       1.0  0.88300  0.13300  0.26600  1.0000
  Nd  Nd2       1.0  0.11700  0.86700  0.73400  1.0000
