data_image0
_chemical_formula_structural       Dy4Ge4Mn4
_chemical_formula_sum              "Dy4 Ge4 Mn4"
_cell_length_a       7.27879
_cell_length_b       4.21291
_cell_length_c       8.26476
_cell_angle_alpha    90.1271
_cell_angle_beta     90.1327
_cell_angle_gamma    89.8833

_space_group_name_H-M_alt    "P 1"
_space_group_IT_number       1

loop_
  _space_group_symop_operation_xyz
  'x, y, z'

loop_
  _atom_site_type_symbol
  _atom_site_label
  _atom_site_symmetry_multiplicity
  _atom_site_fract_x
  _atom_site_fract_y
  _atom_site_fract_z
  _atom_site_occupancy
  Dy  Dy1       1.0  0.47800  0.75100  0.18300  1.0000
  Dy  Dy2       1.0  0.97800  0.75000  0.31700  1.0000
  Dy  Dy3       1.0  0.02160  0.25000  0.68300  1.0000
  Dy  Dy4       1.0  0.52200  0.24900  0.81700  1.0000
  Ge  Ge1       1.0  0.77300  0.25000  0.11700  1.0000
  Ge  Ge2       1.0  0.27400  0.25000  0.38200  1.0000
  Ge  Ge3       1.0  0.72600  0.75000  0.61800  1.0000
  Ge  Ge4       1.0  0.22700  0.75000  0.88300  1.0000
  Mn  Mn1       1.0  0.13400  0.25000  0.05350  1.0000
  Mn  Mn2       1.0  0.63400  0.25000  0.44700  1.0000
  Mn  Mn3       1.0  0.36600  0.75000  0.55300  1.0000
  Mn  Mn4       1.0  0.86600  0.75000  0.94600  1.0000
