data_image0
_chemical_formula_structural       F4N4O4
_chemical_formula_sum              "F4 N4 O4"
_cell_length_a       3.3213
_cell_length_b       4.11801
_cell_length_c       8.79217
_cell_angle_alpha    89.989
_cell_angle_beta     90.9266
_cell_angle_gamma    89.7155

_space_group_name_H-M_alt    "P 1"
_space_group_IT_number       1

loop_
  _space_group_symop_operation_xyz
  'x, y, z'

loop_
  _atom_site_type_symbol
  _atom_site_label
  _atom_site_symmetry_multiplicity
  _atom_site_fract_x
  _atom_site_fract_y
  _atom_site_fract_z
  _atom_site_occupancy
  F   F1        1.0  0.01450  0.64100  0.12900  1.0000
  F   F2        1.0  0.01320  0.07410  0.36100  1.0000
  F   F3        1.0  0.46500  0.40900  0.62700  1.0000
  F   F4        1.0  0.50700  0.91700  0.88300  1.0000
  N   N1        1.0  0.79900  0.02520  0.09010  1.0000
  N   N2        1.0  0.17800  0.55800  0.42200  1.0000
  N   N3        1.0  0.68600  0.96600  0.57200  1.0000
  N   N4        1.0  0.32600  0.44800  0.92600  1.0000
  O   O1        1.0  0.54600  0.05110  0.16400  1.0000
  O   O2        1.0  0.46500  0.56500  0.32800  1.0000
  O   O3        1.0  0.99900  0.92600  0.65600  1.0000
  O   O4        1.0  0.00020  0.42000  0.84200  1.0000
