data_image0
_chemical_formula_structural       Ba2Ce2I8
_chemical_formula_sum              "Ba2 Ce2 I8"
_cell_length_a       7.51767
_cell_length_b       8.98423
_cell_length_c       9.23873
_cell_angle_alpha    113.682
_cell_angle_beta     107.806
_cell_angle_gamma    101.997

_space_group_name_H-M_alt    "P 1"
_space_group_IT_number       1

loop_
  _space_group_symop_operation_xyz
  'x, y, z'

loop_
  _atom_site_type_symbol
  _atom_site_label
  _atom_site_symmetry_multiplicity
  _atom_site_fract_x
  _atom_site_fract_y
  _atom_site_fract_z
  _atom_site_occupancy
  Ba  Ba1       1.0  0.88400  0.63400  0.26800  1.0000
  Ba  Ba2       1.0  0.11600  0.36600  0.73200  1.0000
  Ce  Ce1       1.0  0.75200  0.00228  0.00456  1.0000
  Ce  Ce2       1.0  0.24800  0.99800  0.99500  1.0000
  I   I1        1.0  0.48600  0.76900  0.12800  1.0000
  I   I2        1.0  0.14200  0.35900  0.12800  1.0000
  I   I3        1.0  0.70300  0.29000  0.34700  1.0000
  I   I4        1.0  0.14400  0.05780  0.34700  1.0000
  I   I5        1.0  0.85600  0.94200  0.65300  1.0000
  I   I6        1.0  0.29700  0.71000  0.65300  1.0000
  I   I7        1.0  0.85800  0.64100  0.87200  1.0000
  I   I8        1.0  0.51400  0.23100  0.87200  1.0000
