data_image0
_chemical_formula_structural       C2S6Tl4
_chemical_formula_sum              "C2 S6 Tl4"
_cell_length_a       6.72237
_cell_length_b       6.54929
_cell_length_c       9.18259
_cell_angle_alpha    107.649
_cell_angle_beta     111.472
_cell_angle_gamma    59.1219

_space_group_name_H-M_alt    "P 1"
_space_group_IT_number       1

loop_
  _space_group_symop_operation_xyz
  'x, y, z'

loop_
  _atom_site_type_symbol
  _atom_site_label
  _atom_site_symmetry_multiplicity
  _atom_site_fract_x
  _atom_site_fract_y
  _atom_site_fract_z
  _atom_site_occupancy
  C   C1        1.0  0.05980  0.25000  0.25000  1.0000
  C   C2        1.0  0.94000  0.75000  0.75000  1.0000
  S   S1        1.0  0.81400  0.32200  0.09030  1.0000
  S   S2        1.0  0.31600  0.25000  0.25000  1.0000
  S   S3        1.0  0.04620  0.17800  0.41000  1.0000
  S   S4        1.0  0.95400  0.82200  0.59000  1.0000
  S   S5        1.0  0.68400  0.75000  0.75000  1.0000
  S   S6        1.0  0.18600  0.67800  0.91000  1.0000
  Tl  Tl1       1.0  0.84900  0.81600  0.12100  1.0000
  Tl  Tl2       1.0  0.54400  0.68400  0.37900  1.0000
  Tl  Tl3       1.0  0.45600  0.31600  0.62100  1.0000
  Tl  Tl4       1.0  0.15100  0.18400  0.87900  1.0000
