data_image0
_chemical_formula_structural       As4Pd4Se4
_chemical_formula_sum              "As4 Pd4 Se4"
_cell_length_a       6.15901
_cell_length_b       6.15901
_cell_length_c       6.15901
_cell_angle_alpha    90
_cell_angle_beta     90
_cell_angle_gamma    90

_space_group_name_H-M_alt    "P 1"
_space_group_IT_number       1

loop_
  _space_group_symop_operation_xyz
  'x, y, z'

loop_
  _atom_site_type_symbol
  _atom_site_label
  _atom_site_symmetry_multiplicity
  _atom_site_fract_x
  _atom_site_fract_y
  _atom_site_fract_z
  _atom_site_occupancy
  As  As1       1.0  0.61800  0.88200  0.11800  1.0000
  As  As2       1.0  0.38200  0.38200  0.38200  1.0000
  As  As3       1.0  0.88200  0.11800  0.61800  1.0000
  As  As4       1.0  0.11800  0.61800  0.88200  1.0000
  Pd  Pd1       1.0  0.99400  0.99400  0.99400  1.0000
  Pd  Pd2       1.0  0.49400  0.50600  0.00614  1.0000
  Pd  Pd3       1.0  0.50600  0.00614  0.49400  1.0000
  Pd  Pd4       1.0  0.00614  0.49400  0.50600  1.0000
  Se  Se1       1.0  0.88700  0.38700  0.11300  1.0000
  Se  Se2       1.0  0.11300  0.88700  0.38700  1.0000
  Se  Se3       1.0  0.61300  0.61300  0.61300  1.0000
  Se  Se4       1.0  0.38700  0.11300  0.88700  1.0000
