data_image0
_chemical_formula_structural       In9KNi2
_chemical_formula_sum              "In9 K1 Ni2"
_cell_length_a       8.88428
_cell_length_b       8.88428
_cell_length_c       4.38087
_cell_angle_alpha    90
_cell_angle_beta     90
_cell_angle_gamma    120.001

_space_group_name_H-M_alt    "P 1"
_space_group_IT_number       1

loop_
  _space_group_symop_operation_xyz
  'x, y, z'

loop_
  _atom_site_type_symbol
  _atom_site_label
  _atom_site_symmetry_multiplicity
  _atom_site_fract_x
  _atom_site_fract_y
  _atom_site_fract_z
  _atom_site_occupancy
  In  In1       1.0  0.50000  0.00002  0.00000  1.0000
  In  In2       1.0  0.50000  0.50000  0.00000  1.0000
  In  In3       1.0  0.00001  0.50000  0.00000  1.0000
  In  In4       1.0  0.41800  0.20900  0.50000  1.0000
  In  In5       1.0  0.79100  0.20900  0.50000  1.0000
  In  In6       1.0  0.20900  0.41800  0.50000  1.0000
  In  In7       1.0  0.79100  0.58200  0.50000  1.0000
  In  In8       1.0  0.58200  0.79100  0.50000  1.0000
  In  In9       1.0  0.20900  0.79100  0.50000  1.0000
  K   K1        1.0  0.00000  0.00000  0.00000  1.0000
  Ni  Ni1       1.0  0.66700  0.33300  0.00000  1.0000
  Ni  Ni2       1.0  0.33300  0.66700  0.00000  1.0000
