data_image0
_chemical_formula_structural       As4Pd4S4
_chemical_formula_sum              "As4 Pd4 S4"
_cell_length_a       6.02651
_cell_length_b       6.02651
_cell_length_c       6.02651
_cell_angle_alpha    90
_cell_angle_beta     90
_cell_angle_gamma    90

_space_group_name_H-M_alt    "P 1"
_space_group_IT_number       1

loop_
  _space_group_symop_operation_xyz
  'x, y, z'

loop_
  _atom_site_type_symbol
  _atom_site_label
  _atom_site_symmetry_multiplicity
  _atom_site_fract_x
  _atom_site_fract_y
  _atom_site_fract_z
  _atom_site_occupancy
  As  As1       1.0  0.61300  0.88700  0.11300  1.0000
  As  As2       1.0  0.38700  0.38700  0.38700  1.0000
  As  As3       1.0  0.88700  0.11300  0.61300  1.0000
  As  As4       1.0  0.11300  0.61300  0.88700  1.0000
  Pd  Pd1       1.0  0.50000  0.50000  0.00000  1.0000
  Pd  Pd2       1.0  0.00045  0.00045  0.00045  1.0000
  Pd  Pd3       1.0  0.00000  0.50000  0.50000  1.0000
  Pd  Pd4       1.0  0.50000  0.00000  0.50000  1.0000
  S   S1        1.0  0.89300  0.39300  0.10700  1.0000
  S   S2        1.0  0.10700  0.89300  0.39300  1.0000
  S   S3        1.0  0.60700  0.60700  0.60700  1.0000
  S   S4        1.0  0.39300  0.10700  0.89300  1.0000
