data_image0
_chemical_formula_structural       F6K2O2Te2
_chemical_formula_sum              "F6 K2 O2 Te2"
_cell_length_a       4.37169
_cell_length_b       5.93679
_cell_length_c       7.41452
_cell_angle_alpha    90
_cell_angle_beta     109.588
_cell_angle_gamma    90

_space_group_name_H-M_alt    "P 1"
_space_group_IT_number       1

loop_
  _space_group_symop_operation_xyz
  'x, y, z'

loop_
  _atom_site_type_symbol
  _atom_site_label
  _atom_site_symmetry_multiplicity
  _atom_site_fract_x
  _atom_site_fract_y
  _atom_site_fract_z
  _atom_site_occupancy
  F   F1        1.0  0.32700  0.58100  0.01510  1.0000
  F   F2        1.0  0.05710  0.81600  0.25100  1.0000
  F   F3        1.0  0.59300  0.02220  0.34700  1.0000
  F   F4        1.0  0.40700  0.52200  0.65300  1.0000
  F   F5        1.0  0.94300  0.31600  0.74900  1.0000
  F   F6        1.0  0.67300  0.08130  0.98500  1.0000
  K   K1        1.0  0.69200  0.55400  0.38200  1.0000
  K   K2        1.0  0.30800  0.05370  0.61800  1.0000
  O   O1        1.0  0.10800  0.31200  0.27100  1.0000
  O   O2        1.0  0.89200  0.81200  0.72900  1.0000
  Te  Te1       1.0  0.17700  0.08200  0.12800  1.0000
  Te  Te2       1.0  0.82300  0.58200  0.87200  1.0000
