data_image0
_chemical_formula_structural       F6Sb2
_chemical_formula_sum              "F6 Sb2"
_cell_length_a       4.14739
_cell_length_b       4.14739
_cell_length_c       6.89357
_cell_angle_alpha    90
_cell_angle_beta     90
_cell_angle_gamma    114.053

_space_group_name_H-M_alt    "P 1"
_space_group_IT_number       1

loop_
  _space_group_symop_operation_xyz
  'x, y, z'

loop_
  _atom_site_type_symbol
  _atom_site_label
  _atom_site_symmetry_multiplicity
  _atom_site_fract_x
  _atom_site_fract_y
  _atom_site_fract_z
  _atom_site_occupancy
  F   F1        1.0  0.41200  0.02760  0.06920  1.0000
  F   F2        1.0  0.69000  0.63600  0.25000  1.0000
  F   F3        1.0  0.41200  0.02760  0.43100  1.0000
  F   F4        1.0  0.02760  0.41200  0.56900  1.0000
  F   F5        1.0  0.63600  0.69000  0.75000  1.0000
  F   F6        1.0  0.02760  0.41200  0.93100  1.0000
  Sb  Sb1       1.0  0.83900  0.22200  0.25000  1.0000
  Sb  Sb2       1.0  0.22200  0.83900  0.75000  1.0000
