data_image0
_chemical_formula_structural       CrI2
_chemical_formula_sum              "Cr1 I2"
_cell_length_a       3.9481
_cell_length_b       4.27186
_cell_length_c       7.1698
_cell_angle_alpha    101.307
_cell_angle_beta     105.982
_cell_angle_gamma    62.4769

_space_group_name_H-M_alt    "P 1"
_space_group_IT_number       1

loop_
  _space_group_symop_operation_xyz
  'x, y, z'

loop_
  _atom_site_type_symbol
  _atom_site_label
  _atom_site_symmetry_multiplicity
  _atom_site_fract_x
  _atom_site_fract_y
  _atom_site_fract_z
  _atom_site_occupancy
  Cr  Cr1       1.0  0.00000  0.00000  0.00000  1.0000
  I   I1        1.0  0.73200  0.77300  0.23600  1.0000
  I   I2        1.0  0.26800  0.22700  0.76400  1.0000
