data_image0
_chemical_formula_structural       C2Sm
_chemical_formula_sum              "C2 Sm1"
_cell_length_a       3.76813
_cell_length_b       3.76813
_cell_length_c       4.14927
_cell_angle_alpha    117.005
_cell_angle_beta     117.005
_cell_angle_gamma    90

_space_group_name_H-M_alt    "P 1"
_space_group_IT_number       1

loop_
  _space_group_symop_operation_xyz
  'x, y, z'

loop_
  _atom_site_type_symbol
  _atom_site_label
  _atom_site_symmetry_multiplicity
  _atom_site_fract_x
  _atom_site_fract_y
  _atom_site_fract_z
  _atom_site_occupancy
  C   C1        1.0  0.60200  0.60200  0.20400  1.0000
  C   C2        1.0  0.39800  0.39800  0.79600  1.0000
  Sm  Sm1       1.0  0.00000  0.00000  0.00000  1.0000
