data_image0
_chemical_formula_structural       Pt2V
_chemical_formula_sum              "Pt2 V1"
_cell_length_a       2.73179
_cell_length_b       3.80327
_cell_length_c       4.80526
_cell_angle_alpha    113.312
_cell_angle_beta     106.514
_cell_angle_gamma    90

_space_group_name_H-M_alt    "P 1"
_space_group_IT_number       1

loop_
  _space_group_symop_operation_xyz
  'x, y, z'

loop_
  _atom_site_type_symbol
  _atom_site_label
  _atom_site_symmetry_multiplicity
  _atom_site_fract_x
  _atom_site_fract_y
  _atom_site_fract_z
  _atom_site_occupancy
  Pt  Pt1       1.0  0.66000  0.66000  0.32000  1.0000
  Pt  Pt2       1.0  0.34000  0.34000  0.68000  1.0000
  V   V1        1.0  0.00000  0.00000  0.00000  1.0000
