data_image0
_chemical_formula_structural       Cs2O2
_chemical_formula_sum              "Cs2 O2"
_cell_length_a       4.2713
_cell_length_b       5.37437
_cell_length_c       5.37437
_cell_angle_alpha    92.2162
_cell_angle_beta     113.414
_cell_angle_gamma    66.5857

_space_group_name_H-M_alt    "P 1"
_space_group_IT_number       1

loop_
  _space_group_symop_operation_xyz
  'x, y, z'

loop_
  _atom_site_type_symbol
  _atom_site_label
  _atom_site_symmetry_multiplicity
  _atom_site_fract_x
  _atom_site_fract_y
  _atom_site_fract_z
  _atom_site_occupancy
  Cs  Cs1       1.0  0.00000  0.25100  0.25100  1.0000
  Cs  Cs2       1.0  0.00000  0.74900  0.74900  1.0000
  O   O1        1.0  0.38300  0.61700  0.38300  1.0000
  O   O2        1.0  0.61700  0.38300  0.61700  1.0000
