data_image0
_chemical_formula_structural       CuNaO2
_chemical_formula_sum              "Cu1 Na1 O2"
_cell_length_a       2.74465
_cell_length_b       6.63584
_cell_length_c       3.4277
_cell_angle_alpha    76.0259
_cell_angle_beta     113.618
_cell_angle_gamma    128.35

_space_group_name_H-M_alt    "P 1"
_space_group_IT_number       1

loop_
  _space_group_symop_operation_xyz
  'x, y, z'

loop_
  _atom_site_type_symbol
  _atom_site_label
  _atom_site_symmetry_multiplicity
  _atom_site_fract_x
  _atom_site_fract_y
  _atom_site_fract_z
  _atom_site_occupancy
  Cu  Cu1       1.0  0.00000  0.00000  0.00000  1.0000
  Na  Na1       1.0  0.50000  0.50000  0.50000  1.0000
  O   O1        1.0  0.21000  0.77400  0.09850  1.0000
  O   O2        1.0  0.79000  0.22600  0.90200  1.0000
