data_image0
_chemical_formula_structural       GeTeZn2
_chemical_formula_sum              "Ge1 Te1 Zn2"
_cell_length_a       4.85466
_cell_length_b       4.85466
_cell_length_c       4.85466
_cell_angle_alpha    59.7257
_cell_angle_beta     59.7257
_cell_angle_gamma    59.7257

_space_group_name_H-M_alt    "P 1"
_space_group_IT_number       1

loop_
  _space_group_symop_operation_xyz
  'x, y, z'

loop_
  _atom_site_type_symbol
  _atom_site_label
  _atom_site_symmetry_multiplicity
  _atom_site_fract_x
  _atom_site_fract_y
  _atom_site_fract_z
  _atom_site_occupancy
  Ge  Ge1       1.0  0.25000  0.25000  0.25000  1.0000
  Te  Te1       1.0  0.75000  0.75000  0.75000  1.0000
  Zn  Zn1       1.0  0.99900  0.99900  0.99900  1.0000
  Zn  Zn2       1.0  0.50100  0.50100  0.50100  1.0000
