data_image0
_chemical_formula_structural       CuN2Ta
_chemical_formula_sum              "Cu1 N2 Ta1"
_cell_length_a       3.13868
_cell_length_b       3.13868
_cell_length_c       6.11614
_cell_angle_alpha    90
_cell_angle_beta     104.868
_cell_angle_gamma    60

_space_group_name_H-M_alt    "P 1"
_space_group_IT_number       1

loop_
  _space_group_symop_operation_xyz
  'x, y, z'

loop_
  _atom_site_type_symbol
  _atom_site_label
  _atom_site_symmetry_multiplicity
  _atom_site_fract_x
  _atom_site_fract_y
  _atom_site_fract_z
  _atom_site_occupancy
  Cu  Cu1       1.0  0.00000  0.00000  0.00000  1.0000
  N   N1        1.0  0.21200  0.89400  0.31700  1.0000
  N   N2        1.0  0.78800  0.10600  0.68300  1.0000
  Ta  Ta1       1.0  0.00000  0.50000  0.50000  1.0000
