data_image0
_chemical_formula_structural       Cl6U2
_chemical_formula_sum              "Cl6 U2"
_cell_length_a       7.39669
_cell_length_b       7.4112
_cell_length_c       4.27356
_cell_angle_alpha    90
_cell_angle_beta     90
_cell_angle_gamma    119.937

_space_group_name_H-M_alt    "P 1"
_space_group_IT_number       1

loop_
  _space_group_symop_operation_xyz
  'x, y, z'

loop_
  _atom_site_type_symbol
  _atom_site_label
  _atom_site_symmetry_multiplicity
  _atom_site_fract_x
  _atom_site_fract_y
  _atom_site_fract_z
  _atom_site_occupancy
  Cl  Cl1       1.0  0.30100  0.38600  0.25000  1.0000
  Cl  Cl2       1.0  0.08510  0.69900  0.25000  1.0000
  Cl  Cl3       1.0  0.61400  0.91500  0.25000  1.0000
  Cl  Cl4       1.0  0.38600  0.08510  0.75000  1.0000
  Cl  Cl5       1.0  0.91500  0.30100  0.75000  1.0000
  Cl  Cl6       1.0  0.69900  0.61400  0.75000  1.0000
  U   U1        1.0  0.66600  0.33300  0.25000  1.0000
  U   U2        1.0  0.33400  0.66700  0.75000  1.0000
