data_image0
_chemical_formula_structural       N2NaNb
_chemical_formula_sum              "N2 Na1 Nb1"
_cell_length_a       3.13273
_cell_length_b       3.13273
_cell_length_c       5.93356
_cell_angle_alpha    74.6934
_cell_angle_beta     105.307
_cell_angle_gamma    120

_space_group_name_H-M_alt    "P 1"
_space_group_IT_number       1

loop_
  _space_group_symop_operation_xyz
  'x, y, z'

loop_
  _atom_site_type_symbol
  _atom_site_label
  _atom_site_symmetry_multiplicity
  _atom_site_fract_x
  _atom_site_fract_y
  _atom_site_fract_z
  _atom_site_occupancy
  N   N1        1.0  0.73200  0.26800  0.19700  1.0000
  N   N2        1.0  0.26800  0.73200  0.80300  1.0000
  Na  Na1       1.0  0.50000  0.50000  0.50000  1.0000
  Nb  Nb1       1.0  0.00000  0.00000  0.00000  1.0000
