data_image0
_chemical_formula_structural       Ru2Th2
_chemical_formula_sum              "Ru2 Th2"
_cell_length_a       3.88472
_cell_length_b       3.99241
_cell_length_c       6.13439
_cell_angle_alpha    90
_cell_angle_beta     71.5405
_cell_angle_gamma    90

_space_group_name_H-M_alt    "P 1"
_space_group_IT_number       1

loop_
  _space_group_symop_operation_xyz
  'x, y, z'

loop_
  _atom_site_type_symbol
  _atom_site_label
  _atom_site_symmetry_multiplicity
  _atom_site_fract_x
  _atom_site_fract_y
  _atom_site_fract_z
  _atom_site_occupancy
  Ru  Ru1       1.0  0.40700  0.75000  0.18700  1.0000
  Ru  Ru2       1.0  0.59300  0.25000  0.81300  1.0000
  Th  Th1       1.0  0.86300  0.25000  0.27400  1.0000
  Th  Th2       1.0  0.13700  0.75000  0.72600  1.0000
