data_image0
_chemical_formula_structural       Ba2Mn2Sb4
_chemical_formula_sum              "Ba2 Mn2 Sb4"
_cell_length_a       4.48333
_cell_length_b       4.48333
_cell_length_c       12.629
_cell_angle_alpha    100.224
_cell_angle_beta     100.224
_cell_angle_gamma    90

_space_group_name_H-M_alt    "P 1"
_space_group_IT_number       1

loop_
  _space_group_symop_operation_xyz
  'x, y, z'

loop_
  _atom_site_type_symbol
  _atom_site_label
  _atom_site_symmetry_multiplicity
  _atom_site_fract_x
  _atom_site_fract_y
  _atom_site_fract_z
  _atom_site_occupancy
  Ba  Ba1       1.0  0.11500  0.11500  0.23000  1.0000
  Ba  Ba2       1.0  0.88500  0.88500  0.77000  1.0000
  Mn  Mn1       1.0  0.75000  0.25000  0.50000  1.0000
  Mn  Mn2       1.0  0.25000  0.75000  0.50000  1.0000
  Sb  Sb1       1.0  0.50000  0.00000  0.00000  1.0000
  Sb  Sb2       1.0  0.00000  0.50000  0.00000  1.0000
  Sb  Sb3       1.0  0.68600  0.68600  0.37200  1.0000
  Sb  Sb4       1.0  0.31400  0.31400  0.62800  1.0000
