data_image0
_chemical_formula_structural       Hf2Ni2
_chemical_formula_sum              "Hf2 Ni2"
_cell_length_a       3.2374
_cell_length_b       4.07712
_cell_length_c       5.15398
_cell_angle_alpha    90
_cell_angle_beta     71.6954
_cell_angle_gamma    90

_space_group_name_H-M_alt    "P 1"
_space_group_IT_number       1

loop_
  _space_group_symop_operation_xyz
  'x, y, z'

loop_
  _atom_site_type_symbol
  _atom_site_label
  _atom_site_symmetry_multiplicity
  _atom_site_fract_x
  _atom_site_fract_y
  _atom_site_fract_z
  _atom_site_occupancy
  Hf  Hf1       1.0  0.86000  0.25000  0.28100  1.0000
  Hf  Hf2       1.0  0.14000  0.75000  0.71900  1.0000
  Ni  Ni1       1.0  0.41600  0.75000  0.16800  1.0000
  Ni  Ni2       1.0  0.58400  0.25000  0.83200  1.0000
