data_image0
_chemical_formula_structural       CuGaO2
_chemical_formula_sum              "Cu1 Ga1 O2"
_cell_length_a       5.98351
_cell_length_b       5.98351
_cell_length_c       5.98351
_cell_angle_alpha    28.8489
_cell_angle_beta     28.8489
_cell_angle_gamma    28.8489

_space_group_name_H-M_alt    "P 1"
_space_group_IT_number       1

loop_
  _space_group_symop_operation_xyz
  'x, y, z'

loop_
  _atom_site_type_symbol
  _atom_site_label
  _atom_site_symmetry_multiplicity
  _atom_site_fract_x
  _atom_site_fract_y
  _atom_site_fract_z
  _atom_site_occupancy
  Cu  Cu1       1.0  0.00000  0.00000  0.00000  1.0000
  Ga  Ga1       1.0  0.50000  0.50000  0.50000  1.0000
  O   O1        1.0  0.10700  0.10700  0.10700  1.0000
  O   O2        1.0  0.89300  0.89300  0.89300  1.0000
