data_image0
_chemical_formula_structural       Cl4F12
_chemical_formula_sum              "Cl4 F12"
_cell_length_a       7.65165
_cell_length_b       5.75312
_cell_length_c       3.94707
_cell_angle_alpha    90
_cell_angle_beta     90
_cell_angle_gamma    90

_space_group_name_H-M_alt    "P 1"
_space_group_IT_number       1

loop_
  _space_group_symop_operation_xyz
  'x, y, z'

loop_
  _atom_site_type_symbol
  _atom_site_label
  _atom_site_symmetry_multiplicity
  _atom_site_fract_x
  _atom_site_fract_y
  _atom_site_fract_z
  _atom_site_occupancy
  Cl  Cl1       1.0  0.16300  0.25000  0.40100  1.0000
  Cl  Cl2       1.0  0.33700  0.75000  0.90100  1.0000
  Cl  Cl3       1.0  0.66300  0.25000  0.09910  1.0000
  Cl  Cl4       1.0  0.83700  0.75000  0.59900  1.0000
  F   F1        1.0  0.03360  0.25000  0.07630  1.0000
  F   F2        1.0  0.46600  0.75000  0.57600  1.0000
  F   F3        1.0  0.53400  0.25000  0.42400  1.0000
  F   F4        1.0  0.96600  0.75000  0.92400  1.0000
  F   F5        1.0  0.15200  0.55000  0.37600  1.0000
  F   F6        1.0  0.34800  0.45000  0.87600  1.0000
  F   F7        1.0  0.65200  0.95000  0.12400  1.0000
  F   F8        1.0  0.84800  0.05020  0.62400  1.0000
  F   F9        1.0  0.84800  0.45000  0.62400  1.0000
  F   F10       1.0  0.65200  0.55000  0.12400  1.0000
  F   F11       1.0  0.34800  0.05020  0.87600  1.0000
  F   F12       1.0  0.15200  0.95000  0.37600  1.0000
