data_image0
_chemical_formula_structural       BrEu2P
_chemical_formula_sum              "Br1 Eu2 P1"
_cell_length_a       4.33562
_cell_length_b       4.33562
_cell_length_c       7.64879
_cell_angle_alpha    106.464
_cell_angle_beta     90
_cell_angle_gamma    60

_space_group_name_H-M_alt    "P 1"
_space_group_IT_number       1

loop_
  _space_group_symop_operation_xyz
  'x, y, z'

loop_
  _atom_site_type_symbol
  _atom_site_label
  _atom_site_symmetry_multiplicity
  _atom_site_fract_x
  _atom_site_fract_y
  _atom_site_fract_z
  _atom_site_occupancy
  Br  Br1       1.0  0.00000  0.00000  0.00000  1.0000
  Eu  Eu1       1.0  0.23700  0.52600  0.28900  1.0000
  Eu  Eu2       1.0  0.76300  0.47400  0.71100  1.0000
  P   P1        1.0  0.50000  0.00000  0.50000  1.0000
