data_image0
_chemical_formula_structural       BeCa3
_chemical_formula_sum              "Be1 Ca3"
_cell_length_a       5.99672
_cell_length_b       5.99672
_cell_length_c       5.99672
_cell_angle_alpha    130.206
_cell_angle_beta     130.206
_cell_angle_gamma    73.0783

_space_group_name_H-M_alt    "P 1"
_space_group_IT_number       1

loop_
  _space_group_symop_operation_xyz
  'x, y, z'

loop_
  _atom_site_type_symbol
  _atom_site_label
  _atom_site_symmetry_multiplicity
  _atom_site_fract_x
  _atom_site_fract_y
  _atom_site_fract_z
  _atom_site_occupancy
  Be  Be1       1.0  0.00000  0.00000  0.00000  1.0000
  Ca  Ca1       1.0  0.75000  0.25000  0.50000  1.0000
  Ca  Ca2       1.0  0.25000  0.75000  0.50000  1.0000
  Ca  Ca3       1.0  0.50000  0.50000  0.00000  1.0000
