data_image0
_chemical_formula_structural       Pr2Pt2
_chemical_formula_sum              "Pr2 Pt2"
_cell_length_a       3.92101
_cell_length_b       4.58477
_cell_length_c       5.8122
_cell_angle_alpha    90
_cell_angle_beta     70.287
_cell_angle_gamma    90

_space_group_name_H-M_alt    "P 1"
_space_group_IT_number       1

loop_
  _space_group_symop_operation_xyz
  'x, y, z'

loop_
  _atom_site_type_symbol
  _atom_site_label
  _atom_site_symmetry_multiplicity
  _atom_site_fract_x
  _atom_site_fract_y
  _atom_site_fract_z
  _atom_site_occupancy
  Pr  Pr1       1.0  0.86300  0.25000  0.27400  1.0000
  Pr  Pr2       1.0  0.13700  0.75000  0.72600  1.0000
  Pt  Pt1       1.0  0.41100  0.75000  0.17800  1.0000
  Pt  Pt2       1.0  0.58900  0.25000  0.82200  1.0000
