data_image0
_chemical_formula_structural       Cl6Ga2
_chemical_formula_sum              "Cl6 Ga2"
_cell_length_a       6.89451
_cell_length_b       6.94216
_cell_length_c       6.97866
_cell_angle_alpha    118.587
_cell_angle_beta     119.602
_cell_angle_gamma    60.2268

_space_group_name_H-M_alt    "P 1"
_space_group_IT_number       1

loop_
  _space_group_symop_operation_xyz
  'x, y, z'

loop_
  _atom_site_type_symbol
  _atom_site_label
  _atom_site_symmetry_multiplicity
  _atom_site_fract_x
  _atom_site_fract_y
  _atom_site_fract_z
  _atom_site_occupancy
  Cl  Cl1       1.0  0.26100  0.00000  0.00000  1.0000
  Cl  Cl2       1.0  0.73900  0.00000  0.00000  1.0000
  Cl  Cl3       1.0  0.82200  0.55100  0.19500  1.0000
  Cl  Cl4       1.0  0.30800  0.82400  0.43900  1.0000
  Cl  Cl5       1.0  0.69200  0.17600  0.56100  1.0000
  Cl  Cl6       1.0  0.17800  0.44900  0.80500  1.0000
  Ga  Ga1       1.0  0.65900  0.91200  0.23100  1.0000
  Ga  Ga2       1.0  0.34100  0.08760  0.76900  1.0000
