data_image0
_chemical_formula_structural       CsK3
_chemical_formula_sum              "Cs1 K3"
_cell_length_a       8.61907
_cell_length_b       8.61907
_cell_length_c       8.61907
_cell_angle_alpha    134.117
_cell_angle_beta     134.117
_cell_angle_gamma    66.9047

_space_group_name_H-M_alt    "P 1"
_space_group_IT_number       1

loop_
  _space_group_symop_operation_xyz
  'x, y, z'

loop_
  _atom_site_type_symbol
  _atom_site_label
  _atom_site_symmetry_multiplicity
  _atom_site_fract_x
  _atom_site_fract_y
  _atom_site_fract_z
  _atom_site_occupancy
  Cs  Cs1       1.0  0.00000  0.00000  0.00000  1.0000
  K   K1        1.0  0.75000  0.25000  0.50000  1.0000
  K   K2        1.0  0.25000  0.75000  0.50000  1.0000
  K   K3        1.0  0.50000  0.50000  0.00000  1.0000
