data_image0
_chemical_formula_structural       FeNaO2
_chemical_formula_sum              "Fe1 Na1 O2"
_cell_length_a       5.61357
_cell_length_b       5.61358
_cell_length_c       5.61358
_cell_angle_alpha    31.1371
_cell_angle_beta     31.1371
_cell_angle_gamma    31.1372

_space_group_name_H-M_alt    "P 1"
_space_group_IT_number       1

loop_
  _space_group_symop_operation_xyz
  'x, y, z'

loop_
  _atom_site_type_symbol
  _atom_site_label
  _atom_site_symmetry_multiplicity
  _atom_site_fract_x
  _atom_site_fract_y
  _atom_site_fract_z
  _atom_site_occupancy
  Fe  Fe1       1.0  0.50000  0.50000  0.50000  1.0000
  Na  Na1       1.0  0.00000  0.00000  0.00000  1.0000
  O   O1        1.0  0.23500  0.23500  0.23500  1.0000
  O   O2        1.0  0.76500  0.76500  0.76500  1.0000
