data_image0
_chemical_formula_structural       NaS2Y
_chemical_formula_sum              "Na1 S2 Y1"
_cell_length_a       3.97968
_cell_length_b       3.97968
_cell_length_c       7.04928
_cell_angle_alpha    106.396
_cell_angle_beta     106.396
_cell_angle_gamma    60

_space_group_name_H-M_alt    "P 1"
_space_group_IT_number       1

loop_
  _space_group_symop_operation_xyz
  'x, y, z'

loop_
  _atom_site_type_symbol
  _atom_site_label
  _atom_site_symmetry_multiplicity
  _atom_site_fract_x
  _atom_site_fract_y
  _atom_site_fract_z
  _atom_site_occupancy
  Na  Na1       1.0  0.50000  0.50000  0.50000  1.0000
  S   S1        1.0  0.74300  0.74300  0.22800  1.0000
  S   S2        1.0  0.25700  0.25700  0.77200  1.0000
  Y   Y1        1.0  0.00000  0.00000  0.00000  1.0000
