data_image0
_chemical_formula_structural       AuCa3
_chemical_formula_sum              "Au1 Ca3"
_cell_length_a       6.23903
_cell_length_b       6.23903
_cell_length_c       6.23903
_cell_angle_alpha    135.361
_cell_angle_beta     135.361
_cell_angle_gamma    64.9704

_space_group_name_H-M_alt    "P 1"
_space_group_IT_number       1

loop_
  _space_group_symop_operation_xyz
  'x, y, z'

loop_
  _atom_site_type_symbol
  _atom_site_label
  _atom_site_symmetry_multiplicity
  _atom_site_fract_x
  _atom_site_fract_y
  _atom_site_fract_z
  _atom_site_occupancy
  Au  Au1       1.0  0.00000  0.00000  0.00000  1.0000
  Ca  Ca1       1.0  0.75000  0.25000  0.50000  1.0000
  Ca  Ca2       1.0  0.25000  0.75000  0.50000  1.0000
  Ca  Ca3       1.0  0.50000  0.50000  0.00000  1.0000
