data_image0
_chemical_formula_structural       Au6Dy2
_chemical_formula_sum              "Au6 Dy2"
_cell_length_a       6.13308
_cell_length_b       5.01389
_cell_length_c       5.13071
_cell_angle_alpha    90
_cell_angle_beta     90
_cell_angle_gamma    90

_space_group_name_H-M_alt    "P 1"
_space_group_IT_number       1

loop_
  _space_group_symop_operation_xyz
  'x, y, z'

loop_
  _atom_site_type_symbol
  _atom_site_label
  _atom_site_symmetry_multiplicity
  _atom_site_fract_x
  _atom_site_fract_y
  _atom_site_fract_z
  _atom_site_occupancy
  Au  Au1       1.0  0.99400  0.25000  0.16100  1.0000
  Au  Au2       1.0  0.50600  0.25000  0.16100  1.0000
  Au  Au3       1.0  0.25000  0.75000  0.33400  1.0000
  Au  Au4       1.0  0.75000  0.25000  0.66600  1.0000
  Au  Au5       1.0  0.00638  0.75000  0.83900  1.0000
  Au  Au6       1.0  0.49400  0.75000  0.83900  1.0000
  Dy  Dy1       1.0  0.75000  0.75000  0.34500  1.0000
  Dy  Dy2       1.0  0.25000  0.25000  0.65500  1.0000
