data_image0
_chemical_formula_structural       Pd2Sn4Yb2
_chemical_formula_sum              "Pd2 Sn4 Yb2"
_cell_length_a       4.45782
_cell_length_b       5.96893
_cell_length_c       7.46772
_cell_angle_alpha    90
_cell_angle_beta     90
_cell_angle_gamma    68.0734

_space_group_name_H-M_alt    "P 1"
_space_group_IT_number       1

loop_
  _space_group_symop_operation_xyz
  'x, y, z'

loop_
  _atom_site_type_symbol
  _atom_site_label
  _atom_site_symmetry_multiplicity
  _atom_site_fract_x
  _atom_site_fract_y
  _atom_site_fract_z
  _atom_site_occupancy
  Pd  Pd1       1.0  0.29800  0.40400  0.25000  1.0000
  Pd  Pd2       1.0  0.70200  0.59600  0.75000  1.0000
  Sn  Sn1       1.0  0.86100  0.27900  0.04360  1.0000
  Sn  Sn2       1.0  0.86100  0.27900  0.45600  1.0000
  Sn  Sn3       1.0  0.13900  0.72100  0.54400  1.0000
  Sn  Sn4       1.0  0.13900  0.72100  0.95600  1.0000
  Yb  Yb1       1.0  0.57100  0.85800  0.25000  1.0000
  Yb  Yb2       1.0  0.42900  0.14200  0.75000  1.0000
