data_image0
_chemical_formula_structural       Li2Nd2Sn4
_chemical_formula_sum              "Li2 Nd2 Sn4"
_cell_length_a       4.50399
_cell_length_b       4.53871
_cell_length_c       9.80477
_cell_angle_alpha    90
_cell_angle_beta     76.7216
_cell_angle_gamma    90

_space_group_name_H-M_alt    "P 1"
_space_group_IT_number       1

loop_
  _space_group_symop_operation_xyz
  'x, y, z'

loop_
  _atom_site_type_symbol
  _atom_site_label
  _atom_site_symmetry_multiplicity
  _atom_site_fract_x
  _atom_site_fract_y
  _atom_site_fract_z
  _atom_site_occupancy
  Li  Li1       1.0  0.32400  0.75000  0.35100  1.0000
  Li  Li2       1.0  0.67600  0.25000  0.64900  1.0000
  Nd  Nd1       1.0  0.89300  0.25000  0.21400  1.0000
  Nd  Nd2       1.0  0.10700  0.75000  0.78600  1.0000
  Sn  Sn1       1.0  0.45600  0.75000  0.08840  1.0000
  Sn  Sn2       1.0  0.25000  0.25000  0.49900  1.0000
  Sn  Sn3       1.0  0.75000  0.75000  0.50100  1.0000
  Sn  Sn4       1.0  0.54400  0.25000  0.91200  1.0000
