data_image0
_chemical_formula_structural       AsCuSe2
_chemical_formula_sum              "As1 Cu1 Se2"
_cell_length_a       4.34114
_cell_length_b       4.34114
_cell_length_c       6.41024
_cell_angle_alpha    90
_cell_angle_beta     109.792
_cell_angle_gamma    60

_space_group_name_H-M_alt    "P 1"
_space_group_IT_number       1

loop_
  _space_group_symop_operation_xyz
  'x, y, z'

loop_
  _atom_site_type_symbol
  _atom_site_label
  _atom_site_symmetry_multiplicity
  _atom_site_fract_x
  _atom_site_fract_y
  _atom_site_fract_z
  _atom_site_occupancy
  As  As1       1.0  0.99100  0.00426  0.98700  1.0000
  Cu  Cu1       1.0  0.98400  0.50800  0.47600  1.0000
  Se  Se1       1.0  0.26400  0.86800  0.39600  1.0000
  Se  Se2       1.0  0.26300  0.36900  0.89400  1.0000
