data_image0
_chemical_formula_structural       La2Pd2Sn4
_chemical_formula_sum              "La2 Pd2 Sn4"
_cell_length_a       4.69095
_cell_length_b       4.5461
_cell_length_c       9.86853
_cell_angle_alpha    76.6833
_cell_angle_beta     90
_cell_angle_gamma    90

_space_group_name_H-M_alt    "P 1"
_space_group_IT_number       1

loop_
  _space_group_symop_operation_xyz
  'x, y, z'

loop_
  _atom_site_type_symbol
  _atom_site_label
  _atom_site_symmetry_multiplicity
  _atom_site_fract_x
  _atom_site_fract_y
  _atom_site_fract_z
  _atom_site_occupancy
  La  La1       1.0  0.25000  0.89200  0.21700  1.0000
  La  La2       1.0  0.75000  0.10900  0.78300  1.0000
  Pd  Pd1       1.0  0.75000  0.32300  0.35300  1.0000
  Pd  Pd2       1.0  0.25000  0.67700  0.64700  1.0000
  Sn  Sn1       1.0  0.75000  0.45900  0.08230  1.0000
  Sn  Sn2       1.0  0.25000  0.25200  0.49600  1.0000
  Sn  Sn3       1.0  0.75000  0.74800  0.50400  1.0000
  Sn  Sn4       1.0  0.25000  0.54100  0.91800  1.0000
