data_image0
_chemical_formula_structural       B6Mo2
_chemical_formula_sum              "B6 Mo2"
_cell_length_a       4.33771
_cell_length_b       4.33771
_cell_length_c       4.33771
_cell_angle_alpha    73.9678
_cell_angle_beta     106.032
_cell_angle_gamma    106.032

_space_group_name_H-M_alt    "P 1"
_space_group_IT_number       1

loop_
  _space_group_symop_operation_xyz
  'x, y, z'

loop_
  _atom_site_type_symbol
  _atom_site_label
  _atom_site_symmetry_multiplicity
  _atom_site_fract_x
  _atom_site_fract_y
  _atom_site_fract_z
  _atom_site_occupancy
  B   B1        1.0  0.33500  0.33500  0.00000  1.0000
  B   B2        1.0  0.66500  0.66500  0.00000  1.0000
  B   B3        1.0  0.33500  1.00000  0.33500  1.0000
  B   B4        1.0  0.00000  0.66500  0.33500  1.0000
  B   B5        1.0  0.00000  0.33500  0.66500  1.0000
  B   B6        1.0  0.66500  1.00000  0.66500  1.0000
  Mo  Mo1       1.0  0.83500  0.16500  0.16500  1.0000
  Mo  Mo2       1.0  0.16500  0.83500  0.83500  1.0000
