data_image0
_chemical_formula_structural       Li2Sn4Tm2
_chemical_formula_sum              "Li2 Sn4 Tm2"
_cell_length_a       4.33823
_cell_length_b       4.46654
_cell_length_c       9.74592
_cell_angle_alpha    90
_cell_angle_beta     77.1402
_cell_angle_gamma    90

_space_group_name_H-M_alt    "P 1"
_space_group_IT_number       1

loop_
  _space_group_symop_operation_xyz
  'x, y, z'

loop_
  _atom_site_type_symbol
  _atom_site_label
  _atom_site_symmetry_multiplicity
  _atom_site_fract_x
  _atom_site_fract_y
  _atom_site_fract_z
  _atom_site_occupancy
  Li  Li1       1.0  0.32600  0.75000  0.34800  1.0000
  Li  Li2       1.0  0.67400  0.25000  0.65200  1.0000
  Sn  Sn1       1.0  0.45500  0.75000  0.09070  1.0000
  Sn  Sn2       1.0  0.25200  0.25000  0.49600  1.0000
  Sn  Sn3       1.0  0.74800  0.75000  0.50400  1.0000
  Sn  Sn4       1.0  0.54500  0.25000  0.90900  1.0000
  Tm  Tm1       1.0  0.89200  0.25000  0.21600  1.0000
  Tm  Tm2       1.0  0.10800  0.75000  0.78400  1.0000
