data_image0
_chemical_formula_structural       Ca2Rh2Sn4
_chemical_formula_sum              "Ca2 Rh2 Sn4"
_cell_length_a       4.38146
_cell_length_b       5.85348
_cell_length_c       7.56595
_cell_angle_alpha    90
_cell_angle_beta     90
_cell_angle_gamma    68.0213

_space_group_name_H-M_alt    "P 1"
_space_group_IT_number       1

loop_
  _space_group_symop_operation_xyz
  'x, y, z'

loop_
  _atom_site_type_symbol
  _atom_site_label
  _atom_site_symmetry_multiplicity
  _atom_site_fract_x
  _atom_site_fract_y
  _atom_site_fract_z
  _atom_site_occupancy
  Ca  Ca1       1.0  0.93300  0.13300  0.25000  1.0000
  Ca  Ca2       1.0  0.06670  0.86700  0.75000  1.0000
  Rh  Rh1       1.0  0.21100  0.57800  0.25000  1.0000
  Rh  Rh2       1.0  0.78900  0.42200  0.75000  1.0000
  Sn  Sn1       1.0  0.64400  0.71100  0.04730  1.0000
  Sn  Sn2       1.0  0.64400  0.71100  0.45300  1.0000
  Sn  Sn3       1.0  0.35600  0.28900  0.54700  1.0000
  Sn  Sn4       1.0  0.35600  0.28900  0.95300  1.0000
