data_image0
_chemical_formula_structural       Ni2Pr2Sn4
_chemical_formula_sum              "Ni2 Pr2 Sn4"
_cell_length_a       4.57523
_cell_length_b       4.50114
_cell_length_c       9.38411
_cell_angle_alpha    76.1236
_cell_angle_beta     90
_cell_angle_gamma    90

_space_group_name_H-M_alt    "P 1"
_space_group_IT_number       1

loop_
  _space_group_symop_operation_xyz
  'x, y, z'

loop_
  _atom_site_type_symbol
  _atom_site_label
  _atom_site_symmetry_multiplicity
  _atom_site_fract_x
  _atom_site_fract_y
  _atom_site_fract_z
  _atom_site_occupancy
  Ni  Ni1       1.0  0.75000  0.31700  0.36500  1.0000
  Ni  Ni2       1.0  0.25000  0.68300  0.63500  1.0000
  Pr  Pr1       1.0  0.25000  0.89100  0.21900  1.0000
  Pr  Pr2       1.0  0.75000  0.10900  0.78100  1.0000
  Sn  Sn1       1.0  0.75000  0.45300  0.09370  1.0000
  Sn  Sn2       1.0  0.25000  0.25100  0.49900  1.0000
  Sn  Sn3       1.0  0.75000  0.74900  0.50100  1.0000
  Sn  Sn4       1.0  0.25000  0.54700  0.90600  1.0000
