data_image0
_chemical_formula_structural       Eu2Ir2Sn4
_chemical_formula_sum              "Eu2 Ir2 Sn4"
_cell_length_a       4.37732
_cell_length_b       5.98207
_cell_length_c       7.61037
_cell_angle_alpha    90
_cell_angle_beta     90
_cell_angle_gamma    68.5389

_space_group_name_H-M_alt    "P 1"
_space_group_IT_number       1

loop_
  _space_group_symop_operation_xyz
  'x, y, z'

loop_
  _atom_site_type_symbol
  _atom_site_label
  _atom_site_symmetry_multiplicity
  _atom_site_fract_x
  _atom_site_fract_y
  _atom_site_fract_z
  _atom_site_occupancy
  Eu  Eu1       1.0  0.93400  0.13300  0.25000  1.0000
  Eu  Eu2       1.0  0.06650  0.86700  0.75000  1.0000
  Ir  Ir1       1.0  0.21200  0.57500  0.25000  1.0000
  Ir  Ir2       1.0  0.78800  0.42500  0.75000  1.0000
  Sn  Sn1       1.0  0.64700  0.70600  0.04790  1.0000
  Sn  Sn2       1.0  0.64700  0.70600  0.45200  1.0000
  Sn  Sn3       1.0  0.35300  0.29400  0.54800  1.0000
  Sn  Sn4       1.0  0.35300  0.29400  0.95200  1.0000
