data_image0
_chemical_formula_structural       Sn4Tb2Zn2
_chemical_formula_sum              "Sn4 Tb2 Zn2"
_cell_length_a       4.37363
_cell_length_b       4.37363
_cell_length_c       9.84449
_cell_angle_alpha    90
_cell_angle_beta     90
_cell_angle_gamma    90

_space_group_name_H-M_alt    "P 1"
_space_group_IT_number       1

loop_
  _space_group_symop_operation_xyz
  'x, y, z'

loop_
  _atom_site_type_symbol
  _atom_site_label
  _atom_site_symmetry_multiplicity
  _atom_site_fract_x
  _atom_site_fract_y
  _atom_site_fract_z
  _atom_site_occupancy
  Sn  Sn1       1.0  0.25000  0.25000  0.18400  1.0000
  Sn  Sn2       1.0  0.75000  0.25000  0.50000  1.0000
  Sn  Sn3       1.0  0.25000  0.75000  0.50000  1.0000
  Sn  Sn4       1.0  0.75000  0.75000  0.81600  1.0000
  Tb  Tb1       1.0  0.75000  0.75000  0.24900  1.0000
  Tb  Tb2       1.0  0.25000  0.25000  0.75100  1.0000
  Zn  Zn1       1.0  0.75000  0.25000  0.00000  1.0000
  Zn  Zn2       1.0  0.25000  0.75000  0.00000  1.0000
