data_image0
_chemical_formula_structural       Cu2Pr2Sn4
_chemical_formula_sum              "Cu2 Pr2 Sn4"
_cell_length_a       4.61003
_cell_length_b       4.46721
_cell_length_c       9.68052
_cell_angle_alpha    76.6598
_cell_angle_beta     90
_cell_angle_gamma    90

_space_group_name_H-M_alt    "P 1"
_space_group_IT_number       1

loop_
  _space_group_symop_operation_xyz
  'x, y, z'

loop_
  _atom_site_type_symbol
  _atom_site_label
  _atom_site_symmetry_multiplicity
  _atom_site_fract_x
  _atom_site_fract_y
  _atom_site_fract_z
  _atom_site_occupancy
  Cu  Cu1       1.0  0.75000  0.32400  0.35200  1.0000
  Cu  Cu2       1.0  0.25000  0.67600  0.64800  1.0000
  Pr  Pr1       1.0  0.25000  0.89500  0.21000  1.0000
  Pr  Pr2       1.0  0.75000  0.10500  0.79000  1.0000
  Sn  Sn1       1.0  0.75000  0.45700  0.08560  1.0000
  Sn  Sn2       1.0  0.25000  0.25100  0.49800  1.0000
  Sn  Sn3       1.0  0.75000  0.74900  0.50200  1.0000
  Sn  Sn4       1.0  0.25000  0.54300  0.91400  1.0000
