data_image0
_chemical_formula_structural       Be3H
_chemical_formula_sum              "Be3 H1"
_cell_length_a       3.84377
_cell_length_b       3.84377
_cell_length_c       3.84377
_cell_angle_alpha    133.531
_cell_angle_beta     133.531
_cell_angle_gamma    67.8215

_space_group_name_H-M_alt    "P 1"
_space_group_IT_number       1

loop_
  _space_group_symop_operation_xyz
  'x, y, z'

loop_
  _atom_site_type_symbol
  _atom_site_label
  _atom_site_symmetry_multiplicity
  _atom_site_fract_x
  _atom_site_fract_y
  _atom_site_fract_z
  _atom_site_occupancy
  Be  Be1       1.0  0.75000  0.25000  0.50000  1.0000
  Be  Be2       1.0  0.25000  0.75000  0.50000  1.0000
  Be  Be3       1.0  0.50000  0.50000  0.00000  1.0000
  H   H1        1.0  0.00000  0.00000  0.00000  1.0000
