data_image0
_chemical_formula_structural       Dy2GdMn
_chemical_formula_sum              "Dy2 Gd1 Mn1"
_cell_length_a       5.13374
_cell_length_b       5.13374
_cell_length_c       5.13374
_cell_angle_alpha    59.9859
_cell_angle_beta     59.9859
_cell_angle_gamma    59.9859

_space_group_name_H-M_alt    "P 1"
_space_group_IT_number       1

loop_
  _space_group_symop_operation_xyz
  'x, y, z'

loop_
  _atom_site_type_symbol
  _atom_site_label
  _atom_site_symmetry_multiplicity
  _atom_site_fract_x
  _atom_site_fract_y
  _atom_site_fract_z
  _atom_site_occupancy
  Dy  Dy1       1.0  0.50000  0.50000  0.50000  1.0000
  Dy  Dy2       1.0  0.00003  0.00003  0.00003  1.0000
  Gd  Gd1       1.0  0.25000  0.25000  0.25000  1.0000
  Mn  Mn1       1.0  0.75000  0.75000  0.75000  1.0000
