data_image0
_chemical_formula_structural       Dy2Te6
_chemical_formula_sum              "Dy2 Te6"
_cell_length_a       4.33181
_cell_length_b       4.33269
_cell_length_c       13.2632
_cell_angle_alpha    80.5995
_cell_angle_beta     90
_cell_angle_gamma    90

_space_group_name_H-M_alt    "P 1"
_space_group_IT_number       1

loop_
  _space_group_symop_operation_xyz
  'x, y, z'

loop_
  _atom_site_type_symbol
  _atom_site_label
  _atom_site_symmetry_multiplicity
  _atom_site_fract_x
  _atom_site_fract_y
  _atom_site_fract_z
  _atom_site_occupancy
  Dy  Dy1       1.0  0.25000  0.82900  0.34200  1.0000
  Dy  Dy2       1.0  0.75000  0.17100  0.65800  1.0000
  Te  Te1       1.0  0.75000  0.92500  0.15100  1.0000
  Te  Te2       1.0  0.25000  0.42500  0.15100  1.0000
  Te  Te3       1.0  0.75000  0.29300  0.41300  1.0000
  Te  Te4       1.0  0.25000  0.70700  0.58700  1.0000
  Te  Te5       1.0  0.75000  0.57500  0.84900  1.0000
  Te  Te6       1.0  0.25000  0.07530  0.84900  1.0000
