data_image0
_chemical_formula_structural       Ba2P6
_chemical_formula_sum              "Ba2 P6"
_cell_length_a       4.79672
_cell_length_b       7.03927
_cell_length_c       7.03927
_cell_angle_alpha    66.5131
_cell_angle_beta     108.726
_cell_angle_gamma    108.726

_space_group_name_H-M_alt    "P 1"
_space_group_IT_number       1

loop_
  _space_group_symop_operation_xyz
  'x, y, z'

loop_
  _atom_site_type_symbol
  _atom_site_label
  _atom_site_symmetry_multiplicity
  _atom_site_fract_x
  _atom_site_fract_y
  _atom_site_fract_z
  _atom_site_occupancy
  Ba  Ba1       1.0  0.31600  0.17400  0.17400  1.0000
  Ba  Ba2       1.0  0.68400  0.82600  0.82600  1.0000
  P   P1        1.0  0.29000  0.65000  0.18400  1.0000
  P   P2        1.0  0.71000  0.81600  0.35000  1.0000
  P   P3        1.0  0.02010  0.40800  0.40800  1.0000
  P   P4        1.0  0.98000  0.59200  0.59200  1.0000
  P   P5        1.0  0.29000  0.18400  0.65000  1.0000
  P   P6        1.0  0.71000  0.35000  0.81600  1.0000
