data_image0
_chemical_formula_structural       GaHSiSr
_chemical_formula_sum              "Ga1 H1 Si1 Sr1"
_cell_length_a       4.17805
_cell_length_b       4.17813
_cell_length_c       4.98598
_cell_angle_alpha    90
_cell_angle_beta     89.9989
_cell_angle_gamma    120.001

_space_group_name_H-M_alt    "P 1"
_space_group_IT_number       1

loop_
  _space_group_symop_operation_xyz
  'x, y, z'

loop_
  _atom_site_type_symbol
  _atom_site_label
  _atom_site_symmetry_multiplicity
  _atom_site_fract_x
  _atom_site_fract_y
  _atom_site_fract_z
  _atom_site_occupancy
  Ga  Ga1       1.0  0.66700  0.33300  0.54900  1.0000
  H   H1        1.0  0.66700  0.33300  0.90300  1.0000
  Si  Si1       1.0  0.33300  0.66700  0.44400  1.0000
  Sr  Sr1       1.0  0.00000  0.00000  0.00000  1.0000
