data_image0
_chemical_formula_structural       N6Tl2
_chemical_formula_sum              "N6 Tl2"
_cell_length_a       5.64286
_cell_length_b       5.64286
_cell_length_c       5.64286
_cell_angle_alpha    101.02
_cell_angle_beta     113.855
_cell_angle_gamma    113.855

_space_group_name_H-M_alt    "P 1"
_space_group_IT_number       1

loop_
  _space_group_symop_operation_xyz
  'x, y, z'

loop_
  _atom_site_type_symbol
  _atom_site_label
  _atom_site_symmetry_multiplicity
  _atom_site_fract_x
  _atom_site_fract_y
  _atom_site_fract_z
  _atom_site_occupancy
  N   N1        1.0  0.50000  0.50000  0.00000  1.0000
  N   N2        1.0  0.50000  0.36300  0.13700  1.0000
  N   N3        1.0  0.22700  0.86300  0.36300  1.0000
  N   N4        1.0  0.50000  0.00000  0.50000  1.0000
  N   N5        1.0  0.77300  0.13700  0.63700  1.0000
  N   N6        1.0  0.50000  0.63700  0.86300  1.0000
  Tl  Tl1       1.0  0.00000  0.25000  0.25000  1.0000
  Tl  Tl2       1.0  0.00000  0.75000  0.75000  1.0000
