data_image0
_chemical_formula_structural       Cd6Dy2
_chemical_formula_sum              "Cd6 Dy2"
_cell_length_a       4.85205
_cell_length_b       6.47152
_cell_length_c       6.47152
_cell_angle_alpha    113.667
_cell_angle_beta     90
_cell_angle_gamma    90

_space_group_name_H-M_alt    "P 1"
_space_group_IT_number       1

loop_
  _space_group_symop_operation_xyz
  'x, y, z'

loop_
  _atom_site_type_symbol
  _atom_site_label
  _atom_site_symmetry_multiplicity
  _atom_site_fract_x
  _atom_site_fract_y
  _atom_site_fract_z
  _atom_site_occupancy
  Cd  Cd1       1.0  0.25000  0.31100  0.12100  1.0000
  Cd  Cd2       1.0  0.25000  0.82400  0.17600  1.0000
  Cd  Cd3       1.0  0.75000  0.12100  0.31100  1.0000
  Cd  Cd4       1.0  0.25000  0.87900  0.68900  1.0000
  Cd  Cd5       1.0  0.75000  0.17600  0.82400  1.0000
  Cd  Cd6       1.0  0.75000  0.68900  0.87900  1.0000
  Dy  Dy1       1.0  0.75000  0.63500  0.36500  1.0000
  Dy  Dy2       1.0  0.25000  0.36500  0.63500  1.0000
