data_image0
_chemical_formula_structural       CaGaGeH
_chemical_formula_sum              "Ca1 Ga1 Ge1 H1"
_cell_length_a       4.13882
_cell_length_b       4.13896
_cell_length_c       4.78215
_cell_angle_alpha    90
_cell_angle_beta     89.998
_cell_angle_gamma    120.001

_space_group_name_H-M_alt    "P 1"
_space_group_IT_number       1

loop_
  _space_group_symop_operation_xyz
  'x, y, z'

loop_
  _atom_site_type_symbol
  _atom_site_label
  _atom_site_symmetry_multiplicity
  _atom_site_fract_x
  _atom_site_fract_y
  _atom_site_fract_z
  _atom_site_occupancy
  Ca  Ca1       1.0  0.00000  0.00000  0.00000  1.0000
  Ga  Ga1       1.0  0.66700  0.33300  0.56500  1.0000
  Ge  Ge1       1.0  0.33300  0.66700  0.42400  1.0000
  H   H1        1.0  0.66700  0.33300  0.92900  1.0000
