data_image0
_chemical_formula_structural       Cl6Mo2
_chemical_formula_sum              "Cl6 Mo2"
_cell_length_a       5.86797
_cell_length_b       5.86797
_cell_length_c       6.3786
_cell_angle_alpha    99.5735
_cell_angle_beta     99.5735
_cell_angle_gamma    116.237

_space_group_name_H-M_alt    "P 1"
_space_group_IT_number       1

loop_
  _space_group_symop_operation_xyz
  'x, y, z'

loop_
  _atom_site_type_symbol
  _atom_site_label
  _atom_site_symmetry_multiplicity
  _atom_site_fract_x
  _atom_site_fract_y
  _atom_site_fract_z
  _atom_site_occupancy
  Cl  Cl1       1.0  0.91200  0.57200  0.22000  1.0000
  Cl  Cl2       1.0  0.57200  0.91200  0.22000  1.0000
  Cl  Cl3       1.0  0.24500  0.24500  0.26700  1.0000
  Cl  Cl4       1.0  0.75500  0.75500  0.73300  1.0000
  Cl  Cl5       1.0  0.42800  0.08760  0.78000  1.0000
  Cl  Cl6       1.0  0.08760  0.42800  0.78000  1.0000
  Mo  Mo1       1.0  0.85400  0.14600  1.00000  1.0000
  Mo  Mo2       1.0  0.14600  0.85400  1.00000  1.0000
