data_image0
_chemical_formula_structural       Ge9La3
_chemical_formula_sum              "Ge9 La3"
_cell_length_a       6.40537
_cell_length_b       6.40537
_cell_length_c       8.29325
_cell_angle_alpha    112.717
_cell_angle_beta     90
_cell_angle_gamma    120

_space_group_name_H-M_alt    "P 1"
_space_group_IT_number       1

loop_
  _space_group_symop_operation_xyz
  'x, y, z'

loop_
  _atom_site_type_symbol
  _atom_site_label
  _atom_site_symmetry_multiplicity
  _atom_site_fract_x
  _atom_site_fract_y
  _atom_site_fract_z
  _atom_site_occupancy
  Ge  Ge1       1.0  0.50000  1.00000  0.00000  1.0000
  Ge  Ge2       1.0  0.00000  0.50000  0.00000  1.0000
  Ge  Ge3       1.0  0.50000  0.50000  0.00000  1.0000
  Ge  Ge4       1.0  0.30300  0.02250  0.32600  1.0000
  Ge  Ge5       1.0  0.71900  0.02250  0.32600  1.0000
  Ge  Ge6       1.0  0.30300  0.60700  0.32600  1.0000
  Ge  Ge7       1.0  0.69700  0.39300  0.67400  1.0000
  Ge  Ge8       1.0  0.28100  0.97700  0.67400  1.0000
  Ge  Ge9       1.0  0.69700  0.97700  0.67400  1.0000
  La  La1       1.0  0.00000  0.00000  0.00000  1.0000
  La  La2       1.0  0.78300  0.56600  0.35000  1.0000
  La  La3       1.0  0.21700  0.43400  0.65000  1.0000
