data_image0
_chemical_formula_structural       Pt3Re
_chemical_formula_sum              "Pt3 Re1"
_cell_length_a       4.83048
_cell_length_b       4.83048
_cell_length_c       4.83048
_cell_angle_alpha    133.107
_cell_angle_beta     133.107
_cell_angle_gamma    68.4864

_space_group_name_H-M_alt    "P 1"
_space_group_IT_number       1

loop_
  _space_group_symop_operation_xyz
  'x, y, z'

loop_
  _atom_site_type_symbol
  _atom_site_label
  _atom_site_symmetry_multiplicity
  _atom_site_fract_x
  _atom_site_fract_y
  _atom_site_fract_z
  _atom_site_occupancy
  Pt  Pt1       1.0  0.75000  0.25000  0.50000  1.0000
  Pt  Pt2       1.0  0.25000  0.75000  0.50000  1.0000
  Pt  Pt3       1.0  0.50000  0.50000  0.00000  1.0000
  Re  Re1       1.0  0.00000  0.00000  0.00000  1.0000
