data_image0
_chemical_formula_structural       Be2Pd6
_chemical_formula_sum              "Be2 Pd6"
_cell_length_a       2.87004
_cell_length_b       5.005
_cell_length_c       7.65027
_cell_angle_alpha    90
_cell_angle_beta     90
_cell_angle_gamma    73.3385

_space_group_name_H-M_alt    "P 1"
_space_group_IT_number       1

loop_
  _space_group_symop_operation_xyz
  'x, y, z'

loop_
  _atom_site_type_symbol
  _atom_site_label
  _atom_site_symmetry_multiplicity
  _atom_site_fract_x
  _atom_site_fract_y
  _atom_site_fract_z
  _atom_site_occupancy
  Be  Be1       1.0  0.74400  0.51300  0.25000  1.0000
  Be  Be2       1.0  0.25600  0.48700  0.75000  1.0000
  Pd  Pd1       1.0  0.13500  0.72900  0.06100  1.0000
  Pd  Pd2       1.0  0.43100  0.13900  0.25000  1.0000
  Pd  Pd3       1.0  0.13500  0.72900  0.43900  1.0000
  Pd  Pd4       1.0  0.86500  0.27100  0.56100  1.0000
  Pd  Pd5       1.0  0.56900  0.86100  0.75000  1.0000
  Pd  Pd6       1.0  0.86500  0.27100  0.93900  1.0000
