data_image0
_chemical_formula_structural       Cl6Y2
_chemical_formula_sum              "Cl6 Y2"
_cell_length_a       6.47307
_cell_length_b       6.90982
_cell_length_c       6.90982
_cell_angle_alpha    119.867
_cell_angle_beta     100.537
_cell_angle_gamma    100.537

_space_group_name_H-M_alt    "P 1"
_space_group_IT_number       1

loop_
  _space_group_symop_operation_xyz
  'x, y, z'

loop_
  _atom_site_type_symbol
  _atom_site_label
  _atom_site_symmetry_multiplicity
  _atom_site_fract_x
  _atom_site_fract_y
  _atom_site_fract_z
  _atom_site_occupancy
  Cl  Cl1       1.0  0.75800  0.41800  0.05670  1.0000
  Cl  Cl2       1.0  0.25100  0.21700  0.21700  1.0000
  Cl  Cl3       1.0  0.75800  0.05670  0.41800  1.0000
  Cl  Cl4       1.0  0.24200  0.94300  0.58200  1.0000
  Cl  Cl5       1.0  0.74900  0.78300  0.78300  1.0000
  Cl  Cl6       1.0  0.24200  0.58200  0.94300  1.0000
  Y   Y1        1.0  0.00000  0.83400  0.16600  1.0000
  Y   Y2        1.0  0.00000  0.16600  0.83400  1.0000
