data_image0
_chemical_formula_structural       AgCuO2
_chemical_formula_sum              "Ag1 Cu1 O2"
_cell_length_a       2.80964
_cell_length_b       3.31981
_cell_length_c       5.81209
_cell_angle_alpha    105.724
_cell_angle_beta     90
_cell_angle_gamma    115.034

_space_group_name_H-M_alt    "P 1"
_space_group_IT_number       1

loop_
  _space_group_symop_operation_xyz
  'x, y, z'

loop_
  _atom_site_type_symbol
  _atom_site_label
  _atom_site_symmetry_multiplicity
  _atom_site_fract_x
  _atom_site_fract_y
  _atom_site_fract_z
  _atom_site_occupancy
  Ag  Ag1       1.0  0.00000  0.00000  0.00000  1.0000
  Cu  Cu1       1.0  0.50000  0.00000  0.50000  1.0000
  O   O1        1.0  0.85400  0.70800  0.29800  1.0000
  O   O2        1.0  0.14600  0.29200  0.70200  1.0000
