data_image0
_chemical_formula_structural       GdNaS2
_chemical_formula_sum              "Gd1 Na1 S2"
_cell_length_a       4.01297
_cell_length_b       4.01297
_cell_length_c       7.07041
_cell_angle_alpha    106.486
_cell_angle_beta     106.486
_cell_angle_gamma    60

_space_group_name_H-M_alt    "P 1"
_space_group_IT_number       1

loop_
  _space_group_symop_operation_xyz
  'x, y, z'

loop_
  _atom_site_type_symbol
  _atom_site_label
  _atom_site_symmetry_multiplicity
  _atom_site_fract_x
  _atom_site_fract_y
  _atom_site_fract_z
  _atom_site_occupancy
  Gd  Gd1       1.0  0.00000  0.00000  0.00000  1.0000
  Na  Na1       1.0  0.50000  0.50000  0.50000  1.0000
  S   S1        1.0  0.74300  0.74300  0.23000  1.0000
  S   S2        1.0  0.25700  0.25700  0.77000  1.0000
