data_image0
_chemical_formula_structural       Al4Gd2Ni2
_chemical_formula_sum              "Al4 Gd2 Ni2"
_cell_length_a       4.05932
_cell_length_b       5.55016
_cell_length_c       6.86746
_cell_angle_alpha    90
_cell_angle_beta     90
_cell_angle_gamma    68.5497

_space_group_name_H-M_alt    "P 1"
_space_group_IT_number       1

loop_
  _space_group_symop_operation_xyz
  'x, y, z'

loop_
  _atom_site_type_symbol
  _atom_site_label
  _atom_site_symmetry_multiplicity
  _atom_site_fract_x
  _atom_site_fract_y
  _atom_site_fract_z
  _atom_site_occupancy
  Al  Al1       1.0  0.65900  0.68200  0.05500  1.0000
  Al  Al2       1.0  0.65900  0.68200  0.44500  1.0000
  Al  Al3       1.0  0.34100  0.31800  0.55500  1.0000
  Al  Al4       1.0  0.34100  0.31800  0.94500  1.0000
  Gd  Gd1       1.0  0.94000  0.12000  0.25000  1.0000
  Gd  Gd2       1.0  0.06000  0.88000  0.75000  1.0000
  Ni  Ni1       1.0  0.21600  0.56800  0.25000  1.0000
  Ni  Ni2       1.0  0.78400  0.43200  0.75000  1.0000
