data_image0
_chemical_formula_structural       Al4Ni2Yb2
_chemical_formula_sum              "Al4 Ni2 Yb2"
_cell_length_a       4.09774
_cell_length_b       5.35701
_cell_length_c       7.12445
_cell_angle_alpha    90
_cell_angle_beta     90
_cell_angle_gamma    67.5136

_space_group_name_H-M_alt    "P 1"
_space_group_IT_number       1

loop_
  _space_group_symop_operation_xyz
  'x, y, z'

loop_
  _atom_site_type_symbol
  _atom_site_label
  _atom_site_symmetry_multiplicity
  _atom_site_fract_x
  _atom_site_fract_y
  _atom_site_fract_z
  _atom_site_occupancy
  Al  Al1       1.0  0.83700  0.32600  0.05690  1.0000
  Al  Al2       1.0  0.83700  0.32600  0.44300  1.0000
  Al  Al3       1.0  0.16300  0.67400  0.55700  1.0000
  Al  Al4       1.0  0.16300  0.67400  0.94300  1.0000
  Ni  Ni1       1.0  0.28000  0.44000  0.25000  1.0000
  Ni  Ni2       1.0  0.72000  0.56000  0.75000  1.0000
  Yb  Yb1       1.0  0.55400  0.89300  0.25000  1.0000
  Yb  Yb2       1.0  0.44600  0.10700  0.75000  1.0000
