data_image0
_chemical_formula_structural       Ge2P6
_chemical_formula_sum              "Ge2 P6"
_cell_length_a       5.27224
_cell_length_b       5.27224
_cell_length_c       5.27224
_cell_angle_alpha    84.7728
_cell_angle_beta     95.2272
_cell_angle_gamma    95.2272

_space_group_name_H-M_alt    "P 1"
_space_group_IT_number       1

loop_
  _space_group_symop_operation_xyz
  'x, y, z'

loop_
  _atom_site_type_symbol
  _atom_site_label
  _atom_site_symmetry_multiplicity
  _atom_site_fract_x
  _atom_site_fract_y
  _atom_site_fract_z
  _atom_site_occupancy
  Ge  Ge1       1.0  0.73600  0.26400  0.26400  1.0000
  Ge  Ge2       1.0  0.26400  0.73600  0.73600  1.0000
  P   P1        1.0  0.26100  0.21300  0.21300  1.0000
  P   P2        1.0  0.78700  0.73900  0.21300  1.0000
  P   P3        1.0  0.21300  0.78700  0.26100  1.0000
  P   P4        1.0  0.78700  0.21300  0.73900  1.0000
  P   P5        1.0  0.21300  0.26100  0.78700  1.0000
  P   P6        1.0  0.73900  0.78700  0.78700  1.0000
