data_image0
_chemical_formula_structural       Al4Ni2Tm2
_chemical_formula_sum              "Al4 Ni2 Tm2"
_cell_length_a       4.05554
_cell_length_b       5.37495
_cell_length_c       6.83907
_cell_angle_alpha    90
_cell_angle_beta     90
_cell_angle_gamma    67.8357

_space_group_name_H-M_alt    "P 1"
_space_group_IT_number       1

loop_
  _space_group_symop_operation_xyz
  'x, y, z'

loop_
  _atom_site_type_symbol
  _atom_site_label
  _atom_site_symmetry_multiplicity
  _atom_site_fract_x
  _atom_site_fract_y
  _atom_site_fract_z
  _atom_site_occupancy
  Al  Al1       1.0  0.34700  0.30600  0.05330  1.0000
  Al  Al2       1.0  0.34700  0.30600  0.44700  1.0000
  Al  Al3       1.0  0.65300  0.69400  0.55300  1.0000
  Al  Al4       1.0  0.65300  0.69400  0.94700  1.0000
  Ni  Ni1       1.0  0.78600  0.42800  0.25000  1.0000
  Ni  Ni2       1.0  0.21400  0.57200  0.75000  1.0000
  Tm  Tm1       1.0  0.06270  0.87500  0.25000  1.0000
  Tm  Tm2       1.0  0.93700  0.12500  0.75000  1.0000
