data_image0
_chemical_formula_structural       Al6Cu3Yb3
_chemical_formula_sum              "Al6 Cu3 Yb3"
_cell_length_a       5.46973
_cell_length_b       5.46973
_cell_length_c       9.09576
_cell_angle_alpha    90
_cell_angle_beta     107.498
_cell_angle_gamma    60

_space_group_name_H-M_alt    "P 1"
_space_group_IT_number       1

loop_
  _space_group_symop_operation_xyz
  'x, y, z'

loop_
  _atom_site_type_symbol
  _atom_site_label
  _atom_site_symmetry_multiplicity
  _atom_site_fract_x
  _atom_site_fract_y
  _atom_site_fract_z
  _atom_site_occupancy
  Al  Al1       1.0  0.65900  0.42000  0.23900  1.0000
  Al  Al2       1.0  0.65900  0.92100  0.23900  1.0000
  Al  Al3       1.0  0.16000  0.42000  0.23900  1.0000
  Al  Al4       1.0  0.84000  0.58000  0.76100  1.0000
  Al  Al5       1.0  0.34100  0.07910  0.76100  1.0000
  Al  Al6       1.0  0.34100  0.58000  0.76100  1.0000
  Cu  Cu1       1.0  0.66900  0.66600  0.00345  1.0000
  Cu  Cu2       1.0  0.00000  0.50000  0.50000  1.0000
  Cu  Cu3       1.0  0.33100  0.33400  0.99700  1.0000
  Yb  Yb1       1.0  0.00000  0.00000  0.00000  1.0000
  Yb  Yb2       1.0  0.28900  0.85600  0.43300  1.0000
  Yb  Yb3       1.0  0.71100  0.14400  0.56700  1.0000
