data_image0
_chemical_formula_structural       Al4Er2Ni2
_chemical_formula_sum              "Al4 Er2 Ni2"
_cell_length_a       4.05166
_cell_length_b       5.40609
_cell_length_c       6.84676
_cell_angle_alpha    90
_cell_angle_beta     90
_cell_angle_gamma    67.9923

_space_group_name_H-M_alt    "P 1"
_space_group_IT_number       1

loop_
  _space_group_symop_operation_xyz
  'x, y, z'

loop_
  _atom_site_type_symbol
  _atom_site_label
  _atom_site_symmetry_multiplicity
  _atom_site_fract_x
  _atom_site_fract_y
  _atom_site_fract_z
  _atom_site_occupancy
  Al  Al1       1.0  0.34600  0.30800  0.05380  1.0000
  Al  Al2       1.0  0.34600  0.30800  0.44600  1.0000
  Al  Al3       1.0  0.65400  0.69200  0.55400  1.0000
  Al  Al4       1.0  0.65400  0.69200  0.94600  1.0000
  Er  Er1       1.0  0.06300  0.87400  0.25000  1.0000
  Er  Er2       1.0  0.93700  0.12600  0.75000  1.0000
  Ni  Ni1       1.0  0.78600  0.42900  0.25000  1.0000
  Ni  Ni2       1.0  0.21400  0.57100  0.75000  1.0000
