data_image0
_chemical_formula_structural       Al4Ho2Ni2
_chemical_formula_sum              "Al4 Ho2 Ni2"
_cell_length_a       4.06019
_cell_length_b       5.4456
_cell_length_c       6.87983
_cell_angle_alpha    90
_cell_angle_beta     90
_cell_angle_gamma    68.1119

_space_group_name_H-M_alt    "P 1"
_space_group_IT_number       1

loop_
  _space_group_symop_operation_xyz
  'x, y, z'

loop_
  _atom_site_type_symbol
  _atom_site_label
  _atom_site_symmetry_multiplicity
  _atom_site_fract_x
  _atom_site_fract_y
  _atom_site_fract_z
  _atom_site_occupancy
  Al  Al1       1.0  0.65500  0.68900  0.05460  1.0000
  Al  Al2       1.0  0.65500  0.68900  0.44500  1.0000
  Al  Al3       1.0  0.34500  0.31100  0.55500  1.0000
  Al  Al4       1.0  0.34500  0.31100  0.94500  1.0000
  Ho  Ho1       1.0  0.93800  0.12400  0.25000  1.0000
  Ho  Ho2       1.0  0.06220  0.87600  0.75000  1.0000
  Ni  Ni1       1.0  0.21500  0.56900  0.25000  1.0000
  Ni  Ni2       1.0  0.78500  0.43100  0.75000  1.0000
