data_image0
_chemical_formula_structural       Cr2O6
_chemical_formula_sum              "Cr2 O6"
_cell_length_a       3.83854
_cell_length_b       4.75204
_cell_length_c       6.05832
_cell_angle_alpha    90
_cell_angle_beta     90
_cell_angle_gamma    66.1794

_space_group_name_H-M_alt    "P 1"
_space_group_IT_number       1

loop_
  _space_group_symop_operation_xyz
  'x, y, z'

loop_
  _atom_site_type_symbol
  _atom_site_label
  _atom_site_symmetry_multiplicity
  _atom_site_fract_x
  _atom_site_fract_y
  _atom_site_fract_z
  _atom_site_occupancy
  Cr  Cr1       1.0  0.47700  0.20200  0.25000  1.0000
  Cr  Cr2       1.0  0.67900  0.79800  0.75000  1.0000
  O   O1        1.0  0.49200  0.00000  0.00001  1.0000
  O   O2        1.0  0.02840  0.54900  0.25000  1.0000
  O   O3        1.0  0.90600  0.30500  0.25000  1.0000
  O   O4        1.0  0.49200  0.00000  0.50000  1.0000
  O   O5        1.0  0.57800  0.45100  0.75000  1.0000
  O   O6        1.0  0.21100  0.69500  0.75000  1.0000
