data_image0
_chemical_formula_structural       La3Rh9
_chemical_formula_sum              "La3 Rh9"
_cell_length_a       5.33685
_cell_length_b       5.33685
_cell_length_c       9.40153
_cell_angle_alpha    106.489
_cell_angle_beta     90
_cell_angle_gamma    120

_space_group_name_H-M_alt    "P 1"
_space_group_IT_number       1

loop_
  _space_group_symop_operation_xyz
  'x, y, z'

loop_
  _atom_site_type_symbol
  _atom_site_label
  _atom_site_symmetry_multiplicity
  _atom_site_fract_x
  _atom_site_fract_y
  _atom_site_fract_z
  _atom_site_occupancy
  La  La1       1.0  0.00000  0.00000  0.00000  1.0000
  La  La2       1.0  0.13900  0.27800  0.41600  1.0000
  La  La3       1.0  0.86100  0.72200  0.58400  1.0000
  Rh  Rh1       1.0  0.33200  0.66500  0.99700  1.0000
  Rh  Rh2       1.0  0.66800  0.33500  0.00278  1.0000
  Rh  Rh3       1.0  0.58000  0.16100  0.24300  1.0000
  Rh  Rh4       1.0  0.58000  0.66300  0.24300  1.0000
  Rh  Rh5       1.0  0.08270  0.66300  0.24300  1.0000
  Rh  Rh6       1.0  0.50000  0.00000  0.50000  1.0000
  Rh  Rh7       1.0  0.91700  0.33700  0.75700  1.0000
  Rh  Rh8       1.0  0.42000  0.33700  0.75700  1.0000
  Rh  Rh9       1.0  0.42000  0.83900  0.75700  1.0000
