data_image0
_chemical_formula_structural       C3CeH3O6
_chemical_formula_sum              "C3 Ce1 H3 O6"
_cell_length_a       4.07087
_cell_length_b       6.3008
_cell_length_c       6.3008
_cell_angle_alpha    115.495
_cell_angle_beta     102.437
_cell_angle_gamma    102.437

_space_group_name_H-M_alt    "P 1"
_space_group_IT_number       1

loop_
  _space_group_symop_operation_xyz
  'x, y, z'

loop_
  _atom_site_type_symbol
  _atom_site_label
  _atom_site_symmetry_multiplicity
  _atom_site_fract_x
  _atom_site_fract_y
  _atom_site_fract_z
  _atom_site_occupancy
  C   C1        1.0  0.39100  0.54100  1.00000  1.0000
  C   C2        1.0  0.85000  0.45900  0.45900  1.0000
  C   C3        1.0  0.39100  0.00000  0.54100  1.0000
  Ce  Ce1       1.0  0.00100  0.00000  0.00000  1.0000
  H   H1        1.0  0.62900  0.48400  0.00000  1.0000
  H   H2        1.0  0.62900  0.00000  0.48400  1.0000
  H   H3        1.0  0.14500  0.51600  0.51600  1.0000
  O   O1        1.0  0.41400  0.74600  0.00000  1.0000
  O   O2        1.0  0.11400  0.40400  0.00000  1.0000
  O   O3        1.0  0.66800  0.25400  0.25400  1.0000
  O   O4        1.0  0.11400  0.00000  0.40400  1.0000
  O   O5        1.0  0.71000  0.59600  0.59600  1.0000
  O   O6        1.0  0.41400  0.00000  0.74600  1.0000
