data_image0
_chemical_formula_structural       AlHLa2Ni9
_chemical_formula_sum              "Al1 H1 La2 Ni9"
_cell_length_a       4.97218
_cell_length_b       4.99078
_cell_length_c       8.0789
_cell_angle_alpha    90
_cell_angle_beta     89.9999
_cell_angle_gamma    119.529

_space_group_name_H-M_alt    "P 1"
_space_group_IT_number       1

loop_
  _space_group_symop_operation_xyz
  'x, y, z'

loop_
  _atom_site_type_symbol
  _atom_site_label
  _atom_site_symmetry_multiplicity
  _atom_site_fract_x
  _atom_site_fract_y
  _atom_site_fract_z
  _atom_site_occupancy
  Al  Al1       1.0  0.50700  0.50700  0.75000  1.0000
  H   H1        1.0  0.07710  0.21100  0.75000  1.0000
  La  La1       1.0  0.00501  0.00400  0.01600  1.0000
  La  La2       1.0  0.00502  0.00400  0.48400  1.0000
  Ni  Ni1       1.0  0.67000  0.33400  0.00178  1.0000
  Ni  Ni2       1.0  0.34100  0.68400  0.00248  1.0000
  Ni  Ni3       1.0  0.50600  0.00570  0.25000  1.0000
  Ni  Ni4       1.0  0.00361  0.50300  0.25000  1.0000
  Ni  Ni5       1.0  0.50300  0.50400  0.25000  1.0000
  Ni  Ni6       1.0  0.34100  0.68400  0.49800  1.0000
  Ni  Ni7       1.0  0.67000  0.33400  0.49800  1.0000
  Ni  Ni8       1.0  0.00395  0.49500  0.75000  1.0000
  Ni  Ni9       1.0  0.50400  0.00259  0.75000  1.0000
