data_image0
_chemical_formula_structural       C2Cl2H4HgN4
_chemical_formula_sum              "C2 Cl2 H4 Hg1 N4"
_cell_length_a       6.81324
_cell_length_b       6.8288
_cell_length_c       3.8542
_cell_angle_alpha    94.2773
_cell_angle_beta     96.5938
_cell_angle_gamma    78.7038

_space_group_name_H-M_alt    "P 1"
_space_group_IT_number       1

loop_
  _space_group_symop_operation_xyz
  'x, y, z'

loop_
  _atom_site_type_symbol
  _atom_site_label
  _atom_site_symmetry_multiplicity
  _atom_site_fract_x
  _atom_site_fract_y
  _atom_site_fract_z
  _atom_site_occupancy
  C   C1        1.0  0.47100  0.99100  0.96000  1.0000
  C   C2        1.0  0.42500  0.66100  0.96800  1.0000
  Cl  Cl1       1.0  0.01370  0.29000  0.40900  1.0000
  Cl  Cl2       1.0  0.91500  0.78500  0.50900  1.0000
  H   H1        1.0  0.35000  0.39100  0.02360  1.0000
  H   H2        1.0  0.18300  0.59900  0.18100  1.0000
  H   H3        1.0  0.68500  0.66000  0.74200  1.0000
  H   H4        1.0  0.62700  0.42500  0.79100  1.0000
  Hg  Hg1       1.0  0.95700  0.04220  0.95900  1.0000
  N   N1        1.0  0.36700  0.86100  0.02670  1.0000
  N   N2        1.0  0.30700  0.54200  0.05710  1.0000
  N   N3        1.0  0.59300  0.57700  0.82800  1.0000
  N   N4        1.0  0.55100  0.12400  0.91200  1.0000
