data_image0
_chemical_formula_structural       Cl2CuH4O4Pb2
_chemical_formula_sum              "Cl2 Cu1 H4 O4 Pb2"
_cell_length_a       5.834
_cell_length_b       5.834
_cell_length_c       5.48548
_cell_angle_alpha    90
_cell_angle_beta     90
_cell_angle_gamma    90

_space_group_name_H-M_alt    "P 1"
_space_group_IT_number       1

loop_
  _space_group_symop_operation_xyz
  'x, y, z'

loop_
  _atom_site_type_symbol
  _atom_site_label
  _atom_site_symmetry_multiplicity
  _atom_site_fract_x
  _atom_site_fract_y
  _atom_site_fract_z
  _atom_site_occupancy
  Cl  Cl1       1.0  0.50000  0.50000  0.41400  1.0000
  Cl  Cl2       1.0  0.00000  0.00000  0.49000  1.0000
  Cu  Cu1       1.0  0.00000  0.00000  0.03250  1.0000
  H   H1        1.0  0.30100  0.30100  0.12100  1.0000
  H   H2        1.0  0.69900  0.30100  0.12100  1.0000
  H   H3        1.0  0.30100  0.69900  0.12100  1.0000
  H   H4        1.0  0.69900  0.69900  0.12100  1.0000
  O   O1        1.0  0.23600  0.23600  0.97000  1.0000
  O   O2        1.0  0.76400  0.23600  0.97000  1.0000
  O   O3        1.0  0.23600  0.76400  0.97000  1.0000
  O   O4        1.0  0.76400  0.76400  0.97000  1.0000
  Pb  Pb1       1.0  0.50000  0.00000  0.72600  1.0000
  Pb  Pb2       1.0  0.00000  0.50000  0.72600  1.0000
