data_image0
_chemical_formula_structural       O8P2Sr3
_chemical_formula_sum              "O8 P2 Sr3"
_cell_length_a       7.2818
_cell_length_b       7.2818
_cell_length_c       7.2818
_cell_angle_alpha    43.2686
_cell_angle_beta     43.2686
_cell_angle_gamma    43.2686

_space_group_name_H-M_alt    "P 1"
_space_group_IT_number       1

loop_
  _space_group_symop_operation_xyz
  'x, y, z'

loop_
  _atom_site_type_symbol
  _atom_site_label
  _atom_site_symmetry_multiplicity
  _atom_site_fract_x
  _atom_site_fract_y
  _atom_site_fract_z
  _atom_site_occupancy
  O   O1        1.0  0.72400  0.72400  0.25100  1.0000
  O   O2        1.0  0.27600  0.74900  0.27600  1.0000
  O   O3        1.0  0.74900  0.27600  0.27600  1.0000
  O   O4        1.0  0.32900  0.32900  0.32900  1.0000
  O   O5        1.0  0.67100  0.67100  0.67100  1.0000
  O   O6        1.0  0.25100  0.72400  0.72400  1.0000
  O   O7        1.0  0.72400  0.25100  0.72400  1.0000
  O   O8        1.0  0.27600  0.27600  0.74900  1.0000
  P   P1        1.0  0.40700  0.40700  0.40700  1.0000
  P   P2        1.0  0.59300  0.59300  0.59300  1.0000
  Sr  Sr1       1.0  0.00000  0.00000  0.00000  1.0000
  Sr  Sr2       1.0  0.20700  0.20700  0.20700  1.0000
  Sr  Sr3       1.0  0.79300  0.79300  0.79300  1.0000
