data_image0
_chemical_formula_structural       MgPm5
_chemical_formula_sum              "Mg1 Pm5"
_cell_length_a       6.28601
_cell_length_b       6.28601
_cell_length_c       6.76502
_cell_angle_alpha    117.684
_cell_angle_beta     62.3159
_cell_angle_gamma    120

_space_group_name_H-M_alt    "P 1"
_space_group_IT_number       1

loop_
  _space_group_symop_operation_xyz
  'x, y, z'

loop_
  _atom_site_type_symbol
  _atom_site_label
  _atom_site_symmetry_multiplicity
  _atom_site_fract_x
  _atom_site_fract_y
  _atom_site_fract_z
  _atom_site_occupancy
  Mg  Mg1       1.0  0.83300  0.50000  0.50000  1.0000
  Pm  Pm1       1.0  0.98000  0.00000  0.00000  1.0000
  Pm  Pm2       1.0  0.68600  0.35300  0.00000  1.0000
  Pm  Pm3       1.0  0.33300  0.64700  0.00000  1.0000
  Pm  Pm4       1.0  0.16900  0.16400  0.49300  1.0000
  Pm  Pm5       1.0  0.49800  0.83600  0.50700  1.0000
