data_image0
_chemical_formula_structural       Eu5Mg
_chemical_formula_sum              "Eu5 Mg1"
_cell_length_a       6.66167
_cell_length_b       6.66167
_cell_length_c       7.40408
_cell_angle_alpha    116.735
_cell_angle_beta     63.265
_cell_angle_gamma    120

_space_group_name_H-M_alt    "P 1"
_space_group_IT_number       1

loop_
  _space_group_symop_operation_xyz
  'x, y, z'

loop_
  _atom_site_type_symbol
  _atom_site_label
  _atom_site_symmetry_multiplicity
  _atom_site_fract_x
  _atom_site_fract_y
  _atom_site_fract_z
  _atom_site_occupancy
  Eu  Eu1       1.0  0.33300  0.65700  0.00000  1.0000
  Eu  Eu2       1.0  0.99000  0.00000  0.00000  1.0000
  Eu  Eu3       1.0  0.67600  0.34300  0.00000  1.0000
  Eu  Eu4       1.0  0.16900  0.16400  0.49200  1.0000
  Eu  Eu5       1.0  0.49700  0.83600  0.50800  1.0000
  Mg  Mg1       1.0  0.83300  0.50000  0.50000  1.0000
