data_image0
_chemical_formula_structural       Cl8Mn3Na2
_chemical_formula_sum              "Cl8 Mn3 Na2"
_cell_length_a       7.43004
_cell_length_b       7.43004
_cell_length_c       7.78103
_cell_angle_alpha    118.519
_cell_angle_beta     61.4813
_cell_angle_gamma    120

_space_group_name_H-M_alt    "P 1"
_space_group_IT_number       1

loop_
  _space_group_symop_operation_xyz
  'x, y, z'

loop_
  _atom_site_type_symbol
  _atom_site_label
  _atom_site_symmetry_multiplicity
  _atom_site_fract_x
  _atom_site_fract_y
  _atom_site_fract_z
  _atom_site_occupancy
  Cl  Cl1       1.0  0.59500  0.40500  0.21600  1.0000
  Cl  Cl2       1.0  0.57900  0.89800  0.21800  1.0000
  Cl  Cl3       1.0  0.10200  0.42100  0.21800  1.0000
  Cl  Cl4       1.0  0.10200  0.89800  0.21800  1.0000
  Cl  Cl5       1.0  0.89800  0.10200  0.78200  1.0000
  Cl  Cl6       1.0  0.89800  0.57900  0.78200  1.0000
  Cl  Cl7       1.0  0.42100  0.10200  0.78200  1.0000
  Cl  Cl8       1.0  0.40500  0.59500  0.78400  1.0000
  Mn  Mn1       1.0  0.50000  0.00000  0.00000  1.0000
  Mn  Mn2       1.0  0.50000  0.50000  0.00000  1.0000
  Mn  Mn3       1.0  0.00000  0.50000  0.00000  1.0000
  Na  Na1       1.0  0.84100  0.15900  0.47800  1.0000
  Na  Na2       1.0  0.15900  0.84100  0.52200  1.0000
