data_image0
_chemical_formula_structural       Mo8P5
_chemical_formula_sum              "Mo8 P5"
_cell_length_a       9.47272
_cell_length_b       3.2081
_cell_length_c       6.56931
_cell_angle_alpha    90
_cell_angle_beta     109.366
_cell_angle_gamma    90

_space_group_name_H-M_alt    "P 1"
_space_group_IT_number       1

loop_
  _space_group_symop_operation_xyz
  'x, y, z'

loop_
  _atom_site_type_symbol
  _atom_site_label
  _atom_site_symmetry_multiplicity
  _atom_site_fract_x
  _atom_site_fract_y
  _atom_site_fract_z
  _atom_site_occupancy
  Mo  Mo1       1.0  0.00294  0.00000  0.00459  1.0000
  Mo  Mo2       1.0  0.49800  0.50000  0.13000  1.0000
  Mo  Mo3       1.0  0.78000  0.00000  0.23600  1.0000
  Mo  Mo4       1.0  0.30800  0.00000  0.35700  1.0000
  Mo  Mo5       1.0  0.05260  0.50000  0.39800  1.0000
  Mo  Mo6       1.0  0.78200  0.50000  0.61100  1.0000
  Mo  Mo7       1.0  0.24900  0.00000  0.79200  1.0000
  Mo  Mo8       1.0  0.57100  0.00000  0.79900  1.0000
  P   P1        1.0  0.20600  0.50000  0.06310  1.0000
  P   P2        1.0  0.57500  0.00000  0.42400  1.0000
  P   P3        1.0  0.98300  0.00000  0.62400  1.0000
  P   P4        1.0  0.37600  0.50000  0.65200  1.0000
  P   P5        1.0  0.78700  0.50000  0.97700  1.0000
