data_image0
_chemical_formula_structural       KO8Ru4
_chemical_formula_sum              "K1 O8 Ru4"
_cell_length_a       3.15821
_cell_length_b       7.09837
_cell_length_c       7.09837
_cell_angle_alpha    92.8366
_cell_angle_beta     77.1464
_cell_angle_gamma    102.854

_space_group_name_H-M_alt    "P 1"
_space_group_IT_number       1

loop_
  _space_group_symop_operation_xyz
  'x, y, z'

loop_
  _atom_site_type_symbol
  _atom_site_label
  _atom_site_symmetry_multiplicity
  _atom_site_fract_x
  _atom_site_fract_y
  _atom_site_fract_z
  _atom_site_occupancy
  K   K1        1.0  0.50000  0.00000  0.00000  1.0000
  O   O1        1.0  0.80500  0.66200  0.05130  1.0000
  O   O2        1.0  0.54800  0.38900  0.29400  1.0000
  O   O3        1.0  0.85700  0.05130  0.33800  1.0000
  O   O4        1.0  0.15900  0.70600  0.38900  1.0000
  O   O5        1.0  0.84100  0.29400  0.61100  1.0000
  O   O6        1.0  0.14300  0.94900  0.66200  1.0000
  O   O7        1.0  0.45200  0.61100  0.70600  1.0000
  O   O8        1.0  0.19500  0.33800  0.94900  1.0000
  Ru  Ru1       1.0  0.17000  0.52000  0.18000  1.0000
  Ru  Ru2       1.0  0.35000  0.18000  0.48000  1.0000
  Ru  Ru3       1.0  0.65000  0.82000  0.52000  1.0000
  Ru  Ru4       1.0  0.83000  0.48000  0.82000  1.0000
