data_image0
_chemical_formula_structural       Cu2Mn3O8
_chemical_formula_sum              "Cu2 Mn3 O8"
_cell_length_a       4.93008
_cell_length_b       5.56735
_cell_length_c       5.56735
_cell_angle_alpha    61.0335
_cell_angle_beta     99.9736
_cell_angle_gamma    99.9736

_space_group_name_H-M_alt    "P 1"
_space_group_IT_number       1

loop_
  _space_group_symop_operation_xyz
  'x, y, z'

loop_
  _atom_site_type_symbol
  _atom_site_label
  _atom_site_symmetry_multiplicity
  _atom_site_fract_x
  _atom_site_fract_y
  _atom_site_fract_z
  _atom_site_occupancy
  Cu  Cu1       1.0  0.42700  0.28100  0.28100  1.0000
  Cu  Cu2       1.0  0.57300  0.71900  0.71900  1.0000
  Mn  Mn1       1.0  0.50000  0.00000  0.00000  1.0000
  Mn  Mn2       1.0  0.00000  0.74200  0.25800  1.0000
  Mn  Mn3       1.0  0.00000  0.25800  0.74200  1.0000
  O   O1        1.0  0.86700  0.10400  0.10400  1.0000
  O   O2        1.0  0.63300  0.65200  0.11100  1.0000
  O   O3        1.0  0.36700  0.88900  0.34800  1.0000
  O   O4        1.0  0.10900  0.39300  0.39300  1.0000
  O   O5        1.0  0.89100  0.60700  0.60700  1.0000
  O   O6        1.0  0.63300  0.11100  0.65200  1.0000
  O   O7        1.0  0.36700  0.34800  0.88900  1.0000
  O   O8        1.0  0.13300  0.89600  0.89600  1.0000
