data_image0
_chemical_formula_structural       As2BaNi2O8
_chemical_formula_sum              "As2 Ba1 Ni2 O8"
_cell_length_a       4.95469
_cell_length_b       4.95469
_cell_length_c       8.26341
_cell_angle_alpha    72.5546
_cell_angle_beta     107.445
_cell_angle_gamma    120

_space_group_name_H-M_alt    "P 1"
_space_group_IT_number       1

loop_
  _space_group_symop_operation_xyz
  'x, y, z'

loop_
  _atom_site_type_symbol
  _atom_site_label
  _atom_site_symmetry_multiplicity
  _atom_site_fract_x
  _atom_site_fract_y
  _atom_site_fract_z
  _atom_site_occupancy
  As  As1       1.0  0.42600  0.57400  0.27700  1.0000
  As  As2       1.0  0.57400  0.42600  0.72300  1.0000
  Ba  Ba1       1.0  0.00000  0.00000  0.00000  1.0000
  Ni  Ni1       1.0  0.83100  0.16900  0.49300  1.0000
  Ni  Ni2       1.0  0.16900  0.83100  0.50700  1.0000
  O   O1        1.0  0.35300  0.64700  0.05970  1.0000
  O   O2        1.0  0.78700  0.56100  0.34500  1.0000
  O   O3        1.0  0.43900  0.88100  0.34500  1.0000
  O   O4        1.0  0.11900  0.21300  0.34500  1.0000
  O   O5        1.0  0.88100  0.78700  0.65500  1.0000
  O   O6        1.0  0.56100  0.11900  0.65500  1.0000
  O   O7        1.0  0.21300  0.43900  0.65500  1.0000
  O   O8        1.0  0.64700  0.35300  0.94000  1.0000
