data_image0
_chemical_formula_structural       AlMo4S8
_chemical_formula_sum              "Al1 Mo4 S8"
_cell_length_a       6.89016
_cell_length_b       6.89016
_cell_length_c       6.89016
_cell_angle_alpha    60.6139
_cell_angle_beta     60.6139
_cell_angle_gamma    60.6139

_space_group_name_H-M_alt    "P 1"
_space_group_IT_number       1

loop_
  _space_group_symop_operation_xyz
  'x, y, z'

loop_
  _atom_site_type_symbol
  _atom_site_label
  _atom_site_symmetry_multiplicity
  _atom_site_fract_x
  _atom_site_fract_y
  _atom_site_fract_z
  _atom_site_occupancy
  Al  Al1       1.0  0.00263  0.00263  0.00263  1.0000
  Mo  Mo1       1.0  0.39900  0.81300  0.39900  1.0000
  Mo  Mo2       1.0  0.81300  0.39900  0.39900  1.0000
  Mo  Mo3       1.0  0.40400  0.40400  0.40400  1.0000
  Mo  Mo4       1.0  0.39900  0.39900  0.81300  1.0000
  S   S1        1.0  0.64000  0.64000  0.10100  1.0000
  S   S2        1.0  0.13800  0.13800  0.13800  1.0000
  S   S3        1.0  0.60000  0.14000  0.14000  1.0000
  S   S4        1.0  0.14000  0.60000  0.14000  1.0000
  S   S5        1.0  0.14000  0.14000  0.60000  1.0000
  S   S6        1.0  0.63600  0.63600  0.63600  1.0000
  S   S7        1.0  0.10100  0.64000  0.64000  1.0000
  S   S8        1.0  0.64000  0.10100  0.64000  1.0000
