data_image0
_chemical_formula_structural       Cu3O8P2
_chemical_formula_sum              "Cu3 O8 P2"
_cell_length_a       4.8172
_cell_length_b       5.25038
_cell_length_c       6.17554
_cell_angle_alpha    72.2347
_cell_angle_beta     86.6771
_cell_angle_gamma    68.9587

_space_group_name_H-M_alt    "P 1"
_space_group_IT_number       1

loop_
  _space_group_symop_operation_xyz
  'x, y, z'

loop_
  _atom_site_type_symbol
  _atom_site_label
  _atom_site_symmetry_multiplicity
  _atom_site_fract_x
  _atom_site_fract_y
  _atom_site_fract_z
  _atom_site_occupancy
  Cu  Cu1       1.0  0.00000  0.00000  0.00000  1.0000
  Cu  Cu2       1.0  0.27700  0.23100  0.31300  1.0000
  Cu  Cu3       1.0  0.72300  0.76900  0.68700  1.0000
  O   O1        1.0  0.23000  0.22100  0.00822  1.0000
  O   O2        1.0  0.32900  0.64900  0.17000  1.0000
  O   O3        1.0  0.84400  0.34200  0.34300  1.0000
  O   O4        1.0  0.62600  0.85300  0.36500  1.0000
  O   O5        1.0  0.37400  0.14700  0.63500  1.0000
  O   O6        1.0  0.15600  0.65800  0.65700  1.0000
  O   O7        1.0  0.67100  0.35100  0.83000  1.0000
  O   O8        1.0  0.77000  0.77900  0.99200  1.0000
  P   P1        1.0  0.64200  0.64700  0.22200  1.0000
  P   P2        1.0  0.35800  0.35300  0.77800  1.0000
