data_image0
_chemical_formula_structural       LiMo3O8Sc
_chemical_formula_sum              "Li1 Mo3 O8 Sc1"
_cell_length_a       5.74515
_cell_length_b       5.74479
_cell_length_c       4.93489
_cell_angle_alpha    90
_cell_angle_beta     89.9982
_cell_angle_gamma    119.998

_space_group_name_H-M_alt    "P 1"
_space_group_IT_number       1

loop_
  _space_group_symop_operation_xyz
  'x, y, z'

loop_
  _atom_site_type_symbol
  _atom_site_label
  _atom_site_symmetry_multiplicity
  _atom_site_fract_x
  _atom_site_fract_y
  _atom_site_fract_z
  _atom_site_occupancy
  Li  Li1       1.0  0.66700  0.33300  0.69500  1.0000
  Mo  Mo1       1.0  0.29400  0.14700  0.25200  1.0000
  Mo  Mo2       1.0  0.85300  0.70600  0.25200  1.0000
  Mo  Mo3       1.0  0.85300  0.14700  0.25200  1.0000
  O   O1        1.0  0.66400  0.83200  0.00889  1.0000
  O   O2        1.0  0.16800  0.33600  0.00890  1.0000
  O   O3        1.0  0.16800  0.83200  0.00890  1.0000
  O   O4        1.0  0.66700  0.33300  0.05490  1.0000
  O   O5        1.0  0.50600  0.49400  0.48400  1.0000
  O   O6        1.0  0.50600  0.01140  0.48400  1.0000
  O   O7        1.0  0.98900  0.49400  0.48400  1.0000
  O   O8        1.0  0.00001  0.00001  0.53900  1.0000
  Sc  Sc1       1.0  0.33300  0.66700  0.72800  1.0000
