data_image0
_chemical_formula_structural       Mo2Ti2
_chemical_formula_sum              "Mo2 Ti2"
_cell_length_a       2.67103
_cell_length_b       5.11204
_cell_length_c       5.69338
_cell_angle_alpha    116.676
_cell_angle_beta     103.566
_cell_angle_gamma    90

_space_group_name_H-M_alt    "P 1"
_space_group_IT_number       1

loop_
  _space_group_symop_operation_xyz
  'x, y, z'

loop_
  _atom_site_type_symbol
  _atom_site_label
  _atom_site_symmetry_multiplicity
  _atom_site_fract_x
  _atom_site_fract_y
  _atom_site_fract_z
  _atom_site_occupancy
  Mo  Mo1       1.0  0.87400  0.62400  0.24900  1.0000
  Mo  Mo2       1.0  0.12600  0.37600  0.75100  1.0000
  Ti  Ti1       1.0  0.86800  0.11800  0.23500  1.0000
  Ti  Ti2       1.0  0.13200  0.88200  0.76500  1.0000
