data_image0
_chemical_formula_structural       GaMo4Se8
_chemical_formula_sum              "Ga1 Mo4 Se8"
_cell_length_a       7.27431
_cell_length_b       7.27431
_cell_length_c       7.27431
_cell_angle_alpha    120
_cell_angle_beta     90
_cell_angle_gamma    120

_space_group_name_H-M_alt    "P 1"
_space_group_IT_number       1

loop_
  _space_group_symop_operation_xyz
  'x, y, z'

loop_
  _atom_site_type_symbol
  _atom_site_label
  _atom_site_symmetry_multiplicity
  _atom_site_fract_x
  _atom_site_fract_y
  _atom_site_fract_z
  _atom_site_occupancy
  Ga  Ga1       1.0  0.00000  0.00000  0.00000  1.0000
  Mo  Mo1       1.0  0.20000  0.80000  0.40000  1.0000
  Mo  Mo2       1.0  0.60000  0.80000  0.40000  1.0000
  Mo  Mo3       1.0  0.60000  0.20000  0.40000  1.0000
  Mo  Mo4       1.0  0.60000  0.20000  0.80000  1.0000
  Se  Se1       1.0  0.36400  0.72900  0.09290  1.0000
  Se  Se2       1.0  0.41200  0.27500  0.13700  1.0000
  Se  Se3       1.0  0.86300  0.27500  0.13700  1.0000
  Se  Se4       1.0  0.86300  0.72500  0.13700  1.0000
  Se  Se5       1.0  0.86300  0.72500  0.58800  1.0000
  Se  Se6       1.0  0.36400  0.27100  0.63600  1.0000
  Se  Se7       1.0  0.36400  0.72900  0.63600  1.0000
  Se  Se8       1.0  0.90700  0.27100  0.63600  1.0000
