data_image0
_chemical_formula_structural       As2CuO8Zn2
_chemical_formula_sum              "As2 Cu1 O8 Zn2"
_cell_length_a       5.09272
_cell_length_b       6.68697
_cell_length_c       5.29462
_cell_angle_alpha    110.962
_cell_angle_beta     112.018
_cell_angle_gamma    86.1426

_space_group_name_H-M_alt    "P 1"
_space_group_IT_number       1

loop_
  _space_group_symop_operation_xyz
  'x, y, z'

loop_
  _atom_site_type_symbol
  _atom_site_label
  _atom_site_symmetry_multiplicity
  _atom_site_fract_x
  _atom_site_fract_y
  _atom_site_fract_z
  _atom_site_occupancy
  As  As1       1.0  0.86600  0.27500  0.13500  1.0000
  As  As2       1.0  0.13400  0.72500  0.86500  1.0000
  Cu  Cu1       1.0  0.50000  0.50000  0.50000  1.0000
  O   O1        1.0  0.18900  0.33600  0.12700  1.0000
  O   O2        1.0  0.36300  0.85300  0.21200  1.0000
  O   O3        1.0  0.73100  0.51200  0.29400  1.0000
  O   O4        1.0  0.90600  0.12100  0.34400  1.0000
  O   O5        1.0  0.09390  0.87900  0.65600  1.0000
  O   O6        1.0  0.26900  0.48800  0.70600  1.0000
  O   O7        1.0  0.63700  0.14700  0.78800  1.0000
  O   O8        1.0  0.81100  0.66400  0.87300  1.0000
  Zn  Zn1       1.0  0.76500  0.81600  0.26700  1.0000
  Zn  Zn2       1.0  0.23500  0.18400  0.73300  1.0000
