data_image0
_chemical_formula_structural       Cu4Si6Zr3
_chemical_formula_sum              "Cu4 Si6 Zr3"
_cell_length_a       3.72954
_cell_length_b       3.72954
_cell_length_c       14.3575
_cell_angle_alpha    97.4628
_cell_angle_beta     97.4628
_cell_angle_gamma    90

_space_group_name_H-M_alt    "P 1"
_space_group_IT_number       1

loop_
  _space_group_symop_operation_xyz
  'x, y, z'

loop_
  _atom_site_type_symbol
  _atom_site_label
  _atom_site_symmetry_multiplicity
  _atom_site_fract_x
  _atom_site_fract_y
  _atom_site_fract_z
  _atom_site_occupancy
  Cu  Cu1       1.0  0.59000  0.09020  0.18000  1.0000
  Cu  Cu2       1.0  0.09020  0.59000  0.18000  1.0000
  Cu  Cu3       1.0  0.91000  0.41000  0.82000  1.0000
  Cu  Cu4       1.0  0.41000  0.91000  0.82000  1.0000
  Si  Si1       1.0  0.54100  0.54100  0.08150  1.0000
  Si  Si2       1.0  0.14600  0.14600  0.29200  1.0000
  Si  Si3       1.0  0.75000  0.25000  0.50000  1.0000
  Si  Si4       1.0  0.25000  0.75000  0.50000  1.0000
  Si  Si5       1.0  0.85400  0.85400  0.70800  1.0000
  Si  Si6       1.0  0.45900  0.45900  0.91800  1.0000
  Zr  Zr1       1.0  0.00000  0.00000  0.00000  1.0000
  Zr  Zr2       1.0  0.67500  0.67500  0.34900  1.0000
  Zr  Zr3       1.0  0.32500  0.32500  0.65100  1.0000
