data_image0
_chemical_formula_structural       Nb6Se18
_chemical_formula_sum              "Nb6 Se18"
_cell_length_a       10.109
_cell_length_b       3.49921
_cell_length_c       15.739
_cell_angle_alpha    90
_cell_angle_beta     109.602
_cell_angle_gamma    90

_space_group_name_H-M_alt    "P 1"
_space_group_IT_number       1

loop_
  _space_group_symop_operation_xyz
  'x, y, z'

loop_
  _atom_site_type_symbol
  _atom_site_label
  _atom_site_symmetry_multiplicity
  _atom_site_fract_x
  _atom_site_fract_y
  _atom_site_fract_z
  _atom_site_occupancy
  Nb  Nb1       1.0  0.56100  0.00000  0.94900  1.0000
  Nb  Nb2       1.0  0.53300  0.00000  0.27400  1.0000
  Nb  Nb3       1.0  0.17100  0.00000  0.61800  1.0000
  Nb  Nb4       1.0  0.19500  0.50000  0.36300  1.0000
  Nb  Nb5       1.0  0.58600  0.50000  0.69400  1.0000
  Nb  Nb6       1.0  0.22400  0.50000  0.03820  1.0000
  Se  Se1       1.0  0.70000  0.50000  0.88000  1.0000
  Se  Se2       1.0  0.40500  0.00000  0.40400  1.0000
  Se  Se3       1.0  0.32100  0.50000  0.22300  1.0000
  Se  Se4       1.0  0.12700  0.50000  0.73400  1.0000
  Se  Se5       1.0  0.32100  0.50000  0.56100  1.0000
  Se  Se6       1.0  0.07270  0.00000  0.91800  1.0000
  Se  Se7       1.0  0.35100  0.50000  0.90700  1.0000
  Se  Se8       1.0  0.96100  0.50000  0.58100  1.0000
  Se  Se9       1.0  0.68400  0.50000  0.39400  1.0000
  Se  Se10      1.0  0.71100  0.50000  0.24100  1.0000
  Se  Se11      1.0  0.04270  0.00000  0.24300  1.0000
  Se  Se12      1.0  0.79500  0.00000  0.73000  1.0000
  Se  Se13      1.0  0.62900  0.00000  0.57800  1.0000
  Se  Se14      1.0  0.43600  0.00000  0.75000  1.0000
  Se  Se15      1.0  0.71300  0.50000  0.06860  1.0000
  Se  Se16      1.0  0.43500  0.00000  0.08850  1.0000
  Se  Se17      1.0  0.04550  0.00000  0.07100  1.0000
  Se  Se18      1.0  0.05730  0.00000  0.43200  1.0000
