data_image0
_chemical_formula_structural       O2RbTm
_chemical_formula_sum              "O2 Rb1 Tm1"
_cell_length_a       3.42041
_cell_length_b       3.42041
_cell_length_c       6.75233
_cell_angle_alpha    104.671
_cell_angle_beta     75.3285
_cell_angle_gamma    120

_space_group_name_H-M_alt    "P 1"
_space_group_IT_number       1

loop_
  _space_group_symop_operation_xyz
  'x, y, z'

loop_
  _atom_site_type_symbol
  _atom_site_label
  _atom_site_symmetry_multiplicity
  _atom_site_fract_x
  _atom_site_fract_y
  _atom_site_fract_z
  _atom_site_occupancy
  O   O1        1.0  0.22500  0.77500  0.32500  1.0000
  O   O2        1.0  0.77500  0.22500  0.67500  1.0000
  Rb  Rb1       1.0  0.00000  0.00000  0.00000  1.0000
  Tm  Tm1       1.0  0.50000  0.50000  0.50000  1.0000
