data_image0
_chemical_formula_structural       LuO2Rb
_chemical_formula_sum              "Lu1 O2 Rb1"
_cell_length_a       3.38609
_cell_length_b       3.38609
_cell_length_c       6.73358
_cell_angle_alpha    75.4377
_cell_angle_beta     104.562
_cell_angle_gamma    120

_space_group_name_H-M_alt    "P 1"
_space_group_IT_number       1

loop_
  _space_group_symop_operation_xyz
  'x, y, z'

loop_
  _atom_site_type_symbol
  _atom_site_label
  _atom_site_symmetry_multiplicity
  _atom_site_fract_x
  _atom_site_fract_y
  _atom_site_fract_z
  _atom_site_occupancy
  Lu  Lu1       1.0  0.50000  0.50000  0.50000  1.0000
  O   O1        1.0  0.77600  0.22400  0.32700  1.0000
  O   O2        1.0  0.22400  0.77600  0.67300  1.0000
  Rb  Rb1       1.0  0.00000  0.00000  0.00000  1.0000
