data_image0
_chemical_formula_structural       KS2Sn
_chemical_formula_sum              "K1 S2 Sn1"
_cell_length_a       3.9647
_cell_length_b       3.9647
_cell_length_c       7.89159
_cell_angle_alpha    90
_cell_angle_beta     75.4516
_cell_angle_gamma    120

_space_group_name_H-M_alt    "P 1"
_space_group_IT_number       1

loop_
  _space_group_symop_operation_xyz
  'x, y, z'

loop_
  _atom_site_type_symbol
  _atom_site_label
  _atom_site_symmetry_multiplicity
  _atom_site_fract_x
  _atom_site_fract_y
  _atom_site_fract_z
  _atom_site_occupancy
  K   K1        1.0  0.33100  0.16600  0.50300  1.0000
  S   S1        1.0  0.19500  0.59700  0.20800  1.0000
  S   S2        1.0  0.79800  0.39900  0.80300  1.0000
  Sn  Sn1       1.0  0.99600  0.99800  0.00605  1.0000
