data_image0
_chemical_formula_structural       B2Br6
_chemical_formula_sum              "B2 Br6"
_cell_length_a       6.74859
_cell_length_b       6.74784
_cell_length_c       7.61453
_cell_angle_alpha    90
_cell_angle_beta     90
_cell_angle_gamma    120.008

_space_group_name_H-M_alt    "P 1"
_space_group_IT_number       1

loop_
  _space_group_symop_operation_xyz
  'x, y, z'

loop_
  _atom_site_type_symbol
  _atom_site_label
  _atom_site_symmetry_multiplicity
  _atom_site_fract_x
  _atom_site_fract_y
  _atom_site_fract_z
  _atom_site_occupancy
  B   B1        1.0  0.33300  0.66700  0.25000  1.0000
  B   B2        1.0  0.66700  0.33300  0.75000  1.0000
  Br  Br1       1.0  0.05880  0.37500  0.25000  1.0000
  Br  Br2       1.0  0.62500  0.68400  0.25000  1.0000
  Br  Br3       1.0  0.31600  0.94100  0.25000  1.0000
  Br  Br4       1.0  0.68400  0.05890  0.75000  1.0000
  Br  Br5       1.0  0.37500  0.31600  0.75000  1.0000
  Br  Br6       1.0  0.94100  0.62500  0.75000  1.0000
