data_image0
_chemical_formula_structural       Nd2Rh2
_chemical_formula_sum              "Nd2 Rh2"
_cell_length_a       3.93642
_cell_length_b       4.24688
_cell_length_c       5.82523
_cell_angle_alpha    90
_cell_angle_beta     70.2524
_cell_angle_gamma    90

_space_group_name_H-M_alt    "P 1"
_space_group_IT_number       1

loop_
  _space_group_symop_operation_xyz
  'x, y, z'

loop_
  _atom_site_type_symbol
  _atom_site_label
  _atom_site_symmetry_multiplicity
  _atom_site_fract_x
  _atom_site_fract_y
  _atom_site_fract_z
  _atom_site_occupancy
  Nd  Nd1       1.0  0.85800  0.25000  0.28300  1.0000
  Nd  Nd2       1.0  0.14200  0.75000  0.71700  1.0000
  Rh  Rh1       1.0  0.41500  0.75000  0.17000  1.0000
  Rh  Rh2       1.0  0.58500  0.25000  0.83000  1.0000
