data_image0
_chemical_formula_structural       Mg2Pb4
_chemical_formula_sum              "Mg2 Pb4"
_cell_length_a       5.53671
_cell_length_b       5.95609
_cell_length_c       5.95609
_cell_angle_alpha    60
_cell_angle_beta     90
_cell_angle_gamma    90

_space_group_name_H-M_alt    "P 1"
_space_group_IT_number       1

loop_
  _space_group_symop_operation_xyz
  'x, y, z'

loop_
  _atom_site_type_symbol
  _atom_site_label
  _atom_site_symmetry_multiplicity
  _atom_site_fract_x
  _atom_site_fract_y
  _atom_site_fract_z
  _atom_site_occupancy
  Mg  Mg1       1.0  0.50000  0.66700  0.33300  1.0000
  Mg  Mg2       1.0  0.50000  0.00000  0.66700  1.0000
  Pb  Pb1       1.0  0.00000  0.99500  0.00000  1.0000
  Pb  Pb2       1.0  0.50000  0.33300  0.00000  1.0000
  Pb  Pb3       1.0  0.00000  0.33300  0.33800  1.0000
  Pb  Pb4       1.0  0.00000  0.67200  0.66200  1.0000
