data_image0
_chemical_formula_structural       Pb2Sr2
_chemical_formula_sum              "Pb2 Sr2"
_cell_length_a       4.65599
_cell_length_b       5.07616
_cell_length_c       6.64784
_cell_angle_alpha    67.5554
_cell_angle_beta     90
_cell_angle_gamma    90

_space_group_name_H-M_alt    "P 1"
_space_group_IT_number       1

loop_
  _space_group_symop_operation_xyz
  'x, y, z'

loop_
  _atom_site_type_symbol
  _atom_site_label
  _atom_site_symmetry_multiplicity
  _atom_site_fract_x
  _atom_site_fract_y
  _atom_site_fract_z
  _atom_site_occupancy
  Pb  Pb1       1.0  0.75000  0.41500  0.17000  1.0000
  Pb  Pb2       1.0  0.25000  0.58500  0.83000  1.0000
  Sr  Sr1       1.0  0.25000  0.86600  0.26800  1.0000
  Sr  Sr2       1.0  0.75000  0.13400  0.73200  1.0000
