data_image0
_chemical_formula_structural       C2NdRh
_chemical_formula_sum              "C2 Nd1 Rh1"
_cell_length_a       3.70609
_cell_length_b       4.05895
_cell_length_c       4.05895
_cell_angle_alpha    108.675
_cell_angle_beta     90
_cell_angle_gamma    90

_space_group_name_H-M_alt    "P 1"
_space_group_IT_number       1

loop_
  _space_group_symop_operation_xyz
  'x, y, z'

loop_
  _atom_site_type_symbol
  _atom_site_label
  _atom_site_symmetry_multiplicity
  _atom_site_fract_x
  _atom_site_fract_y
  _atom_site_fract_z
  _atom_site_occupancy
  C   C1        1.0  0.50000  0.51900  0.19600  1.0000
  C   C2        1.0  0.50000  0.80400  0.48100  1.0000
  Nd  Nd1       1.0  0.00000  0.97400  0.02550  1.0000
  Rh  Rh1       1.0  0.50000  0.35000  0.65000  1.0000
