data_image0
_chemical_formula_structural       HfN2Sr
_chemical_formula_sum              "Hf1 N2 Sr1"
_cell_length_a       3.33966
_cell_length_b       3.33966
_cell_length_c       6.19975
_cell_angle_alpha    74.3751
_cell_angle_beta     105.625
_cell_angle_gamma    120

_space_group_name_H-M_alt    "P 1"
_space_group_IT_number       1

loop_
  _space_group_symop_operation_xyz
  'x, y, z'

loop_
  _atom_site_type_symbol
  _atom_site_label
  _atom_site_symmetry_multiplicity
  _atom_site_fract_x
  _atom_site_fract_y
  _atom_site_fract_z
  _atom_site_occupancy
  Hf  Hf1       1.0  0.50000  0.50000  0.50000  1.0000
  N   N1        1.0  0.76700  0.23300  0.30100  1.0000
  N   N2        1.0  0.23300  0.76700  0.69900  1.0000
  Sr  Sr1       1.0  0.00000  0.00000  0.00000  1.0000
