data_image0
_chemical_formula_structural       Cl2Zr2
_chemical_formula_sum              "Cl2 Zr2"
_cell_length_a       3.4355
_cell_length_b       3.44315
_cell_length_c       9.14741
_cell_angle_alpha    100.788
_cell_angle_beta     90
_cell_angle_gamma    119.927

_space_group_name_H-M_alt    "P 1"
_space_group_IT_number       1

loop_
  _space_group_symop_operation_xyz
  'x, y, z'

loop_
  _atom_site_type_symbol
  _atom_site_label
  _atom_site_symmetry_multiplicity
  _atom_site_fract_x
  _atom_site_fract_y
  _atom_site_fract_z
  _atom_site_occupancy
  Cl  Cl1       1.0  0.11000  0.22000  0.32900  1.0000
  Cl  Cl2       1.0  0.89000  0.78000  0.67100  1.0000
  Zr  Zr1       1.0  0.37800  0.75600  0.13400  1.0000
  Zr  Zr2       1.0  0.62200  0.24400  0.86600  1.0000
