data_image0
_chemical_formula_structural       B2Tc6
_chemical_formula_sum              "B2 Tc6"
_cell_length_a       2.91654
_cell_length_b       4.86424
_cell_length_c       7.25481
_cell_angle_alpha    90
_cell_angle_beta     90
_cell_angle_gamma    72.5548

_space_group_name_H-M_alt    "P 1"
_space_group_IT_number       1

loop_
  _space_group_symop_operation_xyz
  'x, y, z'

loop_
  _atom_site_type_symbol
  _atom_site_label
  _atom_site_symmetry_multiplicity
  _atom_site_fract_x
  _atom_site_fract_y
  _atom_site_fract_z
  _atom_site_occupancy
  B   B1        1.0  0.74400  0.51200  0.25000  1.0000
  B   B2        1.0  0.25600  0.48800  0.75000  1.0000
  Tc  Tc1       1.0  0.13500  0.73000  0.06190  1.0000
  Tc  Tc2       1.0  0.42500  0.15000  0.25000  1.0000
  Tc  Tc3       1.0  0.13500  0.73000  0.43800  1.0000
  Tc  Tc4       1.0  0.86500  0.27000  0.56200  1.0000
  Tc  Tc5       1.0  0.57500  0.85000  0.75000  1.0000
  Tc  Tc6       1.0  0.86500  0.27000  0.93800  1.0000
