data_image0
_chemical_formula_structural       Se6U2
_chemical_formula_sum              "Se6 U2"
_cell_length_a       5.71329
_cell_length_b       4.0333
_cell_length_c       10.6111
_cell_angle_alpha    90
_cell_angle_beta     115.026
_cell_angle_gamma    90

_space_group_name_H-M_alt    "P 1"
_space_group_IT_number       1

loop_
  _space_group_symop_operation_xyz
  'x, y, z'

loop_
  _atom_site_type_symbol
  _atom_site_label
  _atom_site_symmetry_multiplicity
  _atom_site_fract_x
  _atom_site_fract_y
  _atom_site_fract_z
  _atom_site_occupancy
  Se  Se1       1.0  0.80200  0.25000  0.06780  1.0000
  Se  Se2       1.0  0.29000  0.75000  0.32300  1.0000
  Se  Se3       1.0  0.71200  0.75000  0.33200  1.0000
  Se  Se4       1.0  0.28800  0.25000  0.66800  1.0000
  Se  Se5       1.0  0.71000  0.25000  0.67700  1.0000
  Se  Se6       1.0  0.19800  0.75000  0.93200  1.0000
  U   U1        1.0  0.36600  0.25000  0.14700  1.0000
  U   U2        1.0  0.63400  0.75000  0.85300  1.0000
