data_image0
_chemical_formula_structural       B2Mo2
_chemical_formula_sum              "B2 Mo2"
_cell_length_a       3.08979
_cell_length_b       3.16223
_cell_length_c       4.5546
_cell_angle_alpha    69.6871
_cell_angle_beta     90
_cell_angle_gamma    90

_space_group_name_H-M_alt    "P 1"
_space_group_IT_number       1

loop_
  _space_group_symop_operation_xyz
  'x, y, z'

loop_
  _atom_site_type_symbol
  _atom_site_label
  _atom_site_symmetry_multiplicity
  _atom_site_fract_x
  _atom_site_fract_y
  _atom_site_fract_z
  _atom_site_occupancy
  B   B1        1.0  0.75000  0.44100  0.11900  1.0000
  B   B2        1.0  0.25000  0.55900  0.88100  1.0000
  Mo  Mo1       1.0  0.25000  0.85600  0.28900  1.0000
  Mo  Mo2       1.0  0.75000  0.14400  0.71100  1.0000
