data_image0
_chemical_formula_structural       O2Zr6
_chemical_formula_sum              "O2 Zr6"
_cell_length_a       5.64163
_cell_length_b       5.64163
_cell_length_c       5.22356
_cell_angle_alpha    89.9998
_cell_angle_beta     90.0002
_cell_angle_gamma    120.001

_space_group_name_H-M_alt    "P 1"
_space_group_IT_number       1

loop_
  _space_group_symop_operation_xyz
  'x, y, z'

loop_
  _atom_site_type_symbol
  _atom_site_label
  _atom_site_symmetry_multiplicity
  _atom_site_fract_x
  _atom_site_fract_y
  _atom_site_fract_z
  _atom_site_occupancy
  O   O1        1.0  0.33300  0.66700  0.25000  1.0000
  O   O2        1.0  0.66700  0.33300  0.75000  1.0000
  Zr  Zr1       1.0  0.00000  0.33800  1.00000  1.0000
  Zr  Zr2       1.0  0.66200  0.66200  0.00000  1.0000
  Zr  Zr3       1.0  0.33800  0.00000  0.00001  1.0000
  Zr  Zr4       1.0  0.66200  0.00000  0.50000  1.0000
  Zr  Zr5       1.0  0.33800  0.33800  0.50000  1.0000
  Zr  Zr6       1.0  0.00000  0.66200  0.50000  1.0000
