data_image0
_chemical_formula_structural       S6
_chemical_formula_sum              "S6"
_cell_length_a       4.36662
_cell_length_b       6.45771
_cell_length_c       6.45771
_cell_angle_alpha    115.074
_cell_angle_beta     103.026
_cell_angle_gamma    103.026

_space_group_name_H-M_alt    "P 1"
_space_group_IT_number       1

loop_
  _space_group_symop_operation_xyz
  'x, y, z'

loop_
  _atom_site_type_symbol
  _atom_site_label
  _atom_site_symmetry_multiplicity
  _atom_site_fract_x
  _atom_site_fract_y
  _atom_site_fract_z
  _atom_site_occupancy
  S   S1        1.0  0.24900  0.33600  0.10500  1.0000
  S   S2        1.0  0.14400  0.89500  0.23200  1.0000
  S   S3        1.0  0.08720  0.23200  0.33600  1.0000
  S   S4        1.0  0.91300  0.76800  0.66400  1.0000
  S   S5        1.0  0.85600  0.10500  0.76800  1.0000
  S   S6        1.0  0.75100  0.66400  0.89500  1.0000
