data_image0
_chemical_formula_structural       Bi2CaCu2O8Sr2
_chemical_formula_sum              "Bi2 Ca1 Cu2 O8 Sr2"
_cell_length_a       3.71068
_cell_length_b       3.71068
_cell_length_c       15.431
_cell_angle_alpha    96.9056
_cell_angle_beta     96.9056
_cell_angle_gamma    90

_space_group_name_H-M_alt    "P 1"
_space_group_IT_number       1

loop_
  _space_group_symop_operation_xyz
  'x, y, z'

loop_
  _atom_site_type_symbol
  _atom_site_label
  _atom_site_symmetry_multiplicity
  _atom_site_fract_x
  _atom_site_fract_y
  _atom_site_fract_z
  _atom_site_occupancy
  Bi  Bi1       1.0  0.70300  0.70300  0.40600  1.0000
  Bi  Bi2       1.0  0.29700  0.29700  0.59400  1.0000
  Ca  Ca1       1.0  0.00000  0.00000  0.00000  1.0000
  Cu  Cu1       1.0  0.55100  0.55100  0.10200  1.0000
  Cu  Cu2       1.0  0.44900  0.44900  0.89800  1.0000
  O   O1        1.0  0.55200  0.05170  0.10300  1.0000
  O   O2        1.0  0.05170  0.55200  0.10300  1.0000
  O   O3        1.0  0.63500  0.63500  0.27000  1.0000
  O   O4        1.0  0.20200  0.20200  0.40300  1.0000
  O   O5        1.0  0.79800  0.79800  0.59700  1.0000
  O   O6        1.0  0.36500  0.36500  0.73000  1.0000
  O   O7        1.0  0.94800  0.44800  0.89700  1.0000
  O   O8        1.0  0.44800  0.94800  0.89700  1.0000
  Sr  Sr1       1.0  0.11100  0.11100  0.22300  1.0000
  Sr  Sr2       1.0  0.88900  0.88900  0.77700  1.0000
