data_image0
_chemical_formula_structural       Mn20
_chemical_formula_sum              "Mn20"
_cell_length_a       5.98239
_cell_length_b       5.98239
_cell_length_c       5.98239
_cell_angle_alpha    90
_cell_angle_beta     90
_cell_angle_gamma    90

_space_group_name_H-M_alt    "P 1"
_space_group_IT_number       1

loop_
  _space_group_symop_operation_xyz
  'x, y, z'

loop_
  _atom_site_type_symbol
  _atom_site_label
  _atom_site_symmetry_multiplicity
  _atom_site_fract_x
  _atom_site_fract_y
  _atom_site_fract_z
  _atom_site_occupancy
  Mn  Mn1       1.0  0.05280  0.05280  0.05280  1.0000
  Mn  Mn2       1.0  0.87500  0.69700  0.05290  1.0000
  Mn  Mn3       1.0  0.19700  0.44700  0.12500  1.0000
  Mn  Mn4       1.0  0.44700  0.12500  0.19700  1.0000
  Mn  Mn5       1.0  0.80300  0.30300  0.19700  1.0000
  Mn  Mn6       1.0  0.19700  0.80300  0.30300  1.0000
  Mn  Mn7       1.0  0.55300  0.62500  0.30300  1.0000
  Mn  Mn8       1.0  0.80300  0.94700  0.37500  1.0000
  Mn  Mn9       1.0  0.12500  0.19700  0.44700  1.0000
  Mn  Mn10      1.0  0.94700  0.55300  0.44700  1.0000
  Mn  Mn11      1.0  0.44700  0.94700  0.55300  1.0000
  Mn  Mn12      1.0  0.62500  0.30300  0.55300  1.0000
  Mn  Mn13      1.0  0.30300  0.55300  0.62500  1.0000
  Mn  Mn14      1.0  0.05290  0.87500  0.69700  1.0000
  Mn  Mn15      1.0  0.69700  0.69700  0.69700  1.0000
  Mn  Mn16      1.0  0.30300  0.19700  0.80300  1.0000
  Mn  Mn17      1.0  0.94700  0.37500  0.80300  1.0000
  Mn  Mn18      1.0  0.69700  0.05290  0.87500  1.0000
  Mn  Mn19      1.0  0.37500  0.80300  0.94700  1.0000
  Mn  Mn20      1.0  0.55300  0.44700  0.94700  1.0000
