data_image0
_chemical_formula_structural       Dy2Ga4Pd2
_chemical_formula_sum              "Dy2 Ga4 Pd2"
_cell_length_a       4.43201
_cell_length_b       5.53689
_cell_length_c       6.63739
_cell_angle_alpha    90
_cell_angle_beta     90
_cell_angle_gamma    66.4077

_space_group_name_H-M_alt    "P 1"
_space_group_IT_number       1

loop_
  _space_group_symop_operation_xyz
  'x, y, z'

loop_
  _atom_site_type_symbol
  _atom_site_label
  _atom_site_symmetry_multiplicity
  _atom_site_fract_x
  _atom_site_fract_y
  _atom_site_fract_z
  _atom_site_occupancy
  Dy  Dy1       1.0  0.58800  0.82400  0.25000  1.0000
  Dy  Dy2       1.0  0.41200  0.17600  0.75000  1.0000
  Ga  Ga1       1.0  0.87200  0.25500  0.05310  1.0000
  Ga  Ga2       1.0  0.87200  0.25500  0.44700  1.0000
  Ga  Ga3       1.0  0.12800  0.74500  0.55300  1.0000
  Ga  Ga4       1.0  0.12800  0.74500  0.94700  1.0000
  Pd  Pd1       1.0  0.29900  0.40200  0.25000  1.0000
  Pd  Pd2       1.0  0.70100  0.59800  0.75000  1.0000
