data_image0
_chemical_formula_structural       Ga4Ni2Sc2
_chemical_formula_sum              "Ga4 Ni2 Sc2"
_cell_length_a       4.05324
_cell_length_b       5.19037
_cell_length_c       6.44996
_cell_angle_alpha    90
_cell_angle_beta     90
_cell_angle_gamma    67.017

_space_group_name_H-M_alt    "P 1"
_space_group_IT_number       1

loop_
  _space_group_symop_operation_xyz
  'x, y, z'

loop_
  _atom_site_type_symbol
  _atom_site_label
  _atom_site_symmetry_multiplicity
  _atom_site_fract_x
  _atom_site_fract_y
  _atom_site_fract_z
  _atom_site_occupancy
  Ga  Ga1       1.0  0.36400  0.27300  0.04950  1.0000
  Ga  Ga2       1.0  0.36400  0.27300  0.45000  1.0000
  Ga  Ga3       1.0  0.63600  0.72700  0.55000  1.0000
  Ga  Ga4       1.0  0.63600  0.72700  0.95000  1.0000
  Ni  Ni1       1.0  0.79500  0.41000  0.25000  1.0000
  Ni  Ni2       1.0  0.20500  0.59000  0.75000  1.0000
  Sc  Sc1       1.0  0.07710  0.84600  0.25000  1.0000
  Sc  Sc2       1.0  0.92300  0.15400  0.75000  1.0000
