data_image0
_chemical_formula_structural       Ga4Lu2Pd2
_chemical_formula_sum              "Ga4 Lu2 Pd2"
_cell_length_a       4.36492
_cell_length_b       5.44864
_cell_length_c       6.61198
_cell_angle_alpha    90
_cell_angle_beta     90
_cell_angle_gamma    66.3874

_space_group_name_H-M_alt    "P 1"
_space_group_IT_number       1

loop_
  _space_group_symop_operation_xyz
  'x, y, z'

loop_
  _atom_site_type_symbol
  _atom_site_label
  _atom_site_symmetry_multiplicity
  _atom_site_fract_x
  _atom_site_fract_y
  _atom_site_fract_z
  _atom_site_occupancy
  Ga  Ga1       1.0  0.87200  0.25500  0.05280  1.0000
  Ga  Ga2       1.0  0.87200  0.25500  0.44700  1.0000
  Ga  Ga3       1.0  0.12800  0.74500  0.55300  1.0000
  Ga  Ga4       1.0  0.12800  0.74500  0.94700  1.0000
  Lu  Lu1       1.0  0.58700  0.82600  0.25000  1.0000
  Lu  Lu2       1.0  0.41300  0.17400  0.75000  1.0000
  Pd  Pd1       1.0  0.29900  0.40300  0.25000  1.0000
  Pd  Pd2       1.0  0.70100  0.59700  0.75000  1.0000
