data_image0
_chemical_formula_structural       Ga4Ni2Y2
_chemical_formula_sum              "Ga4 Ni2 Y2"
_cell_length_a       4.13358
_cell_length_b       5.46608
_cell_length_c       6.64382
_cell_angle_alpha    90
_cell_angle_beta     90
_cell_angle_gamma    67.7832

_space_group_name_H-M_alt    "P 1"
_space_group_IT_number       1

loop_
  _space_group_symop_operation_xyz
  'x, y, z'

loop_
  _atom_site_type_symbol
  _atom_site_label
  _atom_site_symmetry_multiplicity
  _atom_site_fract_x
  _atom_site_fract_y
  _atom_site_fract_z
  _atom_site_occupancy
  Ga  Ga1       1.0  0.35600  0.28800  0.05410  1.0000
  Ga  Ga2       1.0  0.35600  0.28800  0.44600  1.0000
  Ga  Ga3       1.0  0.64400  0.71200  0.55400  1.0000
  Ga  Ga4       1.0  0.64400  0.71200  0.94600  1.0000
  Ni  Ni1       1.0  0.79000  0.41900  0.25000  1.0000
  Ni  Ni2       1.0  0.21000  0.58100  0.75000  1.0000
  Y   Y1        1.0  0.07240  0.85500  0.25000  1.0000
  Y   Y2        1.0  0.92800  0.14500  0.75000  1.0000
