data_image0
_chemical_formula_structural       Er2Ga4Ni2
_chemical_formula_sum              "Er2 Ga4 Ni2"
_cell_length_a       4.13164
_cell_length_b       5.38465
_cell_length_c       6.62587
_cell_angle_alpha    90
_cell_angle_beta     90
_cell_angle_gamma    67.4401

_space_group_name_H-M_alt    "P 1"
_space_group_IT_number       1

loop_
  _space_group_symop_operation_xyz
  'x, y, z'

loop_
  _atom_site_type_symbol
  _atom_site_label
  _atom_site_symmetry_multiplicity
  _atom_site_fract_x
  _atom_site_fract_y
  _atom_site_fract_z
  _atom_site_occupancy
  Er  Er1       1.0  0.57500  0.84900  0.25000  1.0000
  Er  Er2       1.0  0.42500  0.15100  0.75000  1.0000
  Ga  Ga1       1.0  0.86000  0.28100  0.05310  1.0000
  Ga  Ga2       1.0  0.86000  0.28100  0.44700  1.0000
  Ga  Ga3       1.0  0.14000  0.71900  0.55300  1.0000
  Ga  Ga4       1.0  0.14000  0.71900  0.94700  1.0000
  Ni  Ni1       1.0  0.29200  0.41500  0.25000  1.0000
  Ni  Ni2       1.0  0.70800  0.58500  0.75000  1.0000
