data_image0
_chemical_formula_structural       Dy2Ga4Ni2
_chemical_formula_sum              "Dy2 Ga4 Ni2"
_cell_length_a       4.13739
_cell_length_b       5.44084
_cell_length_c       6.63165
_cell_angle_alpha    90
_cell_angle_beta     90
_cell_angle_gamma    67.6529

_space_group_name_H-M_alt    "P 1"
_space_group_IT_number       1

loop_
  _space_group_symop_operation_xyz
  'x, y, z'

loop_
  _atom_site_type_symbol
  _atom_site_label
  _atom_site_symmetry_multiplicity
  _atom_site_fract_x
  _atom_site_fract_y
  _atom_site_fract_z
  _atom_site_occupancy
  Dy  Dy1       1.0  0.57400  0.85300  0.25000  1.0000
  Dy  Dy2       1.0  0.42600  0.14700  0.75000  1.0000
  Ga  Ga1       1.0  0.85800  0.28500  0.05350  1.0000
  Ga  Ga2       1.0  0.85800  0.28500  0.44600  1.0000
  Ga  Ga3       1.0  0.14200  0.71500  0.55400  1.0000
  Ga  Ga4       1.0  0.14200  0.71500  0.94600  1.0000
  Ni  Ni1       1.0  0.29100  0.41700  0.25000  1.0000
  Ni  Ni2       1.0  0.70900  0.58300  0.75000  1.0000
