data_image0
_chemical_formula_structural       Lu3
_chemical_formula_sum              "Lu3"
_cell_length_a       3.46761
_cell_length_b       3.46761
_cell_length_c       8.53062
_cell_angle_alpha    78.2732
_cell_angle_beta     101.727
_cell_angle_gamma    120

_space_group_name_H-M_alt    "P 1"
_space_group_IT_number       1

loop_
  _space_group_symop_operation_xyz
  'x, y, z'

loop_
  _atom_site_type_symbol
  _atom_site_label
  _atom_site_symmetry_multiplicity
  _atom_site_fract_x
  _atom_site_fract_y
  _atom_site_fract_z
  _atom_site_occupancy
  Lu  Lu1       1.0  0.00000  0.00000  0.00000  1.0000
  Lu  Lu2       1.0  0.77800  0.22200  0.33400  1.0000
  Lu  Lu3       1.0  0.22200  0.77800  0.66600  1.0000
