data_image0
_chemical_formula_structural       CrN2W
_chemical_formula_sum              "Cr1 N2 W1"
_cell_length_a       2.87416
_cell_length_b       2.87416
_cell_length_c       5.5424
_cell_angle_alpha    74.9721
_cell_angle_beta     105.028
_cell_angle_gamma    120

_space_group_name_H-M_alt    "P 1"
_space_group_IT_number       1

loop_
  _space_group_symop_operation_xyz
  'x, y, z'

loop_
  _atom_site_type_symbol
  _atom_site_label
  _atom_site_symmetry_multiplicity
  _atom_site_fract_x
  _atom_site_fract_y
  _atom_site_fract_z
  _atom_site_occupancy
  Cr  Cr1       1.0  0.83400  0.16600  0.50200  1.0000
  N   N1        1.0  0.41600  0.58400  0.24900  1.0000
  N   N2        1.0  0.24600  0.75400  0.73700  1.0000
  W   W1        1.0  0.99900  0.00108  0.99700  1.0000
