data_image0
_chemical_formula_structural       Pt6U2
_chemical_formula_sum              "Pt6 U2"
_cell_length_a       5.73684
_cell_length_b       5.73682
_cell_length_c       5.02966
_cell_angle_alpha    90
_cell_angle_beta     90
_cell_angle_gamma    120

_space_group_name_H-M_alt    "P 1"
_space_group_IT_number       1

loop_
  _space_group_symop_operation_xyz
  'x, y, z'

loop_
  _atom_site_type_symbol
  _atom_site_label
  _atom_site_symmetry_multiplicity
  _atom_site_fract_x
  _atom_site_fract_y
  _atom_site_fract_z
  _atom_site_occupancy
  Pt  Pt1       1.0  0.33200  0.16600  0.25000  1.0000
  Pt  Pt2       1.0  0.83400  0.16600  0.25000  1.0000
  Pt  Pt3       1.0  0.83400  0.66800  0.25000  1.0000
  Pt  Pt4       1.0  0.16600  0.33200  0.75000  1.0000
  Pt  Pt5       1.0  0.16600  0.83400  0.75000  1.0000
  Pt  Pt6       1.0  0.66800  0.83400  0.75000  1.0000
  U   U1        1.0  0.33300  0.66700  0.25000  1.0000
  U   U2        1.0  0.66700  0.33300  0.75000  1.0000
