data_image0
_chemical_formula_structural       Ba3Ca
_chemical_formula_sum              "Ba3 Ca1"
_cell_length_a       7.63394
_cell_length_b       7.63394
_cell_length_c       7.63394
_cell_angle_alpha    133.386
_cell_angle_beta     133.386
_cell_angle_gamma    68.0487

_space_group_name_H-M_alt    "P 1"
_space_group_IT_number       1

loop_
  _space_group_symop_operation_xyz
  'x, y, z'

loop_
  _atom_site_type_symbol
  _atom_site_label
  _atom_site_symmetry_multiplicity
  _atom_site_fract_x
  _atom_site_fract_y
  _atom_site_fract_z
  _atom_site_occupancy
  Ba  Ba1       1.0  0.75000  0.25000  0.50000  1.0000
  Ba  Ba2       1.0  0.25000  0.75000  0.50000  1.0000
  Ba  Ba3       1.0  0.50000  0.50000  0.00000  1.0000
  Ca  Ca1       1.0  0.00000  0.00000  0.00000  1.0000
