data_image0
_chemical_formula_structural       Br6Ir2
_chemical_formula_sum              "Br6 Ir2"
_cell_length_a       6.40024
_cell_length_b       6.39793
_cell_length_c       6.39198
_cell_angle_alpha    99.538
_cell_angle_beta     109.347
_cell_angle_gamma    59.988

_space_group_name_H-M_alt    "P 1"
_space_group_IT_number       1

loop_
  _space_group_symop_operation_xyz
  'x, y, z'

loop_
  _atom_site_type_symbol
  _atom_site_label
  _atom_site_symmetry_multiplicity
  _atom_site_fract_x
  _atom_site_fract_y
  _atom_site_fract_z
  _atom_site_occupancy
  Br  Br1       1.0  0.57600  0.35200  0.23000  1.0000
  Br  Br2       1.0  0.92800  0.64800  0.23000  1.0000
  Br  Br3       1.0  0.22700  0.00000  0.23100  1.0000
  Br  Br4       1.0  0.77300  0.00000  0.76900  1.0000
  Br  Br5       1.0  0.42400  0.64800  0.77000  1.0000
  Br  Br6       1.0  0.07220  0.35200  0.77000  1.0000
  Ir  Ir1       1.0  0.83400  0.33300  0.00000  1.0000
  Ir  Ir2       1.0  0.16600  0.66700  0.00000  1.0000
