data_image0
_chemical_formula_structural       Au5Mg
_chemical_formula_sum              "Au5 Mg1"
_cell_length_a       2.96476
_cell_length_b       2.96476
_cell_length_c       14.1154
_cell_angle_alpha    90
_cell_angle_beta     90
_cell_angle_gamma    120

_space_group_name_H-M_alt    "P 1"
_space_group_IT_number       1

loop_
  _space_group_symop_operation_xyz
  'x, y, z'

loop_
  _atom_site_type_symbol
  _atom_site_label
  _atom_site_symmetry_multiplicity
  _atom_site_fract_x
  _atom_site_fract_y
  _atom_site_fract_z
  _atom_site_occupancy
  Au  Au1       1.0  0.00000  0.00000  0.98800  1.0000
  Au  Au2       1.0  0.66700  0.33300  0.16300  1.0000
  Au  Au3       1.0  0.00000  0.00000  0.33300  1.0000
  Au  Au4       1.0  0.66700  0.33300  0.50400  1.0000
  Au  Au5       1.0  0.00000  0.00000  0.67800  1.0000
  Mg  Mg1       1.0  0.66700  0.33300  0.83300  1.0000
