data_image0
_chemical_formula_structural       Cu2Ni4Ti2
_chemical_formula_sum              "Cu2 Ni4 Ti2"
_cell_length_a       5.15935
_cell_length_b       4.21515
_cell_length_c       4.42459
_cell_angle_alpha    90
_cell_angle_beta     90
_cell_angle_gamma    90

_space_group_name_H-M_alt    "P 1"
_space_group_IT_number       1

loop_
  _space_group_symop_operation_xyz
  'x, y, z'

loop_
  _atom_site_type_symbol
  _atom_site_label
  _atom_site_symmetry_multiplicity
  _atom_site_fract_x
  _atom_site_fract_y
  _atom_site_fract_z
  _atom_site_occupancy
  Cu  Cu1       1.0  0.25000  0.75000  0.31200  1.0000
  Cu  Cu2       1.0  0.75000  0.25000  0.68800  1.0000
  Ni  Ni1       1.0  0.00071  0.25000  0.17200  1.0000
  Ni  Ni2       1.0  0.49900  0.25000  0.17200  1.0000
  Ni  Ni3       1.0  0.50100  0.75000  0.82800  1.0000
  Ni  Ni4       1.0  0.99900  0.75000  0.82800  1.0000
  Ti  Ti1       1.0  0.75000  0.75000  0.33300  1.0000
  Ti  Ti2       1.0  0.25000  0.25000  0.66700  1.0000
