data_image0
_chemical_formula_structural       Dy5Mg
_chemical_formula_sum              "Dy5 Mg1"
_cell_length_a       6.1151
_cell_length_b       6.1151
_cell_length_c       6.58914
_cell_angle_alpha    117.647
_cell_angle_beta     62.3526
_cell_angle_gamma    120

_space_group_name_H-M_alt    "P 1"
_space_group_IT_number       1

loop_
  _space_group_symop_operation_xyz
  'x, y, z'

loop_
  _atom_site_type_symbol
  _atom_site_label
  _atom_site_symmetry_multiplicity
  _atom_site_fract_x
  _atom_site_fract_y
  _atom_site_fract_z
  _atom_site_occupancy
  Dy  Dy1       1.0  0.67300  0.33900  0.00000  1.0000
  Dy  Dy2       1.0  0.99400  0.00000  0.00000  1.0000
  Dy  Dy3       1.0  0.33300  0.66100  0.00000  1.0000
  Dy  Dy4       1.0  0.50100  0.83200  0.49600  1.0000
  Dy  Dy5       1.0  0.16500  0.16800  0.50400  1.0000
  Mg  Mg1       1.0  0.83300  0.50000  0.50000  1.0000
