data_image0
_chemical_formula_structural       ClNSr2
_chemical_formula_sum              "Cl1 N1 Sr2"
_cell_length_a       3.8957
_cell_length_b       3.8957
_cell_length_c       7.40567
_cell_angle_alpha    74.7506
_cell_angle_beta     105.249
_cell_angle_gamma    120

_space_group_name_H-M_alt    "P 1"
_space_group_IT_number       1

loop_
  _space_group_symop_operation_xyz
  'x, y, z'

loop_
  _atom_site_type_symbol
  _atom_site_label
  _atom_site_symmetry_multiplicity
  _atom_site_fract_x
  _atom_site_fract_y
  _atom_site_fract_z
  _atom_site_occupancy
  Cl  Cl1       1.0  0.00000  0.00000  0.00000  1.0000
  N   N1        1.0  0.50000  0.50000  0.50000  1.0000
  Sr  Sr1       1.0  0.77000  0.23000  0.30900  1.0000
  Sr  Sr2       1.0  0.23000  0.77000  0.69100  1.0000
