data_image0
_chemical_formula_structural       Ga2Ni4U2
_chemical_formula_sum              "Ga2 Ni4 U2"
_cell_length_a       4.38606
_cell_length_b       4.38644
_cell_length_c       7.54808
_cell_angle_alpha    90
_cell_angle_beta     90
_cell_angle_gamma    119.997

_space_group_name_H-M_alt    "P 1"
_space_group_IT_number       1

loop_
  _space_group_symop_operation_xyz
  'x, y, z'

loop_
  _atom_site_type_symbol
  _atom_site_label
  _atom_site_symmetry_multiplicity
  _atom_site_fract_x
  _atom_site_fract_y
  _atom_site_fract_z
  _atom_site_occupancy
  Ga  Ga1       1.0  0.33300  0.66700  0.25000  1.0000
  Ga  Ga2       1.0  0.66700  0.33300  0.75000  1.0000
  Ni  Ni1       1.0  0.66700  0.33300  0.09770  1.0000
  Ni  Ni2       1.0  0.66700  0.33300  0.40200  1.0000
  Ni  Ni3       1.0  0.33300  0.66700  0.59800  1.0000
  Ni  Ni4       1.0  0.33300  0.66700  0.90200  1.0000
  U   U1        1.0  0.00000  0.00000  0.00000  1.0000
  U   U2        1.0  0.00000  0.00000  0.50000  1.0000
