data_image0
_chemical_formula_structural       Br6Gd2
_chemical_formula_sum              "Br6 Gd2"
_cell_length_a       6.86972
_cell_length_b       7.19217
_cell_length_c       7.19217
_cell_angle_alpha    119.857
_cell_angle_beta     99.5519
_cell_angle_gamma    99.5519

_space_group_name_H-M_alt    "P 1"
_space_group_IT_number       1

loop_
  _space_group_symop_operation_xyz
  'x, y, z'

loop_
  _atom_site_type_symbol
  _atom_site_label
  _atom_site_symmetry_multiplicity
  _atom_site_fract_x
  _atom_site_fract_y
  _atom_site_fract_z
  _atom_site_occupancy
  Br  Br1       1.0  0.75500  0.42300  0.07040  1.0000
  Br  Br2       1.0  0.25000  0.22500  0.22500  1.0000
  Br  Br3       1.0  0.75500  0.07040  0.42300  1.0000
  Br  Br4       1.0  0.24500  0.93000  0.57700  1.0000
  Br  Br5       1.0  0.75000  0.77500  0.77500  1.0000
  Br  Br6       1.0  0.24500  0.57700  0.93000  1.0000
  Gd  Gd1       1.0  0.00000  0.83400  0.16600  1.0000
  Gd  Gd2       1.0  0.00000  0.16600  0.83400  1.0000
