data_image0
_chemical_formula_structural       DySe2Tl
_chemical_formula_sum              "Dy1 Se2 Tl1"
_cell_length_a       4.16066
_cell_length_b       4.16066
_cell_length_c       8.1077
_cell_angle_alpha    75.1324
_cell_angle_beta     104.868
_cell_angle_gamma    120

_space_group_name_H-M_alt    "P 1"
_space_group_IT_number       1

loop_
  _space_group_symop_operation_xyz
  'x, y, z'

loop_
  _atom_site_type_symbol
  _atom_site_label
  _atom_site_symmetry_multiplicity
  _atom_site_fract_x
  _atom_site_fract_y
  _atom_site_fract_z
  _atom_site_occupancy
  Dy  Dy1       1.0  0.00000  0.00000  0.00000  1.0000
  Se  Se1       1.0  0.73500  0.26500  0.20600  1.0000
  Se  Se2       1.0  0.26500  0.73500  0.79400  1.0000
  Tl  Tl1       1.0  0.50000  0.50000  0.50000  1.0000
