data_image0
_chemical_formula_structural       CrSe2Tl
_chemical_formula_sum              "Cr1 Se2 Tl1"
_cell_length_a       3.5712
_cell_length_b       3.5712
_cell_length_c       8.6926
_cell_angle_alpha    78.1462
_cell_angle_beta     101.854
_cell_angle_gamma    120

_space_group_name_H-M_alt    "P 1"
_space_group_IT_number       1

loop_
  _space_group_symop_operation_xyz
  'x, y, z'

loop_
  _atom_site_type_symbol
  _atom_site_label
  _atom_site_symmetry_multiplicity
  _atom_site_fract_x
  _atom_site_fract_y
  _atom_site_fract_z
  _atom_site_occupancy
  Cr  Cr1       1.0  0.00208  0.99800  0.00623  1.0000
  Se  Se1       1.0  0.72600  0.27400  0.17700  1.0000
  Se  Se2       1.0  0.60900  0.39100  0.82700  1.0000
  Tl  Tl1       1.0  0.84500  0.15500  0.53600  1.0000
