data_image0
_chemical_formula_structural       MgZn5
_chemical_formula_sum              "Mg1 Zn5"
_cell_length_a       2.87132
_cell_length_b       2.87132
_cell_length_c       13.3397
_cell_angle_alpha    90
_cell_angle_beta     90
_cell_angle_gamma    120

_space_group_name_H-M_alt    "P 1"
_space_group_IT_number       1

loop_
  _space_group_symop_operation_xyz
  'x, y, z'

loop_
  _atom_site_type_symbol
  _atom_site_label
  _atom_site_symmetry_multiplicity
  _atom_site_fract_x
  _atom_site_fract_y
  _atom_site_fract_z
  _atom_site_occupancy
  Mg  Mg1       1.0  0.66700  0.33300  0.83300  1.0000
  Zn  Zn1       1.0  0.00000  0.00000  0.00901  1.0000
  Zn  Zn2       1.0  0.66700  0.33300  0.17100  1.0000
  Zn  Zn3       1.0  0.00000  0.00000  0.33300  1.0000
  Zn  Zn4       1.0  0.66700  0.33300  0.49500  1.0000
  Zn  Zn5       1.0  0.00000  0.00000  0.65800  1.0000
