data_image0
_chemical_formula_structural       C2FeSm
_chemical_formula_sum              "C2 Fe1 Sm1"
_cell_length_a       3.80892
_cell_length_b       3.73826
_cell_length_c       3.73826
_cell_angle_alpha    104.869
_cell_angle_beta     90
_cell_angle_gamma    90

_space_group_name_H-M_alt    "P 1"
_space_group_IT_number       1

loop_
  _space_group_symop_operation_xyz
  'x, y, z'

loop_
  _atom_site_type_symbol
  _atom_site_label
  _atom_site_symmetry_multiplicity
  _atom_site_fract_x
  _atom_site_fract_y
  _atom_site_fract_z
  _atom_site_occupancy
  C   C1        1.0  0.50000  0.54800  0.14400  1.0000
  C   C2        1.0  0.50000  0.85600  0.45200  1.0000
  Fe  Fe1       1.0  0.50000  0.38600  0.61400  1.0000
  Sm  Sm1       1.0  0.00000  0.99400  0.00578  1.0000
