data_image0
_chemical_formula_structural       Ce2Zn6
_chemical_formula_sum              "Ce2 Zn6"
_cell_length_a       4.63606
_cell_length_b       5.71978
_cell_length_c       6.63332
_cell_angle_alpha    90
_cell_angle_beta     90
_cell_angle_gamma    66.0922

_space_group_name_H-M_alt    "P 1"
_space_group_IT_number       1

loop_
  _space_group_symop_operation_xyz
  'x, y, z'

loop_
  _atom_site_type_symbol
  _atom_site_label
  _atom_site_symmetry_multiplicity
  _atom_site_fract_x
  _atom_site_fract_y
  _atom_site_fract_z
  _atom_site_occupancy
  Ce  Ce1       1.0  0.89700  0.70600  0.25000  1.0000
  Ce  Ce2       1.0  0.10300  0.29400  0.75000  1.0000
  Zn  Zn1       1.0  0.61800  0.26400  0.05940  1.0000
  Zn  Zn2       1.0  0.19900  0.10100  0.25000  1.0000
  Zn  Zn3       1.0  0.61800  0.26400  0.44100  1.0000
  Zn  Zn4       1.0  0.38200  0.73600  0.55900  1.0000
  Zn  Zn5       1.0  0.80100  0.89900  0.75000  1.0000
  Zn  Zn6       1.0  0.38200  0.73600  0.94100  1.0000
