data_image0
_chemical_formula_structural       Hf2Se6
_chemical_formula_sum              "Hf2 Se6"
_cell_length_a       5.38319
_cell_length_b       3.74074
_cell_length_c       9.48863
_cell_angle_alpha    90
_cell_angle_beta     86.7562
_cell_angle_gamma    90

_space_group_name_H-M_alt    "P 1"
_space_group_IT_number       1

loop_
  _space_group_symop_operation_xyz
  'x, y, z'

loop_
  _atom_site_type_symbol
  _atom_site_label
  _atom_site_symmetry_multiplicity
  _atom_site_fract_x
  _atom_site_fract_y
  _atom_site_fract_z
  _atom_site_occupancy
  Hf  Hf1       1.0  0.27200  0.75000  0.34400  1.0000
  Hf  Hf2       1.0  0.72800  0.25000  0.65600  1.0000
  Se  Se1       1.0  0.07980  0.25000  0.16600  1.0000
  Se  Se2       1.0  0.52300  0.25000  0.18200  1.0000
  Se  Se3       1.0  0.76000  0.75000  0.44700  1.0000
  Se  Se4       1.0  0.24000  0.25000  0.55300  1.0000
  Se  Se5       1.0  0.47700  0.75000  0.81800  1.0000
  Se  Se6       1.0  0.92000  0.75000  0.83400  1.0000
