data_image0
_chemical_formula_structural       AgC2Li
_chemical_formula_sum              "Ag1 C2 Li1"
_cell_length_a       3.79146
_cell_length_b       3.79147
_cell_length_c       5.34756
_cell_angle_alpha    90
_cell_angle_beta     90
_cell_angle_gamma    120

_space_group_name_H-M_alt    "P 1"
_space_group_IT_number       1

loop_
  _space_group_symop_operation_xyz
  'x, y, z'

loop_
  _atom_site_type_symbol
  _atom_site_label
  _atom_site_symmetry_multiplicity
  _atom_site_fract_x
  _atom_site_fract_y
  _atom_site_fract_z
  _atom_site_occupancy
  Ag  Ag1       1.0  0.00000  0.00000  0.00000  1.0000
  C   C1        1.0  0.00000  0.00000  0.38300  1.0000
  C   C2        1.0  0.00000  0.00000  0.61700  1.0000
  Li  Li1       1.0  0.33300  0.66700  0.50000  1.0000
