data_image0
_chemical_formula_structural       Pt2Te2
_chemical_formula_sum              "Pt2 Te2"
_cell_length_a       3.99991
_cell_length_b       4.0007
_cell_length_c       7.09445
_cell_angle_alpha    106.362
_cell_angle_beta     106.374
_cell_angle_gamma    60.0066

_space_group_name_H-M_alt    "P 1"
_space_group_IT_number       1

loop_
  _space_group_symop_operation_xyz
  'x, y, z'

loop_
  _atom_site_type_symbol
  _atom_site_label
  _atom_site_symmetry_multiplicity
  _atom_site_fract_x
  _atom_site_fract_y
  _atom_site_fract_z
  _atom_site_occupancy
  Pt  Pt1       1.0  0.87000  0.37100  0.11100  1.0000
  Pt  Pt2       1.0  0.13000  0.62900  0.88900  1.0000
  Te  Te1       1.0  0.59800  0.09830  0.29500  1.0000
  Te  Te2       1.0  0.40200  0.90200  0.70500  1.0000
