data_image0
_chemical_formula_structural       HgNa3
_chemical_formula_sum              "Hg1 Na3"
_cell_length_a       5.36747
_cell_length_b       5.36747
_cell_length_c       5.40153
_cell_angle_alpha    60.2084
_cell_angle_beta     119.792
_cell_angle_gamma    120

_space_group_name_H-M_alt    "P 1"
_space_group_IT_number       1

loop_
  _space_group_symop_operation_xyz
  'x, y, z'

loop_
  _atom_site_type_symbol
  _atom_site_label
  _atom_site_symmetry_multiplicity
  _atom_site_fract_x
  _atom_site_fract_y
  _atom_site_fract_z
  _atom_site_occupancy
  Hg  Hg1       1.0  0.00000  0.00000  0.00000  1.0000
  Na  Na1       1.0  0.75500  0.24500  0.26400  1.0000
  Na  Na2       1.0  0.50000  0.50000  0.50000  1.0000
  Na  Na3       1.0  0.24500  0.75500  0.73600  1.0000
