data_image0
_chemical_formula_structural       Gd5Mg
_chemical_formula_sum              "Gd5 Mg1"
_cell_length_a       6.17992
_cell_length_b       6.17992
_cell_length_c       6.64791
_cell_angle_alpha    117.697
_cell_angle_beta     62.3026
_cell_angle_gamma    120

_space_group_name_H-M_alt    "P 1"
_space_group_IT_number       1

loop_
  _space_group_symop_operation_xyz
  'x, y, z'

loop_
  _atom_site_type_symbol
  _atom_site_label
  _atom_site_symmetry_multiplicity
  _atom_site_fract_x
  _atom_site_fract_y
  _atom_site_fract_z
  _atom_site_occupancy
  Gd  Gd1       1.0  0.67600  0.34300  0.00000  1.0000
  Gd  Gd2       1.0  0.99000  0.00000  0.00000  1.0000
  Gd  Gd3       1.0  0.33300  0.65700  0.00000  1.0000
  Gd  Gd4       1.0  0.50000  0.83300  0.49900  1.0000
  Gd  Gd5       1.0  0.16600  0.16700  0.50100  1.0000
  Mg  Mg1       1.0  0.83300  0.50000  0.50000  1.0000
