data_image0
_chemical_formula_structural       Hf2S6
_chemical_formula_sum              "Hf2 S6"
_cell_length_a       5.12657
_cell_length_b       3.60163
_cell_length_c       9.18735
_cell_angle_alpha    90
_cell_angle_beta     97.1831
_cell_angle_gamma    90

_space_group_name_H-M_alt    "P 1"
_space_group_IT_number       1

loop_
  _space_group_symop_operation_xyz
  'x, y, z'

loop_
  _atom_site_type_symbol
  _atom_site_label
  _atom_site_symmetry_multiplicity
  _atom_site_fract_x
  _atom_site_fract_y
  _atom_site_fract_z
  _atom_site_occupancy
  Hf  Hf1       1.0  0.71500  0.75000  0.34900  1.0000
  Hf  Hf2       1.0  0.28500  0.25000  0.65100  1.0000
  S   S1        1.0  0.87800  0.25000  0.17700  1.0000
  S   S2        1.0  0.47100  0.25000  0.17900  1.0000
  S   S3        1.0  0.23800  0.75000  0.44700  1.0000
  S   S4        1.0  0.76200  0.25000  0.55300  1.0000
  S   S5        1.0  0.52900  0.75000  0.82100  1.0000
  S   S6        1.0  0.12200  0.75000  0.82300  1.0000
