data_image0
_chemical_formula_structural       ScSe2Tl
_chemical_formula_sum              "Sc1 Se2 Tl1"
_cell_length_a       3.95398
_cell_length_b       3.95398
_cell_length_c       8.06793
_cell_angle_alpha    104.184
_cell_angle_beta     90
_cell_angle_gamma    60

_space_group_name_H-M_alt    "P 1"
_space_group_IT_number       1

loop_
  _space_group_symop_operation_xyz
  'x, y, z'

loop_
  _atom_site_type_symbol
  _atom_site_label
  _atom_site_symmetry_multiplicity
  _atom_site_fract_x
  _atom_site_fract_y
  _atom_site_fract_z
  _atom_site_occupancy
  Sc  Sc1       1.0  0.00000  0.00000  0.00000  1.0000
  Se  Se1       1.0  0.26800  0.46400  0.19500  1.0000
  Se  Se2       1.0  0.73200  0.53600  0.80500  1.0000
  Tl  Tl1       1.0  0.50000  0.00000  0.50000  1.0000
