data_image0
_chemical_formula_structural       Hg6Sr2
_chemical_formula_sum              "Hg6 Sr2"
_cell_length_a       6.91491
_cell_length_b       6.91498
_cell_length_c       5.19287
_cell_angle_alpha    90
_cell_angle_beta     90
_cell_angle_gamma    120

_space_group_name_H-M_alt    "P 1"
_space_group_IT_number       1

loop_
  _space_group_symop_operation_xyz
  'x, y, z'

loop_
  _atom_site_type_symbol
  _atom_site_label
  _atom_site_symmetry_multiplicity
  _atom_site_fract_x
  _atom_site_fract_y
  _atom_site_fract_z
  _atom_site_occupancy
  Hg  Hg1       1.0  0.31600  0.15800  0.25000  1.0000
  Hg  Hg2       1.0  0.84200  0.15800  0.25000  1.0000
  Hg  Hg3       1.0  0.84200  0.68400  0.25000  1.0000
  Hg  Hg4       1.0  0.15800  0.31600  0.75000  1.0000
  Hg  Hg5       1.0  0.15800  0.84200  0.75000  1.0000
  Hg  Hg6       1.0  0.68400  0.84200  0.75000  1.0000
  Sr  Sr1       1.0  0.33300  0.66700  0.25000  1.0000
  Sr  Sr2       1.0  0.66700  0.33300  0.75000  1.0000
