data_image0
_chemical_formula_structural       RbS2Tm
_chemical_formula_sum              "Rb1 S2 Tm1"
_cell_length_a       4.01978
_cell_length_b       4.01978
_cell_length_c       7.99489
_cell_angle_alpha    75.4398
_cell_angle_beta     104.56
_cell_angle_gamma    120

_space_group_name_H-M_alt    "P 1"
_space_group_IT_number       1

loop_
  _space_group_symop_operation_xyz
  'x, y, z'

loop_
  _atom_site_type_symbol
  _atom_site_label
  _atom_site_symmetry_multiplicity
  _atom_site_fract_x
  _atom_site_fract_y
  _atom_site_fract_z
  _atom_site_occupancy
  Rb  Rb1       1.0  0.00000  0.00000  0.00000  1.0000
  S   S1        1.0  0.77000  0.23000  0.30900  1.0000
  S   S2        1.0  0.23000  0.77000  0.69100  1.0000
  Tm  Tm1       1.0  0.50000  0.50000  0.50000  1.0000
