data_image0
_chemical_formula_structural       LiO3
_chemical_formula_sum              "Li1 O3"
_cell_length_a       2.69256
_cell_length_b       3.86889
_cell_length_c       3.86889
_cell_angle_alpha    94.6099
_cell_angle_beta     69.6365
_cell_angle_gamma    110.364

_space_group_name_H-M_alt    "P 1"
_space_group_IT_number       1

loop_
  _space_group_symop_operation_xyz
  'x, y, z'

loop_
  _atom_site_type_symbol
  _atom_site_label
  _atom_site_symmetry_multiplicity
  _atom_site_fract_x
  _atom_site_fract_y
  _atom_site_fract_z
  _atom_site_occupancy
  Li  Li1       1.0  0.00000  0.48300  0.48300  1.0000
  O   O1        1.0  0.77800  0.90700  0.35000  1.0000
  O   O2        1.0  0.22200  0.35000  0.90700  1.0000
  O   O3        1.0  0.00000  0.98000  0.98000  1.0000
