data_image0
_chemical_formula_structural       LuRbS2
_chemical_formula_sum              "Lu1 Rb1 S2"
_cell_length_a       3.97723
_cell_length_b       3.97723
_cell_length_c       7.98445
_cell_angle_alpha    104.422
_cell_angle_beta     75.5781
_cell_angle_gamma    120

_space_group_name_H-M_alt    "P 1"
_space_group_IT_number       1

loop_
  _space_group_symop_operation_xyz
  'x, y, z'

loop_
  _atom_site_type_symbol
  _atom_site_label
  _atom_site_symmetry_multiplicity
  _atom_site_fract_x
  _atom_site_fract_y
  _atom_site_fract_z
  _atom_site_occupancy
  Lu  Lu1       1.0  0.50000  0.50000  0.50000  1.0000
  Rb  Rb1       1.0  0.00000  0.00000  0.00000  1.0000
  S   S1        1.0  0.22900  0.77100  0.31200  1.0000
  S   S2        1.0  0.77100  0.22900  0.68800  1.0000
