data_image0
_chemical_formula_structural       Er2Ge2
_chemical_formula_sum              "Er2 Ge2"
_cell_length_a       3.9297
_cell_length_b       4.24625
_cell_length_c       5.73067
_cell_angle_alpha    68.2545
_cell_angle_beta     90
_cell_angle_gamma    90

_space_group_name_H-M_alt    "P 1"
_space_group_IT_number       1

loop_
  _space_group_symop_operation_xyz
  'x, y, z'

loop_
  _atom_site_type_symbol
  _atom_site_label
  _atom_site_symmetry_multiplicity
  _atom_site_fract_x
  _atom_site_fract_y
  _atom_site_fract_z
  _atom_site_occupancy
  Er  Er1       1.0  0.25000  0.86100  0.27700  1.0000
  Er  Er2       1.0  0.75000  0.13900  0.72300  1.0000
  Ge  Ge1       1.0  0.75000  0.41400  0.17200  1.0000
  Ge  Ge2       1.0  0.25000  0.58600  0.82800  1.0000
