data_image0
_chemical_formula_structural       AgCrSe2
_chemical_formula_sum              "Ag1 Cr1 Se2"
_cell_length_a       3.72896
_cell_length_b       3.72896
_cell_length_c       7.36428
_cell_angle_alpha    90
_cell_angle_beta     104.666
_cell_angle_gamma    120

_space_group_name_H-M_alt    "P 1"
_space_group_IT_number       1

loop_
  _space_group_symop_operation_xyz
  'x, y, z'

loop_
  _atom_site_type_symbol
  _atom_site_label
  _atom_site_symmetry_multiplicity
  _atom_site_fract_x
  _atom_site_fract_y
  _atom_site_fract_z
  _atom_site_occupancy
  Ag  Ag1       1.0  0.30100  0.15100  0.45200  1.0000
  Cr  Cr1       1.0  0.99900  0.00000  0.99900  1.0000
  Se  Se1       1.0  0.46600  0.73300  0.19900  1.0000
  Se  Se2       1.0  0.54300  0.27100  0.81400  1.0000
