data_image0
_chemical_formula_structural       IIn3
_chemical_formula_sum              "I1 In3"
_cell_length_a       6.1919
_cell_length_b       6.1919
_cell_length_c       6.1919
_cell_angle_alpha    135.798
_cell_angle_beta     135.798
_cell_angle_gamma    64.2924

_space_group_name_H-M_alt    "P 1"
_space_group_IT_number       1

loop_
  _space_group_symop_operation_xyz
  'x, y, z'

loop_
  _atom_site_type_symbol
  _atom_site_label
  _atom_site_symmetry_multiplicity
  _atom_site_fract_x
  _atom_site_fract_y
  _atom_site_fract_z
  _atom_site_occupancy
  I   I1        1.0  0.00000  0.00000  0.00000  1.0000
  In  In1       1.0  0.75000  0.25000  0.50000  1.0000
  In  In2       1.0  0.25000  0.75000  0.50000  1.0000
  In  In3       1.0  0.50000  0.50000  0.00000  1.0000
