data_image0
_chemical_formula_structural       CoRe2U
_chemical_formula_sum              "Co1 Re2 U1"
_cell_length_a       4.46282
_cell_length_b       4.46282
_cell_length_c       4.46282
_cell_angle_alpha    59.9953
_cell_angle_beta     59.9953
_cell_angle_gamma    59.9953

_space_group_name_H-M_alt    "P 1"
_space_group_IT_number       1

loop_
  _space_group_symop_operation_xyz
  'x, y, z'

loop_
  _atom_site_type_symbol
  _atom_site_label
  _atom_site_symmetry_multiplicity
  _atom_site_fract_x
  _atom_site_fract_y
  _atom_site_fract_z
  _atom_site_occupancy
  Co  Co1       1.0  0.25000  0.25000  0.25000  1.0000
  Re  Re1       1.0  0.00010  0.00010  0.00010  1.0000
  Re  Re2       1.0  0.50000  0.50000  0.50000  1.0000
  U   U1        1.0  0.75000  0.75000  0.75000  1.0000
