data_image0
_chemical_formula_structural       B6Re2
_chemical_formula_sum              "B6 Re2"
_cell_length_a       3.12861
_cell_length_b       3.1288
_cell_length_c       7.64721
_cell_angle_alpha    90
_cell_angle_beta     90
_cell_angle_gamma    119.998

_space_group_name_H-M_alt    "P 1"
_space_group_IT_number       1

loop_
  _space_group_symop_operation_xyz
  'x, y, z'

loop_
  _atom_site_type_symbol
  _atom_site_label
  _atom_site_symmetry_multiplicity
  _atom_site_fract_x
  _atom_site_fract_y
  _atom_site_fract_z
  _atom_site_occupancy
  B   B1        1.0  0.00000  0.00000  0.00000  1.0000
  B   B2        1.0  0.66700  0.33300  0.05610  1.0000
  B   B3        1.0  0.66700  0.33300  0.44400  1.0000
  B   B4        1.0  0.00000  0.00000  0.50000  1.0000
  B   B5        1.0  0.33300  0.66700  0.55600  1.0000
  B   B6        1.0  0.33300  0.66700  0.94400  1.0000
  Re  Re1       1.0  0.33300  0.66700  0.25000  1.0000
  Re  Re2       1.0  0.66700  0.33300  0.75000  1.0000
