data_image0
_chemical_formula_structural       Cl12Cs2W2
_chemical_formula_sum              "Cl12 Cs2 W2"
_cell_length_a       6.36409
_cell_length_b       6.86192
_cell_length_c       12.3257
_cell_angle_alpha    100.781
_cell_angle_beta     90
_cell_angle_gamma    117.628

_space_group_name_H-M_alt    "P 1"
_space_group_IT_number       1

loop_
  _space_group_symop_operation_xyz
  'x, y, z'

loop_
  _atom_site_type_symbol
  _atom_site_label
  _atom_site_symmetry_multiplicity
  _atom_site_fract_x
  _atom_site_fract_y
  _atom_site_fract_z
  _atom_site_occupancy
  Cl  Cl1       1.0  0.60500  0.81100  0.04040  1.0000
  Cl  Cl2       1.0  0.03700  0.34000  0.10400  1.0000
  Cl  Cl3       1.0  0.13100  0.92800  0.15900  1.0000
  Cl  Cl4       1.0  0.70200  0.07190  0.34100  1.0000
  Cl  Cl5       1.0  0.19700  0.66000  0.39600  1.0000
  Cl  Cl6       1.0  0.29400  0.18900  0.46000  1.0000
  Cl  Cl7       1.0  0.70600  0.81100  0.54000  1.0000
  Cl  Cl8       1.0  0.80300  0.34000  0.60400  1.0000
  Cl  Cl9       1.0  0.29800  0.92800  0.65900  1.0000
  Cl  Cl10      1.0  0.86900  0.07190  0.84100  1.0000
  Cl  Cl11      1.0  0.96300  0.66000  0.89600  1.0000
  Cl  Cl12      1.0  0.39500  0.18900  0.96000  1.0000
  Cs  Cs1       1.0  0.61900  0.50000  0.25000  1.0000
  Cs  Cs2       1.0  0.38100  0.50000  0.75000  1.0000
  W   W1        1.0  0.00000  0.00000  0.00000  1.0000
  W   W2        1.0  0.50000  0.00000  0.50000  1.0000
