data_image0
_chemical_formula_structural       F6Pu2
_chemical_formula_sum              "F6 Pu2"
_cell_length_a       4.0499
_cell_length_b       4.05054
_cell_length_c       7.09186
_cell_angle_alpha    90
_cell_angle_beta     90
_cell_angle_gamma    120.005

_space_group_name_H-M_alt    "P 1"
_space_group_IT_number       1

loop_
  _space_group_symop_operation_xyz
  'x, y, z'

loop_
  _atom_site_type_symbol
  _atom_site_label
  _atom_site_symmetry_multiplicity
  _atom_site_fract_x
  _atom_site_fract_y
  _atom_site_fract_z
  _atom_site_occupancy
  F   F1        1.0  0.66700  0.33300  0.07910  1.0000
  F   F2        1.0  0.00002  0.00001  0.25000  1.0000
  F   F3        1.0  0.66700  0.33300  0.42100  1.0000
  F   F4        1.0  0.33300  0.66700  0.57900  1.0000
  F   F5        1.0  0.00000  0.00000  0.75000  1.0000
  F   F6        1.0  0.33300  0.66700  0.92100  1.0000
  Pu  Pu1       1.0  0.33300  0.66700  0.25000  1.0000
  Pu  Pu2       1.0  0.66700  0.33300  0.75000  1.0000
