data_image0
_chemical_formula_structural       As4Na4S8
_chemical_formula_sum              "As4 Na4 S8"
_cell_length_a       5.9163
_cell_length_b       5.6122
_cell_length_c       11.402
_cell_angle_alpha    90
_cell_angle_beta     90
_cell_angle_gamma    92.635

_space_group_name_H-M_alt    "P 1"
_space_group_IT_number       1

loop_
  _space_group_symop_operation_xyz
  'x, y, z'

loop_
  _atom_site_type_symbol
  _atom_site_label
  _atom_site_symmetry_multiplicity
  _atom_site_fract_x
  _atom_site_fract_y
  _atom_site_fract_z
  _atom_site_occupancy
  As  As1       1.0  0.04070  0.22300  0.14200  1.0000
  As  As2       1.0  0.04070  0.72300  0.35800  1.0000
  As  As3       1.0  0.95900  0.27700  0.64200  1.0000
  As  As4       1.0  0.95900  0.77700  0.85800  1.0000
  Na  Na1       1.0  0.49000  0.72900  0.12500  1.0000
  Na  Na2       1.0  0.49000  0.22900  0.37500  1.0000
  Na  Na3       1.0  0.51000  0.77100  0.62500  1.0000
  Na  Na4       1.0  0.51000  0.27100  0.87500  1.0000
  S   S1        1.0  0.41100  0.22400  0.12400  1.0000
  S   S2        1.0  0.97600  0.63400  0.15900  1.0000
  S   S3        1.0  0.97600  0.13400  0.34100  1.0000
  S   S4        1.0  0.41100  0.72400  0.37600  1.0000
  S   S5        1.0  0.58900  0.27600  0.62400  1.0000
  S   S6        1.0  0.02350  0.86600  0.65900  1.0000
  S   S7        1.0  0.02360  0.36600  0.84100  1.0000
  S   S8        1.0  0.58900  0.77600  0.87600  1.0000
