data_image0
_chemical_formula_structural       Cd2Cu4S8Si2
_chemical_formula_sum              "Cd2 Cu4 S8 Si2"
_cell_length_a       7.64294
_cell_length_b       6.47895
_cell_length_c       6.26623
_cell_angle_alpha    90
_cell_angle_beta     90
_cell_angle_gamma    90

_space_group_name_H-M_alt    "P 1"
_space_group_IT_number       1

loop_
  _space_group_symop_operation_xyz
  'x, y, z'

loop_
  _atom_site_type_symbol
  _atom_site_label
  _atom_site_symmetry_multiplicity
  _atom_site_fract_x
  _atom_site_fract_y
  _atom_site_fract_z
  _atom_site_occupancy
  Cd  Cd1       1.0  0.50000  0.65300  0.37200  1.0000
  Cd  Cd2       1.0  0.00000  0.34700  0.87200  1.0000
  Cu  Cu1       1.0  0.24900  0.17500  0.37000  1.0000
  Cu  Cu2       1.0  0.75100  0.17500  0.37000  1.0000
  Cu  Cu3       1.0  0.25100  0.82500  0.87000  1.0000
  Cu  Cu4       1.0  0.74900  0.82500  0.87000  1.0000
  S   S1        1.0  0.27600  0.15900  0.00444  1.0000
  S   S2        1.0  0.72400  0.15900  0.00444  1.0000
  S   S3        1.0  0.00000  0.70900  0.03310  1.0000
  S   S4        1.0  0.00000  0.35800  0.46400  1.0000
  S   S5        1.0  0.22400  0.84100  0.50400  1.0000
  S   S6        1.0  0.77600  0.84100  0.50400  1.0000
  S   S7        1.0  0.50000  0.29100  0.53300  1.0000
  S   S8        1.0  0.50000  0.64200  0.96400  1.0000
  Si  Si1       1.0  0.00000  0.68000  0.37600  1.0000
  Si  Si2       1.0  0.50000  0.32000  0.87600  1.0000
