data_image0
_chemical_formula_structural       Cl4Cu4Te8
_chemical_formula_sum              "Cl4 Cu4 Te8"
_cell_length_a       8.26146
_cell_length_b       5.03928
_cell_length_c       15.4017
_cell_angle_alpha    90
_cell_angle_beta     134.972
_cell_angle_gamma    90

_space_group_name_H-M_alt    "P 1"
_space_group_IT_number       1

loop_
  _space_group_symop_operation_xyz
  'x, y, z'

loop_
  _atom_site_type_symbol
  _atom_site_label
  _atom_site_symmetry_multiplicity
  _atom_site_fract_x
  _atom_site_fract_y
  _atom_site_fract_z
  _atom_site_occupancy
  Cl  Cl1       1.0  0.33600  0.39000  0.12400  1.0000
  Cl  Cl2       1.0  0.66400  0.89000  0.37600  1.0000
  Cl  Cl3       1.0  0.33600  0.11000  0.62400  1.0000
  Cl  Cl4       1.0  0.66400  0.61000  0.87600  1.0000
  Cu  Cu1       1.0  0.32400  0.64000  0.24800  1.0000
  Cu  Cu2       1.0  0.67600  0.14000  0.25200  1.0000
  Cu  Cu3       1.0  0.32400  0.86000  0.74800  1.0000
  Cu  Cu4       1.0  0.67600  0.36000  0.75200  1.0000
  Te  Te1       1.0  0.00595  0.98600  0.13700  1.0000
  Te  Te2       1.0  0.70100  0.79000  0.14100  1.0000
  Te  Te3       1.0  0.29900  0.29000  0.35900  1.0000
  Te  Te4       1.0  0.99400  0.48600  0.36300  1.0000
  Te  Te5       1.0  0.00595  0.51400  0.63700  1.0000
  Te  Te6       1.0  0.70100  0.71000  0.64100  1.0000
  Te  Te7       1.0  0.29900  0.21000  0.85900  1.0000
  Te  Te8       1.0  0.99400  0.01410  0.86300  1.0000
