data_image0
_chemical_formula_structural       As6Eu10
_chemical_formula_sum              "As6 Eu10"
_cell_length_a       8.80502
_cell_length_b       8.80502
_cell_length_c       6.90153
_cell_angle_alpha    90
_cell_angle_beta     90
_cell_angle_gamma    120

_space_group_name_H-M_alt    "P 1"
_space_group_IT_number       1

loop_
  _space_group_symop_operation_xyz
  'x, y, z'

loop_
  _atom_site_type_symbol
  _atom_site_label
  _atom_site_symmetry_multiplicity
  _atom_site_fract_x
  _atom_site_fract_y
  _atom_site_fract_z
  _atom_site_occupancy
  As  As1       1.0  0.60900  0.00000  0.25000  1.0000
  As  As2       1.0  0.00000  0.60900  0.25000  1.0000
  As  As3       1.0  0.39100  0.39100  0.25000  1.0000
  As  As4       1.0  0.39100  0.00000  0.75000  1.0000
  As  As5       1.0  0.00000  0.39100  0.75000  1.0000
  As  As6       1.0  0.60900  0.60900  0.75000  1.0000
  Eu  Eu1       1.0  0.66700  0.33300  0.00000  1.0000
  Eu  Eu2       1.0  0.33300  0.66700  0.00000  1.0000
  Eu  Eu3       1.0  0.74400  0.74400  0.25000  1.0000
  Eu  Eu4       1.0  0.25600  0.00000  0.25000  1.0000
  Eu  Eu5       1.0  0.00000  0.25600  0.25000  1.0000
  Eu  Eu6       1.0  0.66700  0.33300  0.50000  1.0000
  Eu  Eu7       1.0  0.33300  0.66700  0.50000  1.0000
  Eu  Eu8       1.0  0.25600  0.25600  0.75000  1.0000
  Eu  Eu9       1.0  0.74400  0.00001  0.75000  1.0000
  Eu  Eu10      1.0  0.00001  0.74400  0.75000  1.0000
