data_image0
_chemical_formula_structural       Be2N4Si2
_chemical_formula_sum              "Be2 N4 Si2"
_cell_length_a       4.05382
_cell_length_b       4.05382
_cell_length_c       4.97973
_cell_angle_alpha    114.019
_cell_angle_beta     114.019
_cell_angle_gamma    90

_space_group_name_H-M_alt    "P 1"
_space_group_IT_number       1

loop_
  _space_group_symop_operation_xyz
  'x, y, z'

loop_
  _atom_site_type_symbol
  _atom_site_label
  _atom_site_symmetry_multiplicity
  _atom_site_fract_x
  _atom_site_fract_y
  _atom_site_fract_z
  _atom_site_occupancy
  Be  Be1       1.0  0.00000  0.00000  0.00000  1.0000
  Be  Be2       1.0  0.25000  0.75000  0.50000  1.0000
  N   N1        1.0  0.37900  0.37500  0.25000  1.0000
  N   N2        1.0  0.87100  0.87500  0.25000  1.0000
  N   N3        1.0  0.62500  0.12900  0.75000  1.0000
  N   N4        1.0  0.12500  0.62100  0.75000  1.0000
  Si  Si1       1.0  0.50000  0.50000  0.00000  1.0000
  Si  Si2       1.0  0.75000  0.25000  0.50000  1.0000
