data_image0
_chemical_formula_structural       Ca2O10Si2Ti2
_chemical_formula_sum              "Ca2 O10 Si2 Ti2"
_cell_length_a       5.44729
_cell_length_b       5.44729
_cell_length_c       7.03661
_cell_angle_alpha    103.997
_cell_angle_beta     103.997
_cell_angle_gamma    106.101

_space_group_name_H-M_alt    "P 1"
_space_group_IT_number       1

loop_
  _space_group_symop_operation_xyz
  'x, y, z'

loop_
  _atom_site_type_symbol
  _atom_site_label
  _atom_site_symmetry_multiplicity
  _atom_site_fract_x
  _atom_site_fract_y
  _atom_site_fract_z
  _atom_site_occupancy
  Ca  Ca1       1.0  0.16900  0.83100  0.25000  1.0000
  Ca  Ca2       1.0  0.83100  0.16900  0.75000  1.0000
  O   O1        1.0  0.75100  0.88100  0.08570  1.0000
  O   O2        1.0  0.81800  0.39300  0.11800  1.0000
  O   O3        1.0  0.42700  0.57300  0.25000  1.0000
  O   O4        1.0  0.60700  0.18200  0.38200  1.0000
  O   O5        1.0  0.11900  0.24900  0.41400  1.0000
  O   O6        1.0  0.88100  0.75100  0.58600  1.0000
  O   O7        1.0  0.39300  0.81800  0.61800  1.0000
  O   O8        1.0  0.57300  0.42700  0.75000  1.0000
  O   O9        1.0  0.18200  0.60700  0.88200  1.0000
  O   O10       1.0  0.24900  0.11900  0.91400  1.0000
  Si  Si1       1.0  0.81800  0.18200  0.25000  1.0000
  Si  Si2       1.0  0.18200  0.81800  0.75000  1.0000
  Ti  Ti1       1.0  0.50000  0.50000  0.00000  1.0000
  Ti  Ti2       1.0  0.50000  0.50000  0.50000  1.0000
