data_image0
_chemical_formula_structural       Be2Li4O8Si2
_chemical_formula_sum              "Be2 Li4 O8 Si2"
_cell_length_a       4.84844
_cell_length_b       4.84844
_cell_length_c       6.11255
_cell_angle_alpha    90
_cell_angle_beta     90
_cell_angle_gamma    90.5969

_space_group_name_H-M_alt    "P 1"
_space_group_IT_number       1

loop_
  _space_group_symop_operation_xyz
  'x, y, z'

loop_
  _atom_site_type_symbol
  _atom_site_label
  _atom_site_symmetry_multiplicity
  _atom_site_fract_x
  _atom_site_fract_y
  _atom_site_fract_z
  _atom_site_occupancy
  Be  Be1       1.0  0.68100  0.68100  0.00000  1.0000
  Be  Be2       1.0  0.31900  0.31900  0.50000  1.0000
  Li  Li1       1.0  0.31600  0.31600  0.00000  1.0000
  Li  Li2       1.0  0.80300  0.19700  0.25000  1.0000
  Li  Li3       1.0  0.68400  0.68400  0.50000  1.0000
  Li  Li4       1.0  0.19700  0.80300  0.75000  1.0000
  O   O1        1.0  0.34400  0.71700  0.03200  1.0000
  O   O2        1.0  0.84400  0.77900  0.21900  1.0000
  O   O3        1.0  0.22100  0.15600  0.28100  1.0000
  O   O4        1.0  0.28300  0.65600  0.46800  1.0000
  O   O5        1.0  0.65600  0.28300  0.53200  1.0000
  O   O6        1.0  0.15600  0.22100  0.71900  1.0000
  O   O7        1.0  0.77900  0.84400  0.78100  1.0000
  O   O8        1.0  0.71700  0.34400  0.96800  1.0000
  Si  Si1       1.0  0.18000  0.82000  0.25000  1.0000
  Si  Si2       1.0  0.82000  0.18000  0.75000  1.0000
