data_image0
_chemical_formula_structural       Cu6P2Se8
_chemical_formula_sum              "Cu6 P2 Se8"
_cell_length_a       7.73514
_cell_length_b       6.70579
_cell_length_c       6.41946
_cell_angle_alpha    90
_cell_angle_beta     90
_cell_angle_gamma    90

_space_group_name_H-M_alt    "P 1"
_space_group_IT_number       1

loop_
  _space_group_symop_operation_xyz
  'x, y, z'

loop_
  _atom_site_type_symbol
  _atom_site_label
  _atom_site_symmetry_multiplicity
  _atom_site_fract_x
  _atom_site_fract_y
  _atom_site_fract_z
  _atom_site_occupancy
  Cu  Cu1       1.0  0.50000  0.84500  0.00028  1.0000
  Cu  Cu2       1.0  0.24900  0.32700  0.00594  1.0000
  Cu  Cu3       1.0  0.75100  0.32700  0.00594  1.0000
  Cu  Cu4       1.0  0.00000  0.15500  0.50000  1.0000
  Cu  Cu5       1.0  0.25100  0.67300  0.50600  1.0000
  Cu  Cu6       1.0  0.74900  0.67300  0.50600  1.0000
  P   P1        1.0  0.00000  0.82900  0.99800  1.0000
  P   P2        1.0  0.50000  0.17100  0.49800  1.0000
  Se  Se1       1.0  0.00000  0.82300  0.35600  1.0000
  Se  Se2       1.0  0.50000  0.85100  0.37600  1.0000
  Se  Se3       1.0  0.25600  0.33500  0.37900  1.0000
  Se  Se4       1.0  0.74400  0.33500  0.37900  1.0000
  Se  Se5       1.0  0.50000  0.17700  0.85600  1.0000
  Se  Se6       1.0  0.00000  0.14900  0.87600  1.0000
  Se  Se7       1.0  0.24400  0.66500  0.87900  1.0000
  Se  Se8       1.0  0.75600  0.66500  0.87900  1.0000
