data_image0
_chemical_formula_structural       Bi6In10
_chemical_formula_sum              "Bi6 In10"
_cell_length_a       8.49437
_cell_length_b       8.49437
_cell_length_c       8.76525
_cell_angle_alpha    118.983
_cell_angle_beta     118.983
_cell_angle_gamma    90

_space_group_name_H-M_alt    "P 1"
_space_group_IT_number       1

loop_
  _space_group_symop_operation_xyz
  'x, y, z'

loop_
  _atom_site_type_symbol
  _atom_site_label
  _atom_site_symmetry_multiplicity
  _atom_site_fract_x
  _atom_site_fract_y
  _atom_site_fract_z
  _atom_site_occupancy
  Bi  Bi1       1.0  0.34700  0.15300  0.00000  1.0000
  Bi  Bi2       1.0  0.84700  0.34700  0.00000  1.0000
  Bi  Bi3       1.0  0.15300  0.65300  0.00000  1.0000
  Bi  Bi4       1.0  0.65300  0.84700  0.00000  1.0000
  Bi  Bi5       1.0  0.25000  0.25000  0.50000  1.0000
  Bi  Bi6       1.0  0.75000  0.75000  0.50000  1.0000
  In  In1       1.0  0.00000  0.00000  0.00000  1.0000
  In  In2       1.0  0.50000  0.50000  0.00000  1.0000
  In  In3       1.0  0.52000  0.01990  0.33100  1.0000
  In  In4       1.0  0.81100  0.31100  0.33100  1.0000
  In  In5       1.0  0.31100  0.52000  0.33100  1.0000
  In  In6       1.0  0.01990  0.81100  0.33100  1.0000
  In  In7       1.0  0.98000  0.18900  0.66900  1.0000
  In  In8       1.0  0.68900  0.48000  0.66900  1.0000
  In  In9       1.0  0.18900  0.68900  0.66900  1.0000
  In  In10      1.0  0.48000  0.98000  0.66900  1.0000
