data_image0
_chemical_formula_structural       Bi2Na6O8
_chemical_formula_sum              "Bi2 Na6 O8"
_cell_length_a       5.81889
_cell_length_b       6.68183
_cell_length_c       5.66324
_cell_angle_alpha    90
_cell_angle_beta     109.863
_cell_angle_gamma    90

_space_group_name_H-M_alt    "P 1"
_space_group_IT_number       1

loop_
  _space_group_symop_operation_xyz
  'x, y, z'

loop_
  _atom_site_type_symbol
  _atom_site_label
  _atom_site_symmetry_multiplicity
  _atom_site_fract_x
  _atom_site_fract_y
  _atom_site_fract_z
  _atom_site_occupancy
  Bi  Bi1       1.0  0.00000  0.13800  0.25000  1.0000
  Bi  Bi2       1.0  0.00000  0.86200  0.75000  1.0000
  Na  Na1       1.0  0.50000  0.39600  0.25000  1.0000
  Na  Na2       1.0  0.50000  0.87100  0.25000  1.0000
  Na  Na3       1.0  0.00000  0.61800  0.25000  1.0000
  Na  Na4       1.0  0.00000  0.38200  0.75000  1.0000
  Na  Na5       1.0  0.50000  0.12900  0.75000  1.0000
  Na  Na6       1.0  0.50000  0.60400  0.75000  1.0000
  O   O1        1.0  0.21300  0.10300  0.99900  1.0000
  O   O2        1.0  0.78700  0.89700  0.00090  1.0000
  O   O3        1.0  0.76300  0.34900  0.02840  1.0000
  O   O4        1.0  0.23700  0.34900  0.47200  1.0000
  O   O5        1.0  0.21300  0.89700  0.49900  1.0000
  O   O6        1.0  0.78700  0.10300  0.50100  1.0000
  O   O7        1.0  0.76300  0.65100  0.52800  1.0000
  O   O8        1.0  0.23700  0.65100  0.97200  1.0000
