data_image0
_chemical_formula_structural       Sn6Sr10
_chemical_formula_sum              "Sn6 Sr10"
_cell_length_a       8.5881
_cell_length_b       8.5881
_cell_length_c       10.1663
_cell_angle_alpha    114.985
_cell_angle_beta     114.985
_cell_angle_gamma    90

_space_group_name_H-M_alt    "P 1"
_space_group_IT_number       1

loop_
  _space_group_symop_operation_xyz
  'x, y, z'

loop_
  _atom_site_type_symbol
  _atom_site_label
  _atom_site_symmetry_multiplicity
  _atom_site_fract_x
  _atom_site_fract_y
  _atom_site_fract_z
  _atom_site_occupancy
  Sn  Sn1       1.0  0.62100  0.12100  0.00000  1.0000
  Sn  Sn2       1.0  0.12100  0.37900  0.00000  1.0000
  Sn  Sn3       1.0  0.87900  0.62100  0.00000  1.0000
  Sn  Sn4       1.0  0.37900  0.87900  0.00000  1.0000
  Sn  Sn5       1.0  0.25000  0.25000  0.50000  1.0000
  Sn  Sn6       1.0  0.75000  0.75000  0.50000  1.0000
  Sr  Sr1       1.0  0.00000  0.00000  0.00000  1.0000
  Sr  Sr2       1.0  0.50000  0.50000  0.00000  1.0000
  Sr  Sr3       1.0  0.46600  0.31900  0.28500  1.0000
  Sr  Sr4       1.0  0.96600  0.46600  0.28500  1.0000
  Sr  Sr5       1.0  0.31900  0.81900  0.28500  1.0000
  Sr  Sr6       1.0  0.81900  0.96600  0.28500  1.0000
  Sr  Sr7       1.0  0.18100  0.03400  0.71500  1.0000
  Sr  Sr8       1.0  0.68100  0.18100  0.71500  1.0000
  Sr  Sr9       1.0  0.03400  0.53400  0.71500  1.0000
  Sr  Sr10      1.0  0.53400  0.68100  0.71500  1.0000
