data_image0
_chemical_formula_structural       Na6O8Sb2
_chemical_formula_sum              "Na6 O8 Sb2"
_cell_length_a       5.76417
_cell_length_b       6.56733
_cell_length_c       5.4279
_cell_angle_alpha    90
_cell_angle_beta     109.569
_cell_angle_gamma    90

_space_group_name_H-M_alt    "P 1"
_space_group_IT_number       1

loop_
  _space_group_symop_operation_xyz
  'x, y, z'

loop_
  _atom_site_type_symbol
  _atom_site_label
  _atom_site_symmetry_multiplicity
  _atom_site_fract_x
  _atom_site_fract_y
  _atom_site_fract_z
  _atom_site_occupancy
  Na  Na1       1.0  0.00000  0.61600  0.25000  1.0000
  Na  Na2       1.0  0.50000  0.39600  0.25000  1.0000
  Na  Na3       1.0  0.50000  0.87400  0.25000  1.0000
  Na  Na4       1.0  0.00000  0.38400  0.75000  1.0000
  Na  Na5       1.0  0.50000  0.12600  0.75000  1.0000
  Na  Na6       1.0  0.50000  0.60400  0.75000  1.0000
  O   O1        1.0  0.80000  0.90200  0.99900  1.0000
  O   O2        1.0  0.20000  0.09780  0.00059  1.0000
  O   O3        1.0  0.77100  0.33600  0.03810  1.0000
  O   O4        1.0  0.22900  0.33600  0.46200  1.0000
  O   O5        1.0  0.80000  0.09780  0.49900  1.0000
  O   O6        1.0  0.20000  0.90200  0.50100  1.0000
  O   O7        1.0  0.77100  0.66400  0.53800  1.0000
  O   O8        1.0  0.22900  0.66400  0.96200  1.0000
  Sb  Sb1       1.0  0.00000  0.13300  0.25000  1.0000
  Sb  Sb2       1.0  0.00000  0.86700  0.75000  1.0000
