data_image0
_chemical_formula_structural       Ag4Er4Se8
_chemical_formula_sum              "Ag4 Er4 Se8"
_cell_length_a       6.83561
_cell_length_b       13.7368
_cell_length_c       4.21846
_cell_angle_alpha    90
_cell_angle_beta     90
_cell_angle_gamma    90

_space_group_name_H-M_alt    "P 1"
_space_group_IT_number       1

loop_
  _space_group_symop_operation_xyz
  'x, y, z'

loop_
  _atom_site_type_symbol
  _atom_site_label
  _atom_site_symmetry_multiplicity
  _atom_site_fract_x
  _atom_site_fract_y
  _atom_site_fract_z
  _atom_site_occupancy
  Ag  Ag1       1.0  0.29400  0.37800  0.00115  1.0000
  Ag  Ag2       1.0  0.70600  0.87800  0.49900  1.0000
  Ag  Ag3       1.0  0.20600  0.62200  0.50100  1.0000
  Ag  Ag4       1.0  0.79400  0.12200  0.99900  1.0000
  Er  Er1       1.0  0.29000  0.12900  0.22700  1.0000
  Er  Er2       1.0  0.71000  0.62900  0.27300  1.0000
  Er  Er3       1.0  0.21000  0.87100  0.72700  1.0000
  Er  Er4       1.0  0.79000  0.37100  0.77300  1.0000
  Se  Se1       1.0  0.41300  0.77300  0.22800  1.0000
  Se  Se2       1.0  0.01530  0.97200  0.23200  1.0000
  Se  Se3       1.0  0.98500  0.47200  0.26800  1.0000
  Se  Se4       1.0  0.58700  0.27300  0.27200  1.0000
  Se  Se5       1.0  0.08690  0.22700  0.72800  1.0000
  Se  Se6       1.0  0.48500  0.02770  0.73200  1.0000
  Se  Se7       1.0  0.51500  0.52800  0.76800  1.0000
  Se  Se8       1.0  0.91300  0.72700  0.77200  1.0000
