data_image0
_chemical_formula_structural       Pd10Pu6
_chemical_formula_sum              "Pd10 Pu6"
_cell_length_a       5.84101
_cell_length_b       5.84101
_cell_length_c       9.78712
_cell_angle_alpha    90
_cell_angle_beta     90
_cell_angle_gamma    75.9939

_space_group_name_H-M_alt    "P 1"
_space_group_IT_number       1

loop_
  _space_group_symop_operation_xyz
  'x, y, z'

loop_
  _atom_site_type_symbol
  _atom_site_label
  _atom_site_symmetry_multiplicity
  _atom_site_fract_x
  _atom_site_fract_y
  _atom_site_fract_z
  _atom_site_occupancy
  Pd  Pd1       1.0  0.68500  0.31500  0.04850  1.0000
  Pd  Pd2       1.0  0.97600  0.02370  0.25000  1.0000
  Pd  Pd3       1.0  0.48900  0.06490  0.25000  1.0000
  Pd  Pd4       1.0  0.93500  0.51100  0.25000  1.0000
  Pd  Pd5       1.0  0.68500  0.31500  0.45100  1.0000
  Pd  Pd6       1.0  0.31500  0.68500  0.54900  1.0000
  Pd  Pd7       1.0  0.06490  0.48900  0.75000  1.0000
  Pd  Pd8       1.0  0.51100  0.93500  0.75000  1.0000
  Pd  Pd9       1.0  0.02370  0.97600  0.75000  1.0000
  Pd  Pd10      1.0  0.31500  0.68500  0.95100  1.0000
  Pu  Pu1       1.0  0.20300  0.20300  0.00000  1.0000
  Pu  Pu2       1.0  0.79700  0.79700  0.00000  1.0000
  Pu  Pu3       1.0  0.37400  0.62600  0.25000  1.0000
  Pu  Pu4       1.0  0.20300  0.20300  0.50000  1.0000
  Pu  Pu5       1.0  0.79700  0.79700  0.50000  1.0000
  Pu  Pu6       1.0  0.62600  0.37400  0.75000  1.0000
