data_image0
_chemical_formula_structural       Ge4N8Zn4
_chemical_formula_sum              "Ge4 N8 Zn4"
_cell_length_a       5.46621
_cell_length_b       6.45389
_cell_length_c       5.21255
_cell_angle_alpha    90
_cell_angle_beta     90
_cell_angle_gamma    90

_space_group_name_H-M_alt    "P 1"
_space_group_IT_number       1

loop_
  _space_group_symop_operation_xyz
  'x, y, z'

loop_
  _atom_site_type_symbol
  _atom_site_label
  _atom_site_symmetry_multiplicity
  _atom_site_fract_x
  _atom_site_fract_y
  _atom_site_fract_z
  _atom_site_occupancy
  Ge  Ge1       1.0  0.07670  0.12500  0.00000  1.0000
  Ge  Ge2       1.0  0.57700  0.37500  0.00000  1.0000
  Ge  Ge3       1.0  0.42300  0.62500  0.50000  1.0000
  Ge  Ge4       1.0  0.92300  0.87500  0.50000  1.0000
  N   N1        1.0  0.06590  0.11100  0.35900  1.0000
  N   N2        1.0  0.56600  0.38900  0.35900  1.0000
  N   N3        1.0  0.09770  0.64000  0.39200  1.0000
  N   N4        1.0  0.59800  0.86000  0.39200  1.0000
  N   N5        1.0  0.43400  0.61100  0.85900  1.0000
  N   N6        1.0  0.93400  0.88900  0.85900  1.0000
  N   N7        1.0  0.40200  0.14000  0.89200  1.0000
  N   N8        1.0  0.90200  0.36000  0.89200  1.0000
  Zn  Zn1       1.0  0.08380  0.62400  0.99900  1.0000
  Zn  Zn2       1.0  0.58400  0.87600  0.99900  1.0000
  Zn  Zn3       1.0  0.41600  0.12400  0.49900  1.0000
  Zn  Zn4       1.0  0.91600  0.37600  0.49900  1.0000
