data_image0
_chemical_formula_structural       Ag2Cl2O4
_chemical_formula_sum              "Ag2 Cl2 O4"
_cell_length_a       4.42603
_cell_length_b       4.42603
_cell_length_c       6.59768
_cell_angle_alpha    90
_cell_angle_beta     90
_cell_angle_gamma    95.3083

_space_group_name_H-M_alt    "P 1"
_space_group_IT_number       1

loop_
  _space_group_symop_operation_xyz
  'x, y, z'

loop_
  _atom_site_type_symbol
  _atom_site_label
  _atom_site_symmetry_multiplicity
  _atom_site_fract_x
  _atom_site_fract_y
  _atom_site_fract_z
  _atom_site_occupancy
  Ag  Ag1       1.0  0.25000  0.25000  0.42200  1.0000
  Ag  Ag2       1.0  0.75000  0.75000  0.57800  1.0000
  Cl  Cl1       1.0  0.75000  0.75000  0.11500  1.0000
  Cl  Cl2       1.0  0.25000  0.25000  0.88500  1.0000
  O   O1        1.0  0.94000  0.56000  0.26700  1.0000
  O   O2        1.0  0.56000  0.94000  0.26700  1.0000
  O   O3        1.0  0.44000  0.06010  0.73300  1.0000
  O   O4        1.0  0.06010  0.44000  0.73300  1.0000
