data_image0
_chemical_formula_structural       Nb4Ni4P8
_chemical_formula_sum              "Nb4 Ni4 P8"
_cell_length_a       5.39875
_cell_length_b       3.35199
_cell_length_c       12.1784
_cell_angle_alpha    90
_cell_angle_beta     90
_cell_angle_gamma    90

_space_group_name_H-M_alt    "P 1"
_space_group_IT_number       1

loop_
  _space_group_symop_operation_xyz
  'x, y, z'

loop_
  _atom_site_type_symbol
  _atom_site_label
  _atom_site_symmetry_multiplicity
  _atom_site_fract_x
  _atom_site_fract_y
  _atom_site_fract_z
  _atom_site_occupancy
  Nb  Nb1       1.0  0.98400  0.25000  0.17000  1.0000
  Nb  Nb2       1.0  0.48400  0.25000  0.33000  1.0000
  Nb  Nb3       1.0  0.51600  0.75000  0.67000  1.0000
  Nb  Nb4       1.0  0.01560  0.75000  0.83000  1.0000
  Ni  Ni1       1.0  0.48100  0.25000  0.08510  1.0000
  Ni  Ni2       1.0  0.98100  0.25000  0.41500  1.0000
  Ni  Ni3       1.0  0.01920  0.75000  0.58500  1.0000
  Ni  Ni4       1.0  0.51900  0.75000  0.91500  1.0000
  P   P1        1.0  0.19100  0.75000  0.03630  1.0000
  P   P2        1.0  0.63600  0.75000  0.19000  1.0000
  P   P3        1.0  0.13600  0.75000  0.31000  1.0000
  P   P4        1.0  0.69100  0.75000  0.46400  1.0000
  P   P5        1.0  0.30900  0.25000  0.53600  1.0000
  P   P6        1.0  0.86400  0.25000  0.69000  1.0000
  P   P7        1.0  0.36400  0.25000  0.81000  1.0000
  P   P8        1.0  0.80900  0.25000  0.96400  1.0000
