data_image0
_chemical_formula_structural       RbS2Sn
_chemical_formula_sum              "Rb1 S2 Sn1"
_cell_length_a       4.03962
_cell_length_b       4.03962
_cell_length_c       8.14052
_cell_angle_alpha    104.366
_cell_angle_beta     75.6338
_cell_angle_gamma    120

_space_group_name_H-M_alt    "P 1"
_space_group_IT_number       1

loop_
  _space_group_symop_operation_xyz
  'x, y, z'

loop_
  _atom_site_type_symbol
  _atom_site_label
  _atom_site_symmetry_multiplicity
  _atom_site_fract_x
  _atom_site_fract_y
  _atom_site_fract_z
  _atom_site_occupancy
  Rb  Rb1       1.0  0.82200  0.17800  0.53300  1.0000
  S   S1        1.0  0.59200  0.40800  0.22500  1.0000
  S   S2        1.0  0.38700  0.61300  0.84000  1.0000
  Sn  Sn1       1.0  0.98900  0.01060  0.03170  1.0000
