data_image0
_chemical_formula_structural       Bi2NpRh
_chemical_formula_sum              "Bi2 Np1 Rh1"
_cell_length_a       5.03964
_cell_length_b       5.03964
_cell_length_c       5.03964
_cell_angle_alpha    63.0124
_cell_angle_beta     63.0124
_cell_angle_gamma    63.0124

_space_group_name_H-M_alt    "P 1"
_space_group_IT_number       1

loop_
  _space_group_symop_operation_xyz
  'x, y, z'

loop_
  _atom_site_type_symbol
  _atom_site_label
  _atom_site_symmetry_multiplicity
  _atom_site_fract_x
  _atom_site_fract_y
  _atom_site_fract_z
  _atom_site_occupancy
  Bi  Bi1       1.0  0.99300  0.99300  0.99300  1.0000
  Bi  Bi2       1.0  0.50700  0.50700  0.50700  1.0000
  Np  Np1       1.0  0.25000  0.25000  0.25000  1.0000
  Rh  Rh1       1.0  0.75000  0.75000  0.75000  1.0000
