data_image0
_chemical_formula_structural       Ba2Bi4Zn2
_chemical_formula_sum              "Ba2 Bi4 Zn2"
_cell_length_a       4.70012
_cell_length_b       4.70012
_cell_length_c       12.1728
_cell_angle_alpha    101.131
_cell_angle_beta     101.131
_cell_angle_gamma    90

_space_group_name_H-M_alt    "P 1"
_space_group_IT_number       1

loop_
  _space_group_symop_operation_xyz
  'x, y, z'

loop_
  _atom_site_type_symbol
  _atom_site_label
  _atom_site_symmetry_multiplicity
  _atom_site_fract_x
  _atom_site_fract_y
  _atom_site_fract_z
  _atom_site_occupancy
  Ba  Ba1       1.0  0.12200  0.12200  0.24300  1.0000
  Ba  Ba2       1.0  0.87800  0.87800  0.75700  1.0000
  Bi  Bi1       1.0  0.50000  0.00000  0.00000  1.0000
  Bi  Bi2       1.0  0.00000  0.50000  0.00000  1.0000
  Bi  Bi3       1.0  0.67800  0.67800  0.35600  1.0000
  Bi  Bi4       1.0  0.32200  0.32200  0.64400  1.0000
  Zn  Zn1       1.0  0.75000  0.25000  0.50000  1.0000
  Zn  Zn2       1.0  0.25000  0.75000  0.50000  1.0000
