data_image0
_chemical_formula_structural       Bi4Cd2Sr2
_chemical_formula_sum              "Bi4 Cd2 Sr2"
_cell_length_a       4.6866
_cell_length_b       4.6866
_cell_length_c       11.9264
_cell_angle_alpha    101.331
_cell_angle_beta     101.331
_cell_angle_gamma    90

_space_group_name_H-M_alt    "P 1"
_space_group_IT_number       1

loop_
  _space_group_symop_operation_xyz
  'x, y, z'

loop_
  _atom_site_type_symbol
  _atom_site_label
  _atom_site_symmetry_multiplicity
  _atom_site_fract_x
  _atom_site_fract_y
  _atom_site_fract_z
  _atom_site_occupancy
  Bi  Bi1       1.0  0.50000  0.00000  0.00000  1.0000
  Bi  Bi2       1.0  0.00000  0.50000  0.00000  1.0000
  Bi  Bi3       1.0  0.66200  0.66200  0.32400  1.0000
  Bi  Bi4       1.0  0.33800  0.33800  0.67600  1.0000
  Cd  Cd1       1.0  0.75000  0.25000  0.50000  1.0000
  Cd  Cd2       1.0  0.25000  0.75000  0.50000  1.0000
  Sr  Sr1       1.0  0.11700  0.11700  0.23400  1.0000
  Sr  Sr2       1.0  0.88300  0.88300  0.76600  1.0000
