data_image0
_chemical_formula_structural       Ta3Te
_chemical_formula_sum              "Ta3 Te1"
_cell_length_a       5.35506
_cell_length_b       5.35506
_cell_length_c       5.35506
_cell_angle_alpha    134.978
_cell_angle_beta     134.978
_cell_angle_gamma    65.5646

_space_group_name_H-M_alt    "P 1"
_space_group_IT_number       1

loop_
  _space_group_symop_operation_xyz
  'x, y, z'

loop_
  _atom_site_type_symbol
  _atom_site_label
  _atom_site_symmetry_multiplicity
  _atom_site_fract_x
  _atom_site_fract_y
  _atom_site_fract_z
  _atom_site_occupancy
  Ta  Ta1       1.0  0.75000  0.25000  0.50000  1.0000
  Ta  Ta2       1.0  0.25000  0.75000  0.50000  1.0000
  Ta  Ta3       1.0  0.50000  0.50000  0.00000  1.0000
  Te  Te1       1.0  0.00000  0.00000  0.00000  1.0000
