data_image0
_chemical_formula_structural       Ir9La3
_chemical_formula_sum              "Ir9 La3"
_cell_length_a       5.40777
_cell_length_b       5.40777
_cell_length_c       9.42349
_cell_angle_alpha    73.3257
_cell_angle_beta     106.674
_cell_angle_gamma    120

_space_group_name_H-M_alt    "P 1"
_space_group_IT_number       1

loop_
  _space_group_symop_operation_xyz
  'x, y, z'

loop_
  _atom_site_type_symbol
  _atom_site_label
  _atom_site_symmetry_multiplicity
  _atom_site_fract_x
  _atom_site_fract_y
  _atom_site_fract_z
  _atom_site_occupancy
  Ir  Ir1       1.0  0.33200  0.66800  0.99500  1.0000
  Ir  Ir2       1.0  0.66800  0.33200  0.00524  1.0000
  Ir  Ir3       1.0  0.08460  0.42200  0.24100  1.0000
  Ir  Ir4       1.0  0.57800  0.42200  0.24100  1.0000
  Ir  Ir5       1.0  0.57800  0.91500  0.24100  1.0000
  Ir  Ir6       1.0  0.50000  0.50000  0.50000  1.0000
  Ir  Ir7       1.0  0.42200  0.08460  0.75900  1.0000
  Ir  Ir8       1.0  0.42200  0.57800  0.75900  1.0000
  Ir  Ir9       1.0  0.91500  0.57800  0.75900  1.0000
  La  La1       1.0  0.00000  0.00000  0.00000  1.0000
  La  La2       1.0  0.14000  0.86000  0.41900  1.0000
  La  La3       1.0  0.86000  0.14000  0.58100  1.0000
