data_image0
_chemical_formula_structural       Hg6Th2
_chemical_formula_sum              "Hg6 Th2"
_cell_length_a       6.82872
_cell_length_b       6.82878
_cell_length_c       5.04535
_cell_angle_alpha    90
_cell_angle_beta     90
_cell_angle_gamma    120

_space_group_name_H-M_alt    "P 1"
_space_group_IT_number       1

loop_
  _space_group_symop_operation_xyz
  'x, y, z'

loop_
  _atom_site_type_symbol
  _atom_site_label
  _atom_site_symmetry_multiplicity
  _atom_site_fract_x
  _atom_site_fract_y
  _atom_site_fract_z
  _atom_site_occupancy
  Hg  Hg1       1.0  0.32600  0.16300  0.25000  1.0000
  Hg  Hg2       1.0  0.83700  0.16300  0.25000  1.0000
  Hg  Hg3       1.0  0.83700  0.67400  0.25000  1.0000
  Hg  Hg4       1.0  0.16300  0.32600  0.75000  1.0000
  Hg  Hg5       1.0  0.16300  0.83700  0.75000  1.0000
  Hg  Hg6       1.0  0.67400  0.83700  0.75000  1.0000
  Th  Th1       1.0  0.33300  0.66700  0.25000  1.0000
  Th  Th2       1.0  0.66700  0.33300  0.75000  1.0000
