data_image0
_chemical_formula_structural       Mg2Tm4
_chemical_formula_sum              "Mg2 Tm4"
_cell_length_a       5.53063
_cell_length_b       5.91696
_cell_length_c       5.91696
_cell_angle_alpha    60
_cell_angle_beta     90
_cell_angle_gamma    90

_space_group_name_H-M_alt    "P 1"
_space_group_IT_number       1

loop_
  _space_group_symop_operation_xyz
  'x, y, z'

loop_
  _atom_site_type_symbol
  _atom_site_label
  _atom_site_symmetry_multiplicity
  _atom_site_fract_x
  _atom_site_fract_y
  _atom_site_fract_z
  _atom_site_occupancy
  Mg  Mg1       1.0  0.50000  0.66700  0.33300  1.0000
  Mg  Mg2       1.0  0.50000  0.00000  0.66700  1.0000
  Tm  Tm1       1.0  0.00000  0.99400  0.00000  1.0000
  Tm  Tm2       1.0  0.50000  0.33300  0.00000  1.0000
  Tm  Tm3       1.0  0.00000  0.33300  0.33900  1.0000
  Tm  Tm4       1.0  0.00000  0.67300  0.66100  1.0000
