data_image0
_chemical_formula_structural       Be9Nb3
_chemical_formula_sum              "Be9 Nb3"
_cell_length_a       4.56268
_cell_length_b       4.56268
_cell_length_c       7.48551
_cell_angle_alpha    72.2558
_cell_angle_beta     107.744
_cell_angle_gamma    120

_space_group_name_H-M_alt    "P 1"
_space_group_IT_number       1

loop_
  _space_group_symop_operation_xyz
  'x, y, z'

loop_
  _atom_site_type_symbol
  _atom_site_label
  _atom_site_symmetry_multiplicity
  _atom_site_fract_x
  _atom_site_fract_y
  _atom_site_fract_z
  _atom_site_occupancy
  Be  Be1       1.0  0.33400  0.66600  0.00296  1.0000
  Be  Be2       1.0  0.58400  0.41600  0.24300  1.0000
  Be  Be3       1.0  0.07570  0.41600  0.24300  1.0000
  Be  Be4       1.0  0.58400  0.92400  0.24300  1.0000
  Be  Be5       1.0  0.50000  0.50000  0.50000  1.0000
  Be  Be6       1.0  0.41600  0.07570  0.75700  1.0000
  Be  Be7       1.0  0.92400  0.58400  0.75700  1.0000
  Be  Be8       1.0  0.41600  0.58400  0.75700  1.0000
  Be  Be9       1.0  0.66600  0.33400  0.99700  1.0000
  Nb  Nb1       1.0  0.00000  0.00000  0.00000  1.0000
  Nb  Nb2       1.0  0.14000  0.86000  0.42000  1.0000
  Nb  Nb3       1.0  0.86000  0.14000  0.58000  1.0000
