data_image0
_chemical_formula_structural       Cd4Cu2Er2
_chemical_formula_sum              "Cd4 Cu2 Er2"
_cell_length_a       4.54022
_cell_length_b       6.29585
_cell_length_c       6.29585
_cell_angle_alpha    111.758
_cell_angle_beta     90
_cell_angle_gamma    90

_space_group_name_H-M_alt    "P 1"
_space_group_IT_number       1

loop_
  _space_group_symop_operation_xyz
  'x, y, z'

loop_
  _atom_site_type_symbol
  _atom_site_label
  _atom_site_symmetry_multiplicity
  _atom_site_fract_x
  _atom_site_fract_y
  _atom_site_fract_z
  _atom_site_occupancy
  Cd  Cd1       1.0  0.75000  0.39100  0.19500  1.0000
  Cd  Cd2       1.0  0.25000  0.19500  0.39100  1.0000
  Cd  Cd3       1.0  0.75000  0.80500  0.60900  1.0000
  Cd  Cd4       1.0  0.25000  0.60900  0.80500  1.0000
  Cu  Cu1       1.0  0.25000  0.67700  0.32300  1.0000
  Cu  Cu2       1.0  0.75000  0.32300  0.67700  1.0000
  Er  Er1       1.0  0.75000  0.86300  0.13700  1.0000
  Er  Er2       1.0  0.25000  0.13700  0.86300  1.0000
