data_image0
_chemical_formula_structural       Cd4La2Pd2
_chemical_formula_sum              "Cd4 La2 Pd2"
_cell_length_a       4.34812
_cell_length_b       5.52893
_cell_length_c       8.45498
_cell_angle_alpha    90
_cell_angle_beta     90
_cell_angle_gamma    66.8453

_space_group_name_H-M_alt    "P 1"
_space_group_IT_number       1

loop_
  _space_group_symop_operation_xyz
  'x, y, z'

loop_
  _atom_site_type_symbol
  _atom_site_label
  _atom_site_symmetry_multiplicity
  _atom_site_fract_x
  _atom_site_fract_y
  _atom_site_fract_z
  _atom_site_occupancy
  Cd  Cd1       1.0  0.64500  0.71100  0.04970  1.0000
  Cd  Cd2       1.0  0.64500  0.71100  0.45000  1.0000
  Cd  Cd3       1.0  0.35500  0.28900  0.55000  1.0000
  Cd  Cd4       1.0  0.35500  0.28900  0.95000  1.0000
  La  La1       1.0  0.93600  0.12800  0.25000  1.0000
  La  La2       1.0  0.06400  0.87200  0.75000  1.0000
  Pd  Pd1       1.0  0.22100  0.55800  0.25000  1.0000
  Pd  Pd2       1.0  0.77900  0.44200  0.75000  1.0000
