data_image0
_chemical_formula_structural       Er2Mg
_chemical_formula_sum              "Er2 Mg1"
_cell_length_a       3.682
_cell_length_b       3.682
_cell_length_c       6.70947
_cell_angle_alpha    105.926
_cell_angle_beta     105.926
_cell_angle_gamma    90

_space_group_name_H-M_alt    "P 1"
_space_group_IT_number       1

loop_
  _space_group_symop_operation_xyz
  'x, y, z'

loop_
  _atom_site_type_symbol
  _atom_site_label
  _atom_site_symmetry_multiplicity
  _atom_site_fract_x
  _atom_site_fract_y
  _atom_site_fract_z
  _atom_site_occupancy
  Er  Er1       1.0  0.65800  0.65800  0.31500  1.0000
  Er  Er2       1.0  0.34200  0.34200  0.68500  1.0000
  Mg  Mg1       1.0  0.00000  0.00000  0.00000  1.0000
