data_image0
_chemical_formula_structural       F2HNa
_chemical_formula_sum              "F2 H1 Na1"
_cell_length_a       4.95036
_cell_length_b       4.95036
_cell_length_c       4.95036
_cell_angle_alpha    38.6691
_cell_angle_beta     38.6691
_cell_angle_gamma    38.6691

_space_group_name_H-M_alt    "P 1"
_space_group_IT_number       1

loop_
  _space_group_symop_operation_xyz
  'x, y, z'

loop_
  _atom_site_type_symbol
  _atom_site_label
  _atom_site_symmetry_multiplicity
  _atom_site_fract_x
  _atom_site_fract_y
  _atom_site_fract_z
  _atom_site_occupancy
  F   F1        1.0  0.41700  0.41700  0.41700  1.0000
  F   F2        1.0  0.58300  0.58300  0.58300  1.0000
  H   H1        1.0  0.50000  0.50000  0.50000  1.0000
  Na  Na1       1.0  0.00000  0.00000  0.00000  1.0000
