data_image0
_chemical_formula_structural       AlBaHSi
_chemical_formula_sum              "Al1 Ba1 H1 Si1"
_cell_length_a       4.32706
_cell_length_b       4.32696
_cell_length_c       5.20723
_cell_angle_alpha    90
_cell_angle_beta     90.0005
_cell_angle_gamma    119.999

_space_group_name_H-M_alt    "P 1"
_space_group_IT_number       1

loop_
  _space_group_symop_operation_xyz
  'x, y, z'

loop_
  _atom_site_type_symbol
  _atom_site_label
  _atom_site_symmetry_multiplicity
  _atom_site_fract_x
  _atom_site_fract_y
  _atom_site_fract_z
  _atom_site_occupancy
  Al  Al1       1.0  0.66700  0.33300  0.53300  1.0000
  Ba  Ba1       1.0  0.00000  0.00000  0.99900  1.0000
  H   H1        1.0  0.66700  0.33300  0.86800  1.0000
  Si  Si1       1.0  0.33300  0.66700  0.45700  1.0000
