data_image0
_chemical_formula_structural       N2W
_chemical_formula_sum              "N2 W1"
_cell_length_a       3.30109
_cell_length_b       3.30109
_cell_length_c       3.6585
_cell_angle_alpha    63.1823
_cell_angle_beta     116.818
_cell_angle_gamma    120

_space_group_name_H-M_alt    "P 1"
_space_group_IT_number       1

loop_
  _space_group_symop_operation_xyz
  'x, y, z'

loop_
  _atom_site_type_symbol
  _atom_site_label
  _atom_site_symmetry_multiplicity
  _atom_site_fract_x
  _atom_site_fract_y
  _atom_site_fract_z
  _atom_site_occupancy
  N   N1        1.0  0.76100  0.23900  0.28200  1.0000
  N   N2        1.0  0.23900  0.76100  0.71800  1.0000
  W   W1        1.0  0.00000  0.00000  0.00000  1.0000
