data_image0
_chemical_formula_structural       CdHgO2
_chemical_formula_sum              "Cd1 Hg1 O2"
_cell_length_a       3.44746
_cell_length_b       3.44746
_cell_length_c       5.94131
_cell_angle_alpha    91.5657
_cell_angle_beta     91.5657
_cell_angle_gamma    60.2272

_space_group_name_H-M_alt    "P 1"
_space_group_IT_number       1

loop_
  _space_group_symop_operation_xyz
  'x, y, z'

loop_
  _atom_site_type_symbol
  _atom_site_label
  _atom_site_symmetry_multiplicity
  _atom_site_fract_x
  _atom_site_fract_y
  _atom_site_fract_z
  _atom_site_occupancy
  Cd  Cd1       1.0  0.00000  0.00000  0.00000  1.0000
  Hg  Hg1       1.0  0.50000  0.50000  0.50000  1.0000
  O   O1        1.0  0.66600  0.66600  0.20500  1.0000
  O   O2        1.0  0.33400  0.33400  0.79500  1.0000
