data_image0
_chemical_formula_structural       Br6Rh2
_chemical_formula_sum              "Br6 Rh2"
_cell_length_a       6.34954
_cell_length_b       6.34954
_cell_length_c       6.40159
_cell_angle_alpha    99.4453
_cell_angle_beta     99.4453
_cell_angle_gamma    119.864

_space_group_name_H-M_alt    "P 1"
_space_group_IT_number       1

loop_
  _space_group_symop_operation_xyz
  'x, y, z'

loop_
  _atom_site_type_symbol
  _atom_site_label
  _atom_site_symmetry_multiplicity
  _atom_site_fract_x
  _atom_site_fract_y
  _atom_site_fract_z
  _atom_site_occupancy
  Br  Br1       1.0  0.92800  0.57700  0.23200  1.0000
  Br  Br2       1.0  0.57700  0.92800  0.23200  1.0000
  Br  Br3       1.0  0.22800  0.22800  0.23300  1.0000
  Br  Br4       1.0  0.77200  0.77200  0.76700  1.0000
  Br  Br5       1.0  0.42300  0.07220  0.76800  1.0000
  Br  Br6       1.0  0.07220  0.42300  0.76800  1.0000
  Rh  Rh1       1.0  0.83300  0.16700  0.00000  1.0000
  Rh  Rh2       1.0  0.16700  0.83300  0.00000  1.0000
