data_image0
_chemical_formula_structural       Au6Yb2
_chemical_formula_sum              "Au6 Yb2"
_cell_length_a       5.88283
_cell_length_b       4.99483
_cell_length_c       5.20064
_cell_angle_alpha    90
_cell_angle_beta     90
_cell_angle_gamma    90

_space_group_name_H-M_alt    "P 1"
_space_group_IT_number       1

loop_
  _space_group_symop_operation_xyz
  'x, y, z'

loop_
  _atom_site_type_symbol
  _atom_site_label
  _atom_site_symmetry_multiplicity
  _atom_site_fract_x
  _atom_site_fract_y
  _atom_site_fract_z
  _atom_site_occupancy
  Au  Au1       1.0  0.25200  0.00000  0.16600  1.0000
  Au  Au2       1.0  0.74800  0.00000  0.16600  1.0000
  Au  Au3       1.0  0.00000  0.50000  0.32900  1.0000
  Au  Au4       1.0  0.50000  0.00000  0.67100  1.0000
  Au  Au5       1.0  0.24800  0.50000  0.83400  1.0000
  Au  Au6       1.0  0.75200  0.50000  0.83400  1.0000
  Yb  Yb1       1.0  0.50000  0.50000  0.34100  1.0000
  Yb  Yb2       1.0  0.00000  0.00000  0.65900  1.0000
