data_image0
_chemical_formula_structural       GdRe3
_chemical_formula_sum              "Gd1 Re3"
_cell_length_a       6.47049
_cell_length_b       6.47049
_cell_length_c       5.77312
_cell_angle_alpha    138.786
_cell_angle_beta     138.786
_cell_angle_gamma    70.539

_space_group_name_H-M_alt    "P 1"
_space_group_IT_number       1

loop_
  _space_group_symop_operation_xyz
  'x, y, z'

loop_
  _atom_site_type_symbol
  _atom_site_label
  _atom_site_symmetry_multiplicity
  _atom_site_fract_x
  _atom_site_fract_y
  _atom_site_fract_z
  _atom_site_occupancy
  Gd  Gd1       1.0  0.03220  0.03220  0.20600  1.0000
  Re  Re1       1.0  0.51400  0.17700  0.26600  1.0000
  Re  Re2       1.0  0.17700  0.51400  0.26600  1.0000
  Re  Re3       1.0  0.77700  0.77700  0.26200  1.0000
