data_image0
_chemical_formula_structural       Br10Pb4Rb2
_chemical_formula_sum              "Br10 Pb4 Rb2"
_cell_length_a       8.49429
_cell_length_b       8.49429
_cell_length_c       9.50616
_cell_angle_alpha    116.537
_cell_angle_beta     116.537
_cell_angle_gamma    90

_space_group_name_H-M_alt    "P 1"
_space_group_IT_number       1

loop_
  _space_group_symop_operation_xyz
  'x, y, z'

loop_
  _atom_site_type_symbol
  _atom_site_label
  _atom_site_symmetry_multiplicity
  _atom_site_fract_x
  _atom_site_fract_y
  _atom_site_fract_z
  _atom_site_occupancy
  Br  Br1       1.0  0.00000  0.00000  0.00000  1.0000
  Br  Br2       1.0  0.50000  0.50000  0.00000  1.0000
  Br  Br3       1.0  0.78900  0.28900  0.26900  1.0000
  Br  Br4       1.0  0.28900  0.48000  0.26900  1.0000
  Br  Br5       1.0  0.98000  0.78900  0.26900  1.0000
  Br  Br6       1.0  0.48000  0.98000  0.26900  1.0000
  Br  Br7       1.0  0.52000  0.02030  0.73100  1.0000
  Br  Br8       1.0  0.02030  0.21100  0.73100  1.0000
  Br  Br9       1.0  0.71100  0.52000  0.73100  1.0000
  Br  Br10      1.0  0.21100  0.71100  0.73100  1.0000
  Pb  Pb1       1.0  0.33500  0.16500  0.00000  1.0000
  Pb  Pb2       1.0  0.83500  0.33500  0.00000  1.0000
  Pb  Pb3       1.0  0.16500  0.66500  0.00000  1.0000
  Pb  Pb4       1.0  0.66500  0.83500  0.00000  1.0000
  Rb  Rb1       1.0  0.25000  0.25000  0.50000  1.0000
  Rb  Rb2       1.0  0.75000  0.75000  0.50000  1.0000
