data_image0
_chemical_formula_structural       C4K4N4Se4
_chemical_formula_sum              "C4 K4 N4 Se4"
_cell_length_a       4.49773
_cell_length_b       7.64265
_cell_length_c       11.6919
_cell_angle_alpha    90
_cell_angle_beta     101.805
_cell_angle_gamma    90

_space_group_name_H-M_alt    "P 1"
_space_group_IT_number       1

loop_
  _space_group_symop_operation_xyz
  'x, y, z'

loop_
  _atom_site_type_symbol
  _atom_site_label
  _atom_site_symmetry_multiplicity
  _atom_site_fract_x
  _atom_site_fract_y
  _atom_site_fract_z
  _atom_site_occupancy
  C   C1        1.0  0.15500  0.22600  0.11600  1.0000
  C   C2        1.0  0.84500  0.72600  0.38400  1.0000
  C   C3        1.0  0.15500  0.27400  0.61600  1.0000
  C   C4        1.0  0.84500  0.77400  0.88400  1.0000
  K   K1        1.0  0.38500  0.70300  0.09750  1.0000
  K   K2        1.0  0.61500  0.20300  0.40300  1.0000
  K   K3        1.0  0.38500  0.79700  0.59700  1.0000
  K   K4        1.0  0.61500  0.29700  0.90300  1.0000
  N   N1        1.0  0.23700  0.34400  0.06430  1.0000
  N   N2        1.0  0.76300  0.84400  0.43600  1.0000
  N   N3        1.0  0.23700  0.15600  0.56400  1.0000
  N   N4        1.0  0.76300  0.65600  0.93600  1.0000
  Se  Se1       1.0  0.02590  0.05050  0.19700  1.0000
  Se  Se2       1.0  0.97400  0.55000  0.30300  1.0000
  Se  Se3       1.0  0.02590  0.45000  0.69700  1.0000
  Se  Se4       1.0  0.97400  0.95000  0.80300  1.0000
