data_image0
_chemical_formula_structural       I6S4Sb2Sn4
_chemical_formula_sum              "I6 S4 Sb2 Sn4"
_cell_length_a       4.31754
_cell_length_b       7.53257
_cell_length_c       16.1063
_cell_angle_alpha    90
_cell_angle_beta     90
_cell_angle_gamma    73.346

_space_group_name_H-M_alt    "P 1"
_space_group_IT_number       1

loop_
  _space_group_symop_operation_xyz
  'x, y, z'

loop_
  _atom_site_type_symbol
  _atom_site_label
  _atom_site_symmetry_multiplicity
  _atom_site_fract_x
  _atom_site_fract_y
  _atom_site_fract_z
  _atom_site_occupancy
  I   I1        1.0  0.43100  0.13800  0.13400  1.0000
  I   I2        1.0  0.14900  0.70100  0.25000  1.0000
  I   I3        1.0  0.43100  0.13800  0.36600  1.0000
  I   I4        1.0  0.56900  0.86200  0.63400  1.0000
  I   I5        1.0  0.85100  0.29900  0.75000  1.0000
  I   I6        1.0  0.56900  0.86200  0.86600  1.0000
  S   S1        1.0  0.72900  0.54100  0.08500  1.0000
  S   S2        1.0  0.72900  0.54100  0.41500  1.0000
  S   S3        1.0  0.27100  0.45900  0.58500  1.0000
  S   S4        1.0  0.27100  0.45900  0.91500  1.0000
  Sb  Sb1       1.0  0.79700  0.40600  0.25000  1.0000
  Sb  Sb2       1.0  0.20300  0.59400  0.75000  1.0000
  Sn  Sn1       1.0  0.13300  0.73400  0.02140  1.0000
  Sn  Sn2       1.0  0.13300  0.73400  0.47900  1.0000
  Sn  Sn3       1.0  0.86700  0.26600  0.52100  1.0000
  Sn  Sn4       1.0  0.86700  0.26600  0.97900  1.0000
