data_image0
_chemical_formula_structural       Li4N4O4Si4
_chemical_formula_sum              "Li4 N4 O4 Si4"
_cell_length_a       5.18589
_cell_length_b       6.35325
_cell_length_c       4.73531
_cell_angle_alpha    90
_cell_angle_beta     90
_cell_angle_gamma    90

_space_group_name_H-M_alt    "P 1"
_space_group_IT_number       1

loop_
  _space_group_symop_operation_xyz
  'x, y, z'

loop_
  _atom_site_type_symbol
  _atom_site_label
  _atom_site_symmetry_multiplicity
  _atom_site_fract_x
  _atom_site_fract_y
  _atom_site_fract_z
  _atom_site_occupancy
  Li  Li1       1.0  0.59300  0.38300  0.99300  1.0000
  Li  Li2       1.0  0.09330  0.61700  0.99300  1.0000
  Li  Li3       1.0  0.90700  0.38300  0.49300  1.0000
  Li  Li4       1.0  0.40700  0.61700  0.49300  1.0000
  N   N1        1.0  0.39400  0.08820  0.13000  1.0000
  N   N2        1.0  0.89400  0.91200  0.13000  1.0000
  N   N3        1.0  0.10600  0.08820  0.63000  1.0000
  N   N4        1.0  0.60600  0.91200  0.63000  1.0000
  O   O1        1.0  0.95900  0.34500  0.08160  1.0000
  O   O2        1.0  0.45900  0.65500  0.08160  1.0000
  O   O3        1.0  0.54100  0.34500  0.58200  1.0000
  O   O4        1.0  0.04130  0.65500  0.58200  1.0000
  Si  Si1       1.0  0.08070  0.12200  0.99700  1.0000
  Si  Si2       1.0  0.58100  0.87800  0.99700  1.0000
  Si  Si3       1.0  0.41900  0.12200  0.49700  1.0000
  Si  Si4       1.0  0.91900  0.87800  0.49700  1.0000
