data_image0
_chemical_formula_structural       Sb6Sr10
_chemical_formula_sum              "Sb6 Sr10"
_cell_length_a       9.58932
_cell_length_b       9.58932
_cell_length_c       7.44987
_cell_angle_alpha    90
_cell_angle_beta     90
_cell_angle_gamma    120

_space_group_name_H-M_alt    "P 1"
_space_group_IT_number       1

loop_
  _space_group_symop_operation_xyz
  'x, y, z'

loop_
  _atom_site_type_symbol
  _atom_site_label
  _atom_site_symmetry_multiplicity
  _atom_site_fract_x
  _atom_site_fract_y
  _atom_site_fract_z
  _atom_site_occupancy
  Sb  Sb1       1.0  0.39100  0.00000  0.25000  1.0000
  Sb  Sb2       1.0  0.00000  0.39100  0.25000  1.0000
  Sb  Sb3       1.0  0.60900  0.60900  0.25000  1.0000
  Sb  Sb4       1.0  0.60900  0.00000  0.75000  1.0000
  Sb  Sb5       1.0  0.00000  0.60900  0.75000  1.0000
  Sb  Sb6       1.0  0.39100  0.39100  0.75000  1.0000
  Sr  Sr1       1.0  0.66700  0.33300  0.00000  1.0000
  Sr  Sr2       1.0  0.33300  0.66700  0.00000  1.0000
  Sr  Sr3       1.0  0.25300  0.25300  0.25000  1.0000
  Sr  Sr4       1.0  0.74700  0.00000  0.25000  1.0000
  Sr  Sr5       1.0  0.00000  0.74700  0.25000  1.0000
  Sr  Sr6       1.0  0.66700  0.33300  0.50000  1.0000
  Sr  Sr7       1.0  0.33300  0.66700  0.50000  1.0000
  Sr  Sr8       1.0  0.74700  0.74700  0.75000  1.0000
  Sr  Sr9       1.0  0.25300  0.00000  0.75000  1.0000
  Sr  Sr10      1.0  0.00000  0.25300  0.75000  1.0000
