data_image0
_chemical_formula_structural       Cl4Cu4Hg4Se4
_chemical_formula_sum              "Cl4 Cu4 Hg4 Se4"
_cell_length_a       7.13597
_cell_length_b       13.0347
_cell_length_c       4.2458
_cell_angle_alpha    90
_cell_angle_beta     90
_cell_angle_gamma    90

_space_group_name_H-M_alt    "P 1"
_space_group_IT_number       1

loop_
  _space_group_symop_operation_xyz
  'x, y, z'

loop_
  _atom_site_type_symbol
  _atom_site_label
  _atom_site_symmetry_multiplicity
  _atom_site_fract_x
  _atom_site_fract_y
  _atom_site_fract_z
  _atom_site_occupancy
  Cl  Cl1       1.0  0.84800  0.12300  0.50000  1.0000
  Cl  Cl2       1.0  0.34800  0.37700  0.50000  1.0000
  Cl  Cl3       1.0  0.65200  0.62300  0.50000  1.0000
  Cl  Cl4       1.0  0.15200  0.87700  0.50000  1.0000
  Cu  Cu1       1.0  0.26600  0.03790  0.50000  1.0000
  Cu  Cu2       1.0  0.76600  0.46200  0.50000  1.0000
  Cu  Cu3       1.0  0.23400  0.53800  0.50000  1.0000
  Cu  Cu4       1.0  0.73400  0.96200  0.50000  1.0000
  Hg  Hg1       1.0  0.60800  0.23600  0.00000  1.0000
  Hg  Hg2       1.0  0.10800  0.26400  0.00000  1.0000
  Hg  Hg3       1.0  0.89200  0.73600  0.00000  1.0000
  Hg  Hg4       1.0  0.39200  0.76400  0.00000  1.0000
  Se  Se1       1.0  0.33300  0.11000  0.00000  1.0000
  Se  Se2       1.0  0.83300  0.39000  0.00000  1.0000
  Se  Se3       1.0  0.16700  0.61000  0.00000  1.0000
  Se  Se4       1.0  0.66700  0.89000  0.00000  1.0000
