data_image0
_chemical_formula_structural       Na4O8S4
_chemical_formula_sum              "Na4 O8 S4"
_cell_length_a       6.39157
_cell_length_b       6.37092
_cell_length_c       6.58876
_cell_angle_alpha    90
_cell_angle_beta     120.216
_cell_angle_gamma    90

_space_group_name_H-M_alt    "P 1"
_space_group_IT_number       1

loop_
  _space_group_symop_operation_xyz
  'x, y, z'

loop_
  _atom_site_type_symbol
  _atom_site_label
  _atom_site_symmetry_multiplicity
  _atom_site_fract_x
  _atom_site_fract_y
  _atom_site_fract_z
  _atom_site_occupancy
  Na  Na1       1.0  0.73700  0.14800  0.02020  1.0000
  Na  Na2       1.0  0.26300  0.14800  0.48000  1.0000
  Na  Na3       1.0  0.73700  0.85200  0.52000  1.0000
  Na  Na4       1.0  0.26300  0.85200  0.98000  1.0000
  O   O1        1.0  0.12100  0.24300  0.09020  1.0000
  O   O2        1.0  0.67600  0.80700  0.14100  1.0000
  O   O3        1.0  0.32400  0.80700  0.35900  1.0000
  O   O4        1.0  0.87900  0.24300  0.41000  1.0000
  O   O5        1.0  0.12100  0.75700  0.59000  1.0000
  O   O6        1.0  0.67600  0.19300  0.64100  1.0000
  O   O7        1.0  0.32400  0.19300  0.85900  1.0000
  O   O8        1.0  0.87900  0.75700  0.91000  1.0000
  S   S1        1.0  0.80400  0.64800  0.06810  1.0000
  S   S2        1.0  0.19600  0.64800  0.43200  1.0000
  S   S3        1.0  0.80400  0.35200  0.56800  1.0000
  S   S4        1.0  0.19600  0.35200  0.93200  1.0000
