data_image0
_chemical_formula_structural       C2F2O6Tl6
_chemical_formula_sum              "C2 F2 O6 Tl6"
_cell_length_a       7.4842
_cell_length_b       7.43202
_cell_length_c       5.92252
_cell_angle_alpha    90
_cell_angle_beta     90
_cell_angle_gamma    119.982

_space_group_name_H-M_alt    "P 1"
_space_group_IT_number       1

loop_
  _space_group_symop_operation_xyz
  'x, y, z'

loop_
  _atom_site_type_symbol
  _atom_site_label
  _atom_site_symmetry_multiplicity
  _atom_site_fract_x
  _atom_site_fract_y
  _atom_site_fract_z
  _atom_site_occupancy
  C   C1        1.0  0.83300  0.16100  0.25000  1.0000
  C   C2        1.0  0.16700  0.83900  0.75000  1.0000
  F   F1        1.0  0.50000  0.50000  0.00000  1.0000
  F   F2        1.0  0.50000  0.50000  0.50000  1.0000
  O   O1        1.0  0.67100  0.18400  0.25000  1.0000
  O   O2        1.0  0.01710  0.32400  0.25000  1.0000
  O   O3        1.0  0.81100  0.97600  0.25000  1.0000
  O   O4        1.0  0.18900  0.02420  0.75000  1.0000
  O   O5        1.0  0.98300  0.67600  0.75000  1.0000
  O   O6        1.0  0.32900  0.81600  0.75000  1.0000
  Tl  Tl1       1.0  0.25200  0.15600  0.25000  1.0000
  Tl  Tl2       1.0  0.84300  0.59100  0.25000  1.0000
  Tl  Tl3       1.0  0.40500  0.74900  0.25000  1.0000
  Tl  Tl4       1.0  0.59500  0.25100  0.75000  1.0000
  Tl  Tl5       1.0  0.15700  0.40900  0.75000  1.0000
  Tl  Tl6       1.0  0.74800  0.84400  0.75000  1.0000
