data_image0
_chemical_formula_structural       Pu10Ru6
_chemical_formula_sum              "Pu10 Ru6"
_cell_length_a       5.88019
_cell_length_b       8.14869
_cell_length_c       8.14869
_cell_angle_alpha    97.4801
_cell_angle_beta     68.8503
_cell_angle_gamma    111.15

_space_group_name_H-M_alt    "P 1"
_space_group_IT_number       1

loop_
  _space_group_symop_operation_xyz
  'x, y, z'

loop_
  _atom_site_type_symbol
  _atom_site_label
  _atom_site_symmetry_multiplicity
  _atom_site_fract_x
  _atom_site_fract_y
  _atom_site_fract_z
  _atom_site_occupancy
  Pu  Pu1       1.0  0.58500  0.30100  0.13200  1.0000
  Pu  Pu2       1.0  0.78400  0.69900  0.13200  1.0000
  Pu  Pu3       1.0  0.91500  0.13200  0.30100  1.0000
  Pu  Pu4       1.0  0.28400  0.86800  0.30100  1.0000
  Pu  Pu5       1.0  0.25000  0.50000  0.50000  1.0000
  Pu  Pu6       1.0  0.75000  0.50000  0.50000  1.0000
  Pu  Pu7       1.0  0.08460  0.86800  0.69900  1.0000
  Pu  Pu8       1.0  0.71600  0.13200  0.69900  1.0000
  Pu  Pu9       1.0  0.41500  0.69900  0.86800  1.0000
  Pu  Pu10      1.0  0.21600  0.30100  0.86800  1.0000
  Ru  Ru1       1.0  0.25000  0.00000  0.00000  1.0000
  Ru  Ru2       1.0  0.75000  0.00000  0.00000  1.0000
  Ru  Ru3       1.0  0.16200  0.50000  0.17700  1.0000
  Ru  Ru4       1.0  0.33800  0.17700  0.50000  1.0000
  Ru  Ru5       1.0  0.66200  0.82300  0.50000  1.0000
  Ru  Ru6       1.0  0.83800  0.50000  0.82300  1.0000
