data_image0
_chemical_formula_structural       Cr10Si6
_chemical_formula_sum              "Cr10 Si6"
_cell_length_a       4.56687
_cell_length_b       6.80585
_cell_length_c       6.80585
_cell_angle_alpha    96.4633
_cell_angle_beta     70.3964
_cell_angle_gamma    109.604

_space_group_name_H-M_alt    "P 1"
_space_group_IT_number       1

loop_
  _space_group_symop_operation_xyz
  'x, y, z'

loop_
  _atom_site_type_symbol
  _atom_site_label
  _atom_site_symmetry_multiplicity
  _atom_site_fract_x
  _atom_site_fract_y
  _atom_site_fract_z
  _atom_site_occupancy
  Cr  Cr1       1.0  0.57700  0.30500  0.15200  1.0000
  Cr  Cr2       1.0  0.77100  0.69500  0.15200  1.0000
  Cr  Cr3       1.0  0.92300  0.15200  0.30500  1.0000
  Cr  Cr4       1.0  0.27100  0.84800  0.30500  1.0000
  Cr  Cr5       1.0  0.25000  0.50000  0.50000  1.0000
  Cr  Cr6       1.0  0.75000  0.50000  0.50000  1.0000
  Cr  Cr7       1.0  0.72900  0.15200  0.69500  1.0000
  Cr  Cr8       1.0  0.07660  0.84800  0.69500  1.0000
  Cr  Cr9       1.0  0.22900  0.30500  0.84800  1.0000
  Cr  Cr10      1.0  0.42300  0.69500  0.84800  1.0000
  Si  Si1       1.0  0.25000  0.00000  0.00000  1.0000
  Si  Si2       1.0  0.75000  0.00000  0.00000  1.0000
  Si  Si3       1.0  0.16700  0.50000  0.16600  1.0000
  Si  Si4       1.0  0.33300  0.16600  0.50000  1.0000
  Si  Si5       1.0  0.66700  0.83400  0.50000  1.0000
  Si  Si6       1.0  0.83300  0.50000  0.83400  1.0000
