data_image0
_chemical_formula_structural       Nb5O9Sr2
_chemical_formula_sum              "Nb5 O9 Sr2"
_cell_length_a       4.17071
_cell_length_b       4.17071
_cell_length_c       12.098
_cell_angle_alpha    90
_cell_angle_beta     90
_cell_angle_gamma    90

_space_group_name_H-M_alt    "P 1"
_space_group_IT_number       1

loop_
  _space_group_symop_operation_xyz
  'x, y, z'

loop_
  _atom_site_type_symbol
  _atom_site_label
  _atom_site_symmetry_multiplicity
  _atom_site_fract_x
  _atom_site_fract_y
  _atom_site_fract_z
  _atom_site_occupancy
  Nb  Nb1       1.0  0.50000  0.50000  0.00000  1.0000
  Nb  Nb2       1.0  0.50000  0.50000  0.33500  1.0000
  Nb  Nb3       1.0  0.50000  0.00000  0.50000  1.0000
  Nb  Nb4       1.0  0.00000  0.50000  0.50000  1.0000
  Nb  Nb5       1.0  0.50000  0.50000  0.66500  1.0000
  O   O1        1.0  0.50000  0.00000  0.00000  1.0000
  O   O2        1.0  0.00000  0.50000  0.00000  1.0000
  O   O3        1.0  0.50000  0.50000  0.16200  1.0000
  O   O4        1.0  0.50000  0.00000  0.32200  1.0000
  O   O5        1.0  0.00000  0.50000  0.32200  1.0000
  O   O6        1.0  0.00000  0.00000  0.50000  1.0000
  O   O7        1.0  0.50000  0.00000  0.67800  1.0000
  O   O8        1.0  0.00000  0.50000  0.67800  1.0000
  O   O9        1.0  0.50000  0.50000  0.83800  1.0000
  Sr  Sr1       1.0  0.00000  0.00000  0.16800  1.0000
  Sr  Sr2       1.0  0.00000  0.00000  0.83200  1.0000
