data_image0
_chemical_formula_structural       Bi4O10Si2
_chemical_formula_sum              "Bi4 O10 Si2"
_cell_length_a       5.31104
_cell_length_b       5.48303
_cell_length_c       8.04304
_cell_angle_alpha    109.929
_cell_angle_beta     90
_cell_angle_gamma    90

_space_group_name_H-M_alt    "P 1"
_space_group_IT_number       1

loop_
  _space_group_symop_operation_xyz
  'x, y, z'

loop_
  _atom_site_type_symbol
  _atom_site_label
  _atom_site_symmetry_multiplicity
  _atom_site_fract_x
  _atom_site_fract_y
  _atom_site_fract_z
  _atom_site_occupancy
  Bi  Bi1       1.0  0.74500  0.38800  0.32900  1.0000
  Bi  Bi2       1.0  0.24500  0.94100  0.32900  1.0000
  Bi  Bi3       1.0  0.74500  0.05870  0.67100  1.0000
  Bi  Bi4       1.0  0.24500  0.61200  0.67100  1.0000
  O   O1        1.0  0.47700  0.47100  0.00000  1.0000
  O   O2        1.0  0.97700  0.52900  0.00000  1.0000
  O   O3        1.0  0.18400  0.26600  0.18500  1.0000
  O   O4        1.0  0.68400  0.91900  0.18500  1.0000
  O   O5        1.0  0.98100  0.74300  0.49800  1.0000
  O   O6        1.0  0.48100  0.75500  0.49800  1.0000
  O   O7        1.0  0.98100  0.24500  0.50200  1.0000
  O   O8        1.0  0.48100  0.25700  0.50200  1.0000
  O   O9        1.0  0.18400  0.08140  0.81500  1.0000
  O   O10       1.0  0.68400  0.73400  0.81500  1.0000
  Si  Si1       1.0  0.20600  0.32000  0.00000  1.0000
  Si  Si2       1.0  0.70600  0.68000  0.00000  1.0000
