data_image0
_chemical_formula_structural       C4Cs4N4S4
_chemical_formula_sum              "C4 Cs4 N4 S4"
_cell_length_a       8.02414
_cell_length_b       6.32325
_cell_length_c       8.36597
_cell_angle_alpha    90
_cell_angle_beta     90
_cell_angle_gamma    90

_space_group_name_H-M_alt    "P 1"
_space_group_IT_number       1

loop_
  _space_group_symop_operation_xyz
  'x, y, z'

loop_
  _atom_site_type_symbol
  _atom_site_label
  _atom_site_symmetry_multiplicity
  _atom_site_fract_x
  _atom_site_fract_y
  _atom_site_fract_z
  _atom_site_occupancy
  C   C1        1.0  0.33000  0.75000  0.06070  1.0000
  C   C2        1.0  0.83000  0.75000  0.43900  1.0000
  C   C3        1.0  0.17000  0.25000  0.56100  1.0000
  C   C4        1.0  0.67000  0.25000  0.93900  1.0000
  Cs  Cs1       1.0  0.17400  0.25000  0.10600  1.0000
  Cs  Cs2       1.0  0.67400  0.25000  0.39400  1.0000
  Cs  Cs3       1.0  0.32600  0.75000  0.60600  1.0000
  Cs  Cs4       1.0  0.82600  0.75000  0.89400  1.0000
  N   N1        1.0  0.78400  0.25000  0.03080  1.0000
  N   N2        1.0  0.28400  0.25000  0.46900  1.0000
  N   N3        1.0  0.71600  0.75000  0.53100  1.0000
  N   N4        1.0  0.21600  0.75000  0.96900  1.0000
  S   S1        1.0  0.48200  0.75000  0.19000  1.0000
  S   S2        1.0  0.98200  0.75000  0.31000  1.0000
  S   S3        1.0  0.01780  0.25000  0.69000  1.0000
  S   S4        1.0  0.51800  0.25000  0.81000  1.0000
