data_image0
_chemical_formula_structural       La4O10Re2
_chemical_formula_sum              "La4 O10 Re2"
_cell_length_a       5.97697
_cell_length_b       6.97474
_cell_length_c       6.97474
_cell_angle_alpha    100.579
_cell_angle_beta     64.6293
_cell_angle_gamma    115.371

_space_group_name_H-M_alt    "P 1"
_space_group_IT_number       1

loop_
  _space_group_symop_operation_xyz
  'x, y, z'

loop_
  _atom_site_type_symbol
  _atom_site_label
  _atom_site_symmetry_multiplicity
  _atom_site_fract_x
  _atom_site_fract_y
  _atom_site_fract_z
  _atom_site_occupancy
  La  La1       1.0  0.60500  0.42300  0.21300  1.0000
  La  La2       1.0  0.18200  0.78700  0.42300  1.0000
  La  La3       1.0  0.81800  0.21300  0.57700  1.0000
  La  La4       1.0  0.39500  0.57700  0.78700  1.0000
  O   O1        1.0  0.06910  0.71500  0.09280  1.0000
  O   O2        1.0  0.55300  0.71500  0.09280  1.0000
  O   O3        1.0  0.16200  0.09280  0.28500  1.0000
  O   O4        1.0  0.64600  0.09280  0.28500  1.0000
  O   O5        1.0  0.25000  0.50000  0.50000  1.0000
  O   O6        1.0  0.75000  0.50000  0.50000  1.0000
  O   O7        1.0  0.35400  0.90700  0.71500  1.0000
  O   O8        1.0  0.83800  0.90700  0.71500  1.0000
  O   O9        1.0  0.44700  0.28500  0.90700  1.0000
  O   O10       1.0  0.93100  0.28500  0.90700  1.0000
  Re  Re1       1.0  0.18700  0.00000  0.00000  1.0000
  Re  Re2       1.0  0.81300  0.00000  0.00000  1.0000
