data_image0
_chemical_formula_structural       Cl12I2P2
_chemical_formula_sum              "Cl12 I2 P2"
_cell_length_a       9.42702
_cell_length_b       9.42702
_cell_length_c       5.64304
_cell_angle_alpha    90
_cell_angle_beta     90
_cell_angle_gamma    90

_space_group_name_H-M_alt    "P 1"
_space_group_IT_number       1

loop_
  _space_group_symop_operation_xyz
  'x, y, z'

loop_
  _atom_site_type_symbol
  _atom_site_label
  _atom_site_symmetry_multiplicity
  _atom_site_fract_x
  _atom_site_fract_y
  _atom_site_fract_z
  _atom_site_occupancy
  Cl  Cl1       1.0  0.80700  0.30700  0.14800  1.0000
  Cl  Cl2       1.0  0.19300  0.69300  0.14800  1.0000
  Cl  Cl3       1.0  0.14600  0.08060  0.29100  1.0000
  Cl  Cl4       1.0  0.41900  0.35400  0.29100  1.0000
  Cl  Cl5       1.0  0.58100  0.64600  0.29100  1.0000
  Cl  Cl6       1.0  0.85400  0.91900  0.29100  1.0000
  Cl  Cl7       1.0  0.91900  0.14600  0.70900  1.0000
  Cl  Cl8       1.0  0.64600  0.41900  0.70900  1.0000
  Cl  Cl9       1.0  0.35400  0.58100  0.70900  1.0000
  Cl  Cl10      1.0  0.08060  0.85400  0.70900  1.0000
  Cl  Cl11      1.0  0.30700  0.19300  0.85200  1.0000
  Cl  Cl12      1.0  0.69300  0.80700  0.85200  1.0000
  I   I1        1.0  0.00000  0.50000  0.15300  1.0000
  I   I2        1.0  0.50000  0.00000  0.84700  1.0000
  P   P1        1.0  0.00000  0.00000  0.50000  1.0000
  P   P2        1.0  0.50000  0.50000  0.50000  1.0000
