data_image0
_chemical_formula_structural       La4S10Sn2
_chemical_formula_sum              "La4 S10 Sn2"
_cell_length_a       11.3418
_cell_length_b       7.93152
_cell_length_c       4.03846
_cell_angle_alpha    90
_cell_angle_beta     90
_cell_angle_gamma    90

_space_group_name_H-M_alt    "P 1"
_space_group_IT_number       1

loop_
  _space_group_symop_operation_xyz
  'x, y, z'

loop_
  _atom_site_type_symbol
  _atom_site_label
  _atom_site_symmetry_multiplicity
  _atom_site_fract_x
  _atom_site_fract_y
  _atom_site_fract_z
  _atom_site_occupancy
  La  La1       1.0  0.33100  0.07440  0.50000  1.0000
  La  La2       1.0  0.83100  0.42600  0.50000  1.0000
  La  La3       1.0  0.16900  0.57400  0.50000  1.0000
  La  La4       1.0  0.66900  0.92600  0.50000  1.0000
  S   S1        1.0  0.50000  0.00000  0.00000  1.0000
  S   S2        1.0  0.79600  0.14400  0.00000  1.0000
  S   S3        1.0  0.29600  0.35600  0.00000  1.0000
  S   S4        1.0  0.00000  0.50000  0.00000  1.0000
  S   S5        1.0  0.70400  0.64400  0.00000  1.0000
  S   S6        1.0  0.20400  0.85600  0.00000  1.0000
  S   S7        1.0  0.06980  0.19000  0.50000  1.0000
  S   S8        1.0  0.57000  0.31000  0.50000  1.0000
  S   S9        1.0  0.43000  0.69000  0.50000  1.0000
  S   S10       1.0  0.93000  0.81000  0.50000  1.0000
  Sn  Sn1       1.0  0.00000  0.00000  0.00000  1.0000
  Sn  Sn2       1.0  0.50000  0.50000  0.00000  1.0000
