data_image0
_chemical_formula_structural       C8Mo4U4
_chemical_formula_sum              "C8 Mo4 U4"
_cell_length_a       5.63069
_cell_length_b       3.21644
_cell_length_c       11.0787
_cell_angle_alpha    90
_cell_angle_beta     90
_cell_angle_gamma    90

_space_group_name_H-M_alt    "P 1"
_space_group_IT_number       1

loop_
  _space_group_symop_operation_xyz
  'x, y, z'

loop_
  _atom_site_type_symbol
  _atom_site_label
  _atom_site_symmetry_multiplicity
  _atom_site_fract_x
  _atom_site_fract_y
  _atom_site_fract_z
  _atom_site_occupancy
  C   C1        1.0  0.75100  0.25000  0.00707  1.0000
  C   C2        1.0  0.83900  0.75000  0.24400  1.0000
  C   C3        1.0  0.33900  0.75000  0.25600  1.0000
  C   C4        1.0  0.25100  0.25000  0.49300  1.0000
  C   C5        1.0  0.74900  0.75000  0.50700  1.0000
  C   C6        1.0  0.66100  0.25000  0.74400  1.0000
  C   C7        1.0  0.16100  0.25000  0.75600  1.0000
  C   C8        1.0  0.24900  0.75000  0.99300  1.0000
  Mo  Mo1       1.0  0.57900  0.75000  0.10100  1.0000
  Mo  Mo2       1.0  0.07900  0.75000  0.39900  1.0000
  Mo  Mo3       1.0  0.92100  0.25000  0.60100  1.0000
  Mo  Mo4       1.0  0.42100  0.25000  0.89900  1.0000
  U   U1        1.0  0.08040  0.25000  0.14200  1.0000
  U   U2        1.0  0.58000  0.25000  0.35800  1.0000
  U   U3        1.0  0.42000  0.75000  0.64200  1.0000
  U   U4        1.0  0.92000  0.75000  0.85800  1.0000
