data_image0
_chemical_formula_structural       F12Pb2Zr2
_chemical_formula_sum              "F12 Pb2 Zr2"
_cell_length_a       5.21724
_cell_length_b       6.68986
_cell_length_c       6.68986
_cell_angle_alpha    67.8998
_cell_angle_beta     90
_cell_angle_gamma    90

_space_group_name_H-M_alt    "P 1"
_space_group_IT_number       1

loop_
  _space_group_symop_operation_xyz
  'x, y, z'

loop_
  _atom_site_type_symbol
  _atom_site_label
  _atom_site_symmetry_multiplicity
  _atom_site_fract_x
  _atom_site_fract_y
  _atom_site_fract_z
  _atom_site_occupancy
  F   F1        1.0  0.25900  0.68300  0.05470  1.0000
  F   F2        1.0  0.17000  0.06840  0.06840  1.0000
  F   F3        1.0  0.74100  0.55500  0.18300  1.0000
  F   F4        1.0  0.74100  0.94500  0.31700  1.0000
  F   F5        1.0  0.17000  0.43200  0.43200  1.0000
  F   F6        1.0  0.25900  0.81700  0.44500  1.0000
  F   F7        1.0  0.74100  0.18300  0.55500  1.0000
  F   F8        1.0  0.83000  0.56800  0.56800  1.0000
  F   F9        1.0  0.25900  0.05470  0.68300  1.0000
  F   F10       1.0  0.25900  0.44500  0.81700  1.0000
  F   F11       1.0  0.83000  0.93200  0.93200  1.0000
  F   F12       1.0  0.74100  0.31700  0.94500  1.0000
  Pb  Pb1       1.0  0.45200  0.25000  0.25000  1.0000
  Pb  Pb2       1.0  0.54800  0.75000  0.75000  1.0000
  Zr  Zr1       1.0  0.00000  0.75000  0.25000  1.0000
  Zr  Zr2       1.0  0.00000  0.25000  0.75000  1.0000
