data_image0
_chemical_formula_structural       Mn4N8Si4
_chemical_formula_sum              "Mn4 N8 Si4"
_cell_length_a       5.27916
_cell_length_b       6.4953
_cell_length_c       5.08356
_cell_angle_alpha    90
_cell_angle_beta     90
_cell_angle_gamma    90

_space_group_name_H-M_alt    "P 1"
_space_group_IT_number       1

loop_
  _space_group_symop_operation_xyz
  'x, y, z'

loop_
  _atom_site_type_symbol
  _atom_site_label
  _atom_site_symmetry_multiplicity
  _atom_site_fract_x
  _atom_site_fract_y
  _atom_site_fract_z
  _atom_site_occupancy
  Mn  Mn1       1.0  0.42100  0.12400  0.48800  1.0000
  Mn  Mn2       1.0  0.92100  0.37600  0.48800  1.0000
  Mn  Mn3       1.0  0.07920  0.62400  0.98800  1.0000
  Mn  Mn4       1.0  0.57900  0.87600  0.98800  1.0000
  N   N1        1.0  0.04870  0.09280  0.33500  1.0000
  N   N2        1.0  0.54900  0.40700  0.33500  1.0000
  N   N3        1.0  0.11200  0.65800  0.40500  1.0000
  N   N4        1.0  0.61200  0.84200  0.40500  1.0000
  N   N5        1.0  0.45100  0.59300  0.83500  1.0000
  N   N6        1.0  0.95100  0.90700  0.83500  1.0000
  N   N7        1.0  0.38800  0.15800  0.90500  1.0000
  N   N8        1.0  0.88800  0.34200  0.90500  1.0000
  Si  Si1       1.0  0.43100  0.62500  0.49400  1.0000
  Si  Si2       1.0  0.93100  0.87500  0.49400  1.0000
  Si  Si3       1.0  0.06890  0.12500  0.99400  1.0000
  Si  Si4       1.0  0.56900  0.37500  0.99400  1.0000
