data_image0
_chemical_formula_structural       Cd2Ge4O10
_chemical_formula_sum              "Cd2 Ge4 O10"
_cell_length_a       5.34993
_cell_length_b       5.55171
_cell_length_c       6.91751
_cell_angle_alpha    74.6877
_cell_angle_beta     101.518
_cell_angle_gamma    72.5682

_space_group_name_H-M_alt    "P 1"
_space_group_IT_number       1

loop_
  _space_group_symop_operation_xyz
  'x, y, z'

loop_
  _atom_site_type_symbol
  _atom_site_label
  _atom_site_symmetry_multiplicity
  _atom_site_fract_x
  _atom_site_fract_y
  _atom_site_fract_z
  _atom_site_occupancy
  Cd  Cd1       1.0  0.34200  0.31100  0.23000  1.0000
  Cd  Cd2       1.0  0.65800  0.68900  0.77000  1.0000
  Ge  Ge1       1.0  0.00000  0.00000  0.00000  1.0000
  Ge  Ge2       1.0  0.68600  0.68100  0.25100  1.0000
  Ge  Ge3       1.0  0.00000  0.00000  0.50000  1.0000
  Ge  Ge4       1.0  0.31400  0.31900  0.74900  1.0000
  O   O1        1.0  0.38100  0.78000  0.04390  1.0000
  O   O2        1.0  0.94100  0.67300  0.12200  1.0000
  O   O3        1.0  0.08870  0.05550  0.25100  1.0000
  O   O4        1.0  0.72100  0.35700  0.40300  1.0000
  O   O5        1.0  0.70800  0.87400  0.41400  1.0000
  O   O6        1.0  0.29200  0.12600  0.58600  1.0000
  O   O7        1.0  0.27900  0.64300  0.59700  1.0000
  O   O8        1.0  0.91100  0.94500  0.74900  1.0000
  O   O9        1.0  0.05940  0.32700  0.87800  1.0000
  O   O10       1.0  0.61900  0.22000  0.95600  1.0000
