data_image0
_chemical_formula_structural       Ge10Y6
_chemical_formula_sum              "Ge10 Y6"
_cell_length_a       5.78175
_cell_length_b       7.4777
_cell_length_c       9.1628
_cell_angle_alpha    97.006
_cell_angle_beta     71.6089
_cell_angle_gamma    112.743

_space_group_name_H-M_alt    "P 1"
_space_group_IT_number       1

loop_
  _space_group_symop_operation_xyz
  'x, y, z'

loop_
  _atom_site_type_symbol
  _atom_site_label
  _atom_site_symmetry_multiplicity
  _atom_site_fract_x
  _atom_site_fract_y
  _atom_site_fract_z
  _atom_site_occupancy
  Ge  Ge1       1.0  0.05590  0.11200  0.00000  1.0000
  Ge  Ge2       1.0  0.59900  0.70200  0.12900  1.0000
  Ge  Ge3       1.0  0.33200  0.33500  0.17400  1.0000
  Ge  Ge4       1.0  0.25500  0.83500  0.32600  1.0000
  Ge  Ge5       1.0  0.47700  0.20200  0.37100  1.0000
  Ge  Ge6       1.0  0.80600  0.61200  0.50000  1.0000
  Ge  Ge7       1.0  0.72400  0.20200  0.62900  1.0000
  Ge  Ge8       1.0  0.58000  0.83500  0.67400  1.0000
  Ge  Ge9       1.0  0.00378  0.33500  0.82600  1.0000
  Ge  Ge10      1.0  0.10300  0.70200  0.87100  1.0000
  Y   Y1        1.0  0.50500  0.00963  0.00000  1.0000
  Y   Y2        1.0  0.93100  0.49400  0.16400  1.0000
  Y   Y3        1.0  0.84500  0.99400  0.33600  1.0000
  Y   Y4        1.0  0.25500  0.51000  0.50000  1.0000
  Y   Y5        1.0  0.15000  0.99400  0.66400  1.0000
  Y   Y6        1.0  0.56300  0.49400  0.83600  1.0000
