data_image0
_chemical_formula_structural       C4Cs2I6N4
_chemical_formula_sum              "C4 Cs2 I6 N4"
_cell_length_a       16.3966
_cell_length_b       6.79752
_cell_length_c       4.56036
_cell_angle_alpha    90
_cell_angle_beta     90
_cell_angle_gamma    90

_space_group_name_H-M_alt    "P 1"
_space_group_IT_number       1

loop_
  _space_group_symop_operation_xyz
  'x, y, z'

loop_
  _atom_site_type_symbol
  _atom_site_label
  _atom_site_symmetry_multiplicity
  _atom_site_fract_x
  _atom_site_fract_y
  _atom_site_fract_z
  _atom_site_occupancy
  C   C1        1.0  0.03840  0.75000  0.27800  1.0000
  C   C2        1.0  0.46200  0.75000  0.27800  1.0000
  C   C3        1.0  0.96200  0.25000  0.72200  1.0000
  C   C4        1.0  0.53800  0.25000  0.72200  1.0000
  Cs  Cs1       1.0  0.75000  0.25000  0.18100  1.0000
  Cs  Cs2       1.0  0.25000  0.75000  0.81900  1.0000
  I   I1        1.0  0.57600  0.75000  0.09220  1.0000
  I   I2        1.0  0.92400  0.75000  0.09220  1.0000
  I   I3        1.0  0.25000  0.25000  0.24400  1.0000
  I   I4        1.0  0.75000  0.75000  0.75600  1.0000
  I   I5        1.0  0.07590  0.25000  0.90800  1.0000
  I   I6        1.0  0.42400  0.25000  0.90800  1.0000
  N   N1        1.0  0.10500  0.75000  0.37400  1.0000
  N   N2        1.0  0.39500  0.75000  0.37400  1.0000
  N   N3        1.0  0.60500  0.25000  0.62600  1.0000
  N   N4        1.0  0.89500  0.25000  0.62600  1.0000
