data_image0
_chemical_formula_structural       Al4O10Ti2
_chemical_formula_sum              "Al4 O10 Ti2"
_cell_length_a       3.59517
_cell_length_b       5.0142
_cell_length_c       9.64259
_cell_angle_alpha    90
_cell_angle_beta     90
_cell_angle_gamma    111.008

_space_group_name_H-M_alt    "P 1"
_space_group_IT_number       1

loop_
  _space_group_symop_operation_xyz
  'x, y, z'

loop_
  _atom_site_type_symbol
  _atom_site_label
  _atom_site_symmetry_multiplicity
  _atom_site_fract_x
  _atom_site_fract_y
  _atom_site_fract_z
  _atom_site_occupancy
  Al  Al1       1.0  0.86000  0.71900  0.05610  1.0000
  Al  Al2       1.0  0.86000  0.71900  0.44400  1.0000
  Al  Al3       1.0  0.14000  0.28100  0.55600  1.0000
  Al  Al4       1.0  0.14000  0.28100  0.94400  1.0000
  O   O1        1.0  0.31300  0.62700  0.06570  1.0000
  O   O2        1.0  0.04450  0.08890  0.11700  1.0000
  O   O3        1.0  0.76800  0.53700  0.25000  1.0000
  O   O4        1.0  0.04450  0.08890  0.38300  1.0000
  O   O5        1.0  0.31300  0.62700  0.43400  1.0000
  O   O6        1.0  0.68700  0.37300  0.56600  1.0000
  O   O7        1.0  0.95600  0.91100  0.61700  1.0000
  O   O8        1.0  0.23200  0.46300  0.75000  1.0000
  O   O9        1.0  0.95600  0.91100  0.88300  1.0000
  O   O10       1.0  0.68700  0.37300  0.93400  1.0000
  Ti  Ti1       1.0  0.18700  0.37400  0.25000  1.0000
  Ti  Ti2       1.0  0.81300  0.62600  0.75000  1.0000
