data_image0
_chemical_formula_structural       Ba4Hg4S8
_chemical_formula_sum              "Ba4 Hg4 S8"
_cell_length_a       4.27751
_cell_length_b       14.5884
_cell_length_c       7.43008
_cell_angle_alpha    90
_cell_angle_beta     90
_cell_angle_gamma    90

_space_group_name_H-M_alt    "P 1"
_space_group_IT_number       1

loop_
  _space_group_symop_operation_xyz
  'x, y, z'

loop_
  _atom_site_type_symbol
  _atom_site_label
  _atom_site_symmetry_multiplicity
  _atom_site_fract_x
  _atom_site_fract_y
  _atom_site_fract_z
  _atom_site_occupancy
  Ba  Ba1       1.0  0.00000  0.61000  0.32100  1.0000
  Ba  Ba2       1.0  0.00000  0.10200  0.49600  1.0000
  Ba  Ba3       1.0  0.00000  0.39000  0.82100  1.0000
  Ba  Ba4       1.0  0.00000  0.89800  0.99600  1.0000
  Hg  Hg1       1.0  0.50000  0.14100  0.00033  1.0000
  Hg  Hg2       1.0  0.50000  0.35200  0.33500  1.0000
  Hg  Hg3       1.0  0.50000  0.85900  0.50000  1.0000
  Hg  Hg4       1.0  0.50000  0.64800  0.83500  1.0000
  S   S1        1.0  0.50000  0.73700  0.10200  1.0000
  S   S2        1.0  0.00000  0.22200  0.10800  1.0000
  S   S3        1.0  0.50000  0.46900  0.11100  1.0000
  S   S4        1.0  0.50000  0.98400  0.27100  1.0000
  S   S5        1.0  0.50000  0.26300  0.60200  1.0000
  S   S6        1.0  0.00000  0.77800  0.60800  1.0000
  S   S7        1.0  0.50000  0.53100  0.61100  1.0000
  S   S8        1.0  0.50000  0.01560  0.77100  1.0000
