data_image0
_chemical_formula_structural       Al2As2F2Na2O8
_chemical_formula_sum              "Al2 As2 F2 Na2 O8"
_cell_length_a       5.35407
_cell_length_b       5.35407
_cell_length_c       6.9751
_cell_angle_alpha    105.083
_cell_angle_beta     105.083
_cell_angle_gamma    104.911

_space_group_name_H-M_alt    "P 1"
_space_group_IT_number       1

loop_
  _space_group_symop_operation_xyz
  'x, y, z'

loop_
  _atom_site_type_symbol
  _atom_site_label
  _atom_site_symmetry_multiplicity
  _atom_site_fract_x
  _atom_site_fract_y
  _atom_site_fract_z
  _atom_site_occupancy
  Al  Al1       1.0  0.00000  0.00000  0.00000  1.0000
  Al  Al2       1.0  0.00000  0.00000  0.50000  1.0000
  As  As1       1.0  0.68500  0.31500  0.25000  1.0000
  As  As2       1.0  0.31500  0.68500  0.75000  1.0000
  F   F1        1.0  0.06750  0.93200  0.25000  1.0000
  F   F2        1.0  0.93200  0.06750  0.75000  1.0000
  Na  Na1       1.0  0.32900  0.67100  0.25000  1.0000
  Na  Na2       1.0  0.67100  0.32900  0.75000  1.0000
  O   O1        1.0  0.36200  0.24000  0.07730  1.0000
  O   O2        1.0  0.90400  0.31000  0.11000  1.0000
  O   O3        1.0  0.69000  0.09630  0.39000  1.0000
  O   O4        1.0  0.76000  0.63800  0.42300  1.0000
  O   O5        1.0  0.24000  0.36200  0.57700  1.0000
  O   O6        1.0  0.31000  0.90400  0.61000  1.0000
  O   O7        1.0  0.09630  0.69000  0.89000  1.0000
  O   O8        1.0  0.63800  0.76000  0.92300  1.0000
