data_image0
_chemical_formula_structural       Fe2Mo6S8
_chemical_formula_sum              "Fe2 Mo6 S8"
_cell_length_a       6.50398
_cell_length_b       6.47252
_cell_length_c       6.48892
_cell_angle_alpha    95.8408
_cell_angle_beta     97.2825
_cell_angle_gamma    91.209

_space_group_name_H-M_alt    "P 1"
_space_group_IT_number       1

loop_
  _space_group_symop_operation_xyz
  'x, y, z'

loop_
  _atom_site_type_symbol
  _atom_site_label
  _atom_site_symmetry_multiplicity
  _atom_site_fract_x
  _atom_site_fract_y
  _atom_site_fract_z
  _atom_site_occupancy
  Fe  Fe1       1.0  0.90500  0.99700  0.14800  1.0000
  Fe  Fe2       1.0  0.09480  0.00277  0.85200  1.0000
  Mo  Mo1       1.0  0.40200  0.54300  0.21700  1.0000
  Mo  Mo2       1.0  0.55000  0.22000  0.40900  1.0000
  Mo  Mo3       1.0  0.77800  0.58400  0.46300  1.0000
  Mo  Mo4       1.0  0.22200  0.41600  0.53700  1.0000
  Mo  Mo5       1.0  0.45000  0.78000  0.59100  1.0000
  Mo  Mo6       1.0  0.59800  0.45700  0.78300  1.0000
  S   S1        1.0  0.73300  0.35800  0.14000  1.0000
  S   S2        1.0  0.21500  0.20300  0.18500  1.0000
  S   S3        1.0  0.61400  0.85600  0.27500  1.0000
  S   S4        1.0  0.12000  0.73700  0.36000  1.0000
  S   S5        1.0  0.88000  0.26300  0.64000  1.0000
  S   S6        1.0  0.38600  0.14400  0.72500  1.0000
  S   S7        1.0  0.78500  0.79700  0.81500  1.0000
  S   S8        1.0  0.26700  0.64200  0.86000  1.0000
