data_image0
_chemical_formula_structural       Cl2O8P2Sn4
_chemical_formula_sum              "Cl2 O8 P2 Sn4"
_cell_length_a       4.72127
_cell_length_b       4.99584
_cell_length_c       13.2535
_cell_angle_alpha    90
_cell_angle_beta     90
_cell_angle_gamma    61.802

_space_group_name_H-M_alt    "P 1"
_space_group_IT_number       1

loop_
  _space_group_symop_operation_xyz
  'x, y, z'

loop_
  _atom_site_type_symbol
  _atom_site_label
  _atom_site_symmetry_multiplicity
  _atom_site_fract_x
  _atom_site_fract_y
  _atom_site_fract_z
  _atom_site_occupancy
  Cl  Cl1       1.0  0.54500  0.00000  0.00000  1.0000
  Cl  Cl2       1.0  0.54500  0.00000  0.50000  1.0000
  O   O1        1.0  0.86300  0.40900  0.15200  1.0000
  O   O2        1.0  0.44800  0.34000  0.25000  1.0000
  O   O3        1.0  0.02010  0.91900  0.25000  1.0000
  O   O4        1.0  0.86300  0.40900  0.34800  1.0000
  O   O5        1.0  0.27200  0.59100  0.65200  1.0000
  O   O6        1.0  0.93900  0.08060  0.75000  1.0000
  O   O7        1.0  0.78800  0.66000  0.75000  1.0000
  O   O8        1.0  0.27200  0.59100  0.84800  1.0000
  P   P1        1.0  0.80800  0.27200  0.25000  1.0000
  P   P2        1.0  0.08030  0.72800  0.75000  1.0000
  Sn  Sn1       1.0  0.17300  0.60700  0.10800  1.0000
  Sn  Sn2       1.0  0.17300  0.60700  0.39200  1.0000
  Sn  Sn3       1.0  0.78000  0.39300  0.60800  1.0000
  Sn  Sn4       1.0  0.78000  0.39300  0.89200  1.0000
