data_image0
_chemical_formula_structural       O20V12
_chemical_formula_sum              "O20 V12"
_cell_length_a       9.89529
_cell_length_b       5.08887
_cell_length_c       9.82558
_cell_angle_alpha    90.0044
_cell_angle_beta     138.628
_cell_angle_gamma    89.995

_space_group_name_H-M_alt    "P 1"
_space_group_IT_number       1

loop_
  _space_group_symop_operation_xyz
  'x, y, z'

loop_
  _atom_site_type_symbol
  _atom_site_label
  _atom_site_symmetry_multiplicity
  _atom_site_fract_x
  _atom_site_fract_y
  _atom_site_fract_z
  _atom_site_occupancy
  O   O1        1.0  0.99900  0.45400  0.24900  1.0000
  O   O2        1.0  0.50100  0.93700  0.25100  1.0000
  O   O3        1.0  0.00064  0.56300  0.75100  1.0000
  O   O4        1.0  0.49900  0.04650  0.74900  1.0000
  O   O5        1.0  0.61100  0.41200  0.44200  1.0000
  O   O6        1.0  0.89000  0.90300  0.05650  1.0000
  O   O7        1.0  0.39000  0.59700  0.55700  1.0000
  O   O8        1.0  0.11100  0.08780  0.94200  1.0000
  O   O9        1.0  0.10900  0.90300  0.44300  1.0000
  O   O10       1.0  0.39000  0.41200  0.05870  1.0000
  O   O11       1.0  0.89000  0.08800  0.55900  1.0000
  O   O12       1.0  0.60900  0.59700  0.94300  1.0000
  O   O13       1.0  0.72100  0.08820  0.15700  1.0000
  O   O14       1.0  0.78900  0.59900  0.34000  1.0000
  O   O15       1.0  0.28900  0.90100  0.84000  1.0000
  O   O16       1.0  0.22100  0.41200  0.65700  1.0000
  O   O17       1.0  0.21200  0.59900  0.16000  1.0000
  O   O18       1.0  0.27900  0.08810  0.34200  1.0000
  O   O19       1.0  0.77900  0.41200  0.84200  1.0000
  O   O20       1.0  0.71200  0.90100  0.66000  1.0000
  V   V1        1.0  0.83900  0.25400  0.71800  1.0000
  V   V2        1.0  0.66100  0.75200  0.78000  1.0000
  V   V3        1.0  0.16100  0.74800  0.28000  1.0000
  V   V4        1.0  0.33900  0.24600  0.21800  1.0000
  V   V5        1.0  0.66200  0.24700  0.28300  1.0000
  V   V6        1.0  0.83800  0.74800  0.21900  1.0000
  V   V7        1.0  0.33800  0.75200  0.71900  1.0000
  V   V8        1.0  0.16200  0.25300  0.78300  1.0000
  V   V9        1.0  0.24900  0.25000  0.49900  1.0000
  V   V10       1.0  0.25100  0.75000  0.00065  1.0000
  V   V11       1.0  0.75100  0.75000  0.50100  1.0000
  V   V12       1.0  0.74900  0.25000  0.99900  1.0000
