data_image0
_chemical_formula_structural       Fe2Na8O6
_chemical_formula_sum              "Fe2 Na8 O6"
_cell_length_a       5.78501
_cell_length_b       6.16599
_cell_length_c       8.12513
_cell_angle_alpha    110.58
_cell_angle_beta     90
_cell_angle_gamma    117.976

_space_group_name_H-M_alt    "P 1"
_space_group_IT_number       1

loop_
  _space_group_symop_operation_xyz
  'x, y, z'

loop_
  _atom_site_type_symbol
  _atom_site_label
  _atom_site_symmetry_multiplicity
  _atom_site_fract_x
  _atom_site_fract_y
  _atom_site_fract_z
  _atom_site_occupancy
  Fe  Fe1       1.0  0.66800  0.04060  0.25400  1.0000
  Fe  Fe2       1.0  0.37300  0.04060  0.75400  1.0000
  Na  Na1       1.0  0.05420  0.77700  0.04910  1.0000
  Na  Na2       1.0  0.48400  0.38700  0.15300  1.0000
  Na  Na3       1.0  0.12900  0.58500  0.36800  1.0000
  Na  Na4       1.0  0.27200  0.23300  0.46900  1.0000
  Na  Na5       1.0  0.72200  0.77700  0.54900  1.0000
  Na  Na6       1.0  0.90300  0.38700  0.65300  1.0000
  Na  Na7       1.0  0.45600  0.58500  0.86800  1.0000
  Na  Na8       1.0  0.96100  0.23300  0.96900  1.0000
  O   O1        1.0  0.35900  0.69900  0.15600  1.0000
  O   O2        1.0  0.01380  0.12500  0.20500  1.0000
  O   O3        1.0  0.68300  0.37000  0.39500  1.0000
  O   O4        1.0  0.34000  0.69900  0.65600  1.0000
  O   O5        1.0  0.11100  0.12500  0.70500  1.0000
  O   O6        1.0  0.68700  0.37000  0.89500  1.0000
