data_image0
_chemical_formula_structural       As2Cl2Cu4O8
_chemical_formula_sum              "As2 Cl2 Cu4 O8"
_cell_length_a       7.10514
_cell_length_b       6.57342
_cell_length_c       4.63724
_cell_angle_alpha    90
_cell_angle_beta     90.9418
_cell_angle_gamma    90

_space_group_name_H-M_alt    "P 1"
_space_group_IT_number       1

loop_
  _space_group_symop_operation_xyz
  'x, y, z'

loop_
  _atom_site_type_symbol
  _atom_site_label
  _atom_site_symmetry_multiplicity
  _atom_site_fract_x
  _atom_site_fract_y
  _atom_site_fract_z
  _atom_site_occupancy
  As  As1       1.0  0.76500  0.25000  0.48300  1.0000
  As  As2       1.0  0.23500  0.75000  0.51700  1.0000
  Cl  Cl1       1.0  0.72200  0.75000  0.17600  1.0000
  Cl  Cl2       1.0  0.27800  0.25000  0.82400  1.0000
  Cu  Cu1       1.0  0.00000  0.00000  0.00000  1.0000
  Cu  Cu2       1.0  0.00000  0.50000  0.00000  1.0000
  Cu  Cu3       1.0  0.28600  0.25000  0.34100  1.0000
  Cu  Cu4       1.0  0.71400  0.75000  0.65900  1.0000
  O   O1        1.0  0.94100  0.25000  0.21100  1.0000
  O   O2        1.0  0.19300  0.53900  0.29900  1.0000
  O   O3        1.0  0.19300  0.96100  0.29900  1.0000
  O   O4        1.0  0.56100  0.25000  0.30200  1.0000
  O   O5        1.0  0.43900  0.75000  0.69800  1.0000
  O   O6        1.0  0.80700  0.03930  0.70100  1.0000
  O   O7        1.0  0.80700  0.46100  0.70100  1.0000
  O   O8        1.0  0.05900  0.75000  0.78900  1.0000
