data_image0
_chemical_formula_structural       O10Sb4V2
_chemical_formula_sum              "O10 Sb4 V2"
_cell_length_a       4.70726
_cell_length_b       5.50427
_cell_length_c       9.17004
_cell_angle_alpha    93.8258
_cell_angle_beta     104.872
_cell_angle_gamma    90

_space_group_name_H-M_alt    "P 1"
_space_group_IT_number       1

loop_
  _space_group_symop_operation_xyz
  'x, y, z'

loop_
  _atom_site_type_symbol
  _atom_site_label
  _atom_site_symmetry_multiplicity
  _atom_site_fract_x
  _atom_site_fract_y
  _atom_site_fract_z
  _atom_site_occupancy
  O   O1        1.0  0.98600  0.75000  0.00000  1.0000
  O   O2        1.0  0.01440  0.25000  0.00000  1.0000
  O   O3        1.0  0.58600  0.51200  0.14700  1.0000
  O   O4        1.0  0.56100  0.01240  0.14700  1.0000
  O   O5        1.0  0.80500  0.84900  0.41800  1.0000
  O   O6        1.0  0.61300  0.34900  0.41800  1.0000
  O   O7        1.0  0.38700  0.65100  0.58200  1.0000
  O   O8        1.0  0.19500  0.15100  0.58200  1.0000
  O   O9        1.0  0.43900  0.98800  0.85300  1.0000
  O   O10       1.0  0.41400  0.48800  0.85300  1.0000
  Sb  Sb1       1.0  0.43000  0.65800  0.32400  1.0000
  Sb  Sb2       1.0  0.89400  0.15800  0.32400  1.0000
  Sb  Sb3       1.0  0.10600  0.84200  0.67600  1.0000
  Sb  Sb4       1.0  0.57000  0.34200  0.67600  1.0000
  V   V1        1.0  0.63700  0.75000  0.00000  1.0000
  V   V2        1.0  0.36300  0.25000  0.00000  1.0000
