data_image0
_chemical_formula_structural       C4N8Pb4
_chemical_formula_sum              "C4 N8 Pb4"
_cell_length_a       5.58196
_cell_length_b       11.7306
_cell_length_c       3.82224
_cell_angle_alpha    90
_cell_angle_beta     90
_cell_angle_gamma    90

_space_group_name_H-M_alt    "P 1"
_space_group_IT_number       1

loop_
  _space_group_symop_operation_xyz
  'x, y, z'

loop_
  _atom_site_type_symbol
  _atom_site_label
  _atom_site_symmetry_multiplicity
  _atom_site_fract_x
  _atom_site_fract_y
  _atom_site_fract_z
  _atom_site_occupancy
  C   C1        1.0  0.61900  0.10200  0.46500  1.0000
  C   C2        1.0  0.11900  0.39800  0.46500  1.0000
  C   C3        1.0  0.88100  0.60200  0.96500  1.0000
  C   C4        1.0  0.38100  0.89800  0.96500  1.0000
  N   N1        1.0  0.82600  0.06140  0.46600  1.0000
  N   N2        1.0  0.32600  0.43900  0.46600  1.0000
  N   N3        1.0  0.42100  0.14700  0.46800  1.0000
  N   N4        1.0  0.92100  0.35300  0.46800  1.0000
  N   N5        1.0  0.67400  0.56100  0.96600  1.0000
  N   N6        1.0  0.17400  0.93900  0.96600  1.0000
  N   N7        1.0  0.07910  0.64700  0.96800  1.0000
  N   N8        1.0  0.57900  0.85300  0.96800  1.0000
  Pb  Pb1       1.0  0.11200  0.13900  0.98600  1.0000
  Pb  Pb2       1.0  0.61200  0.36100  0.98600  1.0000
  Pb  Pb3       1.0  0.38800  0.63900  0.48600  1.0000
  Pb  Pb4       1.0  0.88800  0.86100  0.48600  1.0000
