data_image0
_chemical_formula_structural       Cu4Sb4Se8
_chemical_formula_sum              "Cu4 Sb4 Se8"
_cell_length_a       6.44278
_cell_length_b       4.01849
_cell_length_c       15.0631
_cell_angle_alpha    90
_cell_angle_beta     90
_cell_angle_gamma    90

_space_group_name_H-M_alt    "P 1"
_space_group_IT_number       1

loop_
  _space_group_symop_operation_xyz
  'x, y, z'

loop_
  _atom_site_type_symbol
  _atom_site_label
  _atom_site_symmetry_multiplicity
  _atom_site_fract_x
  _atom_site_fract_y
  _atom_site_fract_z
  _atom_site_occupancy
  Cu  Cu1       1.0  0.74900  0.75000  0.17100  1.0000
  Cu  Cu2       1.0  0.24900  0.75000  0.32900  1.0000
  Cu  Cu3       1.0  0.75100  0.25000  0.67100  1.0000
  Cu  Cu4       1.0  0.25100  0.25000  0.82900  1.0000
  Sb  Sb1       1.0  0.22900  0.25000  0.05860  1.0000
  Sb  Sb2       1.0  0.72900  0.25000  0.44100  1.0000
  Sb  Sb3       1.0  0.27100  0.75000  0.55900  1.0000
  Sb  Sb4       1.0  0.77100  0.75000  0.94100  1.0000
  Se  Se1       1.0  0.62900  0.25000  0.09570  1.0000
  Se  Se2       1.0  0.12400  0.75000  0.17600  1.0000
  Se  Se3       1.0  0.62400  0.75000  0.32400  1.0000
  Se  Se4       1.0  0.12900  0.25000  0.40400  1.0000
  Se  Se5       1.0  0.87100  0.75000  0.59600  1.0000
  Se  Se6       1.0  0.37600  0.25000  0.67600  1.0000
  Se  Se7       1.0  0.87600  0.25000  0.82400  1.0000
  Se  Se8       1.0  0.37100  0.75000  0.90400  1.0000
