data_image0
_chemical_formula_structural       Ir6Pu10
_chemical_formula_sum              "Ir6 Pu10"
_cell_length_a       5.69754
_cell_length_b       8.347
_cell_length_c       8.347
_cell_angle_alpha    96.689
_cell_angle_beta     70.0444
_cell_angle_gamma    109.956

_space_group_name_H-M_alt    "P 1"
_space_group_IT_number       1

loop_
  _space_group_symop_operation_xyz
  'x, y, z'

loop_
  _atom_site_type_symbol
  _atom_site_label
  _atom_site_symmetry_multiplicity
  _atom_site_fract_x
  _atom_site_fract_y
  _atom_site_fract_z
  _atom_site_occupancy
  Ir  Ir1       1.0  0.25000  0.00000  0.00000  1.0000
  Ir  Ir2       1.0  0.75000  0.00000  0.00000  1.0000
  Ir  Ir3       1.0  0.16000  0.50000  0.18000  1.0000
  Ir  Ir4       1.0  0.34000  0.18000  0.50000  1.0000
  Ir  Ir5       1.0  0.66000  0.82000  0.50000  1.0000
  Ir  Ir6       1.0  0.84000  0.50000  0.82000  1.0000
  Pu  Pu1       1.0  0.58500  0.30300  0.13200  1.0000
  Pu  Pu2       1.0  0.78200  0.69700  0.13200  1.0000
  Pu  Pu3       1.0  0.28200  0.86800  0.30300  1.0000
  Pu  Pu4       1.0  0.91500  0.13200  0.30300  1.0000
  Pu  Pu5       1.0  0.25000  0.50000  0.50000  1.0000
  Pu  Pu6       1.0  0.75000  0.50000  0.50000  1.0000
  Pu  Pu7       1.0  0.08530  0.86800  0.69700  1.0000
  Pu  Pu8       1.0  0.71800  0.13200  0.69700  1.0000
  Pu  Pu9       1.0  0.21800  0.30300  0.86800  1.0000
  Pu  Pu10      1.0  0.41500  0.69700  0.86800  1.0000
