data_image0
_chemical_formula_structural       Al2Cl12I2
_chemical_formula_sum              "Al2 Cl12 I2"
_cell_length_a       7.04437
_cell_length_b       11.1558
_cell_length_c       6.17549
_cell_angle_alpha    90
_cell_angle_beta     98.9701
_cell_angle_gamma    90

_space_group_name_H-M_alt    "P 1"
_space_group_IT_number       1

loop_
  _space_group_symop_operation_xyz
  'x, y, z'

loop_
  _atom_site_type_symbol
  _atom_site_label
  _atom_site_symmetry_multiplicity
  _atom_site_fract_x
  _atom_site_fract_y
  _atom_site_fract_z
  _atom_site_occupancy
  Al  Al1       1.0  0.48100  0.58900  0.41000  1.0000
  Al  Al2       1.0  0.51900  0.08850  0.59000  1.0000
  Cl  Cl1       1.0  0.01940  0.87600  0.21400  1.0000
  Cl  Cl2       1.0  0.48500  0.09520  0.22900  1.0000
  Cl  Cl3       1.0  0.99700  0.20900  0.27200  1.0000
  Cl  Cl4       1.0  0.54400  0.77100  0.30100  1.0000
  Cl  Cl5       1.0  0.18700  0.54900  0.30700  1.0000
  Cl  Cl6       1.0  0.67800  0.46500  0.30800  1.0000
  Cl  Cl7       1.0  0.32200  0.96500  0.69200  1.0000
  Cl  Cl8       1.0  0.81300  0.04880  0.69300  1.0000
  Cl  Cl9       1.0  0.45600  0.27100  0.69900  1.0000
  Cl  Cl10      1.0  0.00275  0.70900  0.72800  1.0000
  Cl  Cl11      1.0  0.51500  0.59500  0.77100  1.0000
  Cl  Cl12      1.0  0.98100  0.37600  0.78600  1.0000
  I   I1        1.0  0.19400  0.24700  0.00410  1.0000
  I   I2        1.0  0.80600  0.74700  0.99600  1.0000
