data_image0
_chemical_formula_structural       Ba2Cu8S6
_chemical_formula_sum              "Ba2 Cu8 S6"
_cell_length_a       3.98755
_cell_length_b       7.36521
_cell_length_c       10.2697
_cell_angle_alpha    90
_cell_angle_beta     90
_cell_angle_gamma    74.2939

_space_group_name_H-M_alt    "P 1"
_space_group_IT_number       1

loop_
  _space_group_symop_operation_xyz
  'x, y, z'

loop_
  _atom_site_type_symbol
  _atom_site_label
  _atom_site_symmetry_multiplicity
  _atom_site_fract_x
  _atom_site_fract_y
  _atom_site_fract_z
  _atom_site_occupancy
  Ba  Ba1       1.0  0.74900  0.50100  0.25000  1.0000
  Ba  Ba2       1.0  0.25100  0.49900  0.75000  1.0000
  Cu  Cu1       1.0  0.09450  0.81100  0.02280  1.0000
  Cu  Cu2       1.0  0.49900  0.00134  0.12700  1.0000
  Cu  Cu3       1.0  0.49900  0.00134  0.37300  1.0000
  Cu  Cu4       1.0  0.09450  0.81100  0.47700  1.0000
  Cu  Cu5       1.0  0.90600  0.18900  0.52300  1.0000
  Cu  Cu6       1.0  0.50100  0.99900  0.62700  1.0000
  Cu  Cu7       1.0  0.50100  0.99900  0.87300  1.0000
  Cu  Cu8       1.0  0.90600  0.18900  0.97700  1.0000
  S   S1        1.0  0.34900  0.30100  0.04930  1.0000
  S   S2        1.0  0.05950  0.88100  0.25000  1.0000
  S   S3        1.0  0.34900  0.30100  0.45100  1.0000
  S   S4        1.0  0.65100  0.69900  0.54900  1.0000
  S   S5        1.0  0.94100  0.11900  0.75000  1.0000
  S   S6        1.0  0.65100  0.69900  0.95100  1.0000
