data_image0
_chemical_formula_structural       Nb10Si2Sn4
_chemical_formula_sum              "Nb10 Si2 Sn4"
_cell_length_a       5.15666
_cell_length_b       7.96012
_cell_length_c       7.96012
_cell_angle_alpha    96.0223
_cell_angle_beta     71.1007
_cell_angle_gamma    108.899

_space_group_name_H-M_alt    "P 1"
_space_group_IT_number       1

loop_
  _space_group_symop_operation_xyz
  'x, y, z'

loop_
  _atom_site_type_symbol
  _atom_site_label
  _atom_site_symmetry_multiplicity
  _atom_site_fract_x
  _atom_site_fract_y
  _atom_site_fract_z
  _atom_site_occupancy
  Nb  Nb1       1.0  0.57000  0.28100  0.14200  1.0000
  Nb  Nb2       1.0  0.78900  0.71900  0.14200  1.0000
  Nb  Nb3       1.0  0.93000  0.14200  0.28100  1.0000
  Nb  Nb4       1.0  0.28900  0.85800  0.28100  1.0000
  Nb  Nb5       1.0  0.25000  0.50000  0.50000  1.0000
  Nb  Nb6       1.0  0.75000  0.50000  0.50000  1.0000
  Nb  Nb7       1.0  0.71100  0.14200  0.71900  1.0000
  Nb  Nb8       1.0  0.06970  0.85800  0.71900  1.0000
  Nb  Nb9       1.0  0.43000  0.71900  0.85800  1.0000
  Nb  Nb10      1.0  0.21100  0.28100  0.85800  1.0000
  Si  Si1       1.0  0.25000  0.00000  0.00000  1.0000
  Si  Si2       1.0  0.75000  0.00000  0.00000  1.0000
  Sn  Sn1       1.0  0.16900  0.50000  0.16200  1.0000
  Sn  Sn2       1.0  0.33100  0.16200  0.50000  1.0000
  Sn  Sn3       1.0  0.66900  0.83800  0.50000  1.0000
  Sn  Sn4       1.0  0.83100  0.50000  0.83800  1.0000
