data_image0
_chemical_formula_structural       Cu2O10Se4
_chemical_formula_sum              "Cu2 O10 Se4"
_cell_length_a       4.88217
_cell_length_b       6.4874
_cell_length_c       7.86613
_cell_angle_alpha    110.044
_cell_angle_beta     90
_cell_angle_gamma    112.103

_space_group_name_H-M_alt    "P 1"
_space_group_IT_number       1

loop_
  _space_group_symop_operation_xyz
  'x, y, z'

loop_
  _atom_site_type_symbol
  _atom_site_label
  _atom_site_symmetry_multiplicity
  _atom_site_fract_x
  _atom_site_fract_y
  _atom_site_fract_z
  _atom_site_occupancy
  Cu  Cu1       1.0  0.00000  0.00000  0.00000  1.0000
  Cu  Cu2       1.0  0.00000  0.00000  0.50000  1.0000
  O   O1        1.0  0.10400  0.74300  0.00539  1.0000
  O   O2        1.0  0.35900  0.26100  0.15400  1.0000
  O   O3        1.0  0.62800  0.00000  0.25000  1.0000
  O   O4        1.0  0.09850  0.73900  0.34600  1.0000
  O   O5        1.0  0.36100  0.25700  0.49500  1.0000
  O   O6        1.0  0.63900  0.74300  0.50500  1.0000
  O   O7        1.0  0.90100  0.26100  0.65400  1.0000
  O   O8        1.0  0.37200  0.00000  0.75000  1.0000
  O   O9        1.0  0.64100  0.73900  0.84600  1.0000
  O   O10       1.0  0.89600  0.25700  0.99500  1.0000
  Se  Se1       1.0  0.29600  0.70900  0.16900  1.0000
  Se  Se2       1.0  0.58700  0.29100  0.33100  1.0000
  Se  Se3       1.0  0.41300  0.70900  0.66900  1.0000
  Se  Se4       1.0  0.70400  0.29100  0.83100  1.0000
