data_image0
_chemical_formula_structural       Ba3O9Yb4
_chemical_formula_sum              "Ba3 O9 Yb4"
_cell_length_a       6.05341
_cell_length_b       6.05341
_cell_length_c       9.00417
_cell_angle_alpha    109.642
_cell_angle_beta     70.3578
_cell_angle_gamma    120

_space_group_name_H-M_alt    "P 1"
_space_group_IT_number       1

loop_
  _space_group_symop_operation_xyz
  'x, y, z'

loop_
  _atom_site_type_symbol
  _atom_site_label
  _atom_site_symmetry_multiplicity
  _atom_site_fract_x
  _atom_site_fract_y
  _atom_site_fract_z
  _atom_site_occupancy
  Ba  Ba1       1.0  0.99000  0.00978  0.02930  1.0000
  Ba  Ba2       1.0  0.82600  0.17400  0.52300  1.0000
  Ba  Ba3       1.0  0.41500  0.58500  0.75400  1.0000
  O   O1        1.0  0.54800  0.05230  0.11400  1.0000
  O   O2        1.0  0.39000  0.45200  0.11400  1.0000
  O   O3        1.0  0.94800  0.61000  0.11400  1.0000
  O   O4        1.0  0.40000  0.14500  0.45600  1.0000
  O   O5        1.0  0.28900  0.60000  0.45600  1.0000
  O   O6        1.0  0.85500  0.71100  0.45600  1.0000
  O   O7        1.0  0.41200  0.03440  0.77700  1.0000
  O   O8        1.0  0.96600  0.15500  0.77700  1.0000
  O   O9        1.0  0.84500  0.58800  0.77700  1.0000
  Yb  Yb1       1.0  0.24600  0.75400  0.26100  1.0000
  Yb  Yb2       1.0  0.56700  0.43300  0.29800  1.0000
  Yb  Yb3       1.0  0.12500  0.87500  0.62400  1.0000
  Yb  Yb4       1.0  0.68700  0.31300  0.93900  1.0000
