data_image0
_chemical_formula_structural       As4Au2K10
_chemical_formula_sum              "As4 Au2 K10"
_cell_length_a       5.7828
_cell_length_b       5.78284
_cell_length_c       19.509
_cell_angle_alpha    90
_cell_angle_beta     90
_cell_angle_gamma    120

_space_group_name_H-M_alt    "P 1"
_space_group_IT_number       1

loop_
  _space_group_symop_operation_xyz
  'x, y, z'

loop_
  _atom_site_type_symbol
  _atom_site_label
  _atom_site_symmetry_multiplicity
  _atom_site_fract_x
  _atom_site_fract_y
  _atom_site_fract_z
  _atom_site_occupancy
  As  As1       1.0  0.33300  0.66700  0.12100  1.0000
  As  As2       1.0  0.33300  0.66700  0.37900  1.0000
  As  As3       1.0  0.66700  0.33300  0.62100  1.0000
  As  As4       1.0  0.66700  0.33300  0.87900  1.0000
  Au  Au1       1.0  0.33300  0.66700  0.25000  1.0000
  Au  Au2       1.0  0.66700  0.33300  0.75000  1.0000
  K   K1        1.0  0.66700  0.33300  0.04970  1.0000
  K   K2        1.0  0.00000  0.00000  0.14700  1.0000
  K   K3        1.0  0.66700  0.33300  0.25000  1.0000
  K   K4        1.0  0.00000  0.00000  0.35300  1.0000
  K   K5        1.0  0.66700  0.33300  0.45000  1.0000
  K   K6        1.0  0.33300  0.66700  0.55000  1.0000
  K   K7        1.0  0.00000  0.00001  0.64700  1.0000
  K   K8        1.0  0.33300  0.66700  0.75000  1.0000
  K   K9        1.0  0.00000  0.00001  0.85300  1.0000
  K   K10       1.0  0.33300  0.66700  0.95000  1.0000
