data_image0
_chemical_formula_structural       Ag6Yb10
_chemical_formula_sum              "Ag6 Yb10"
_cell_length_a       7.86264
_cell_length_b       7.86264
_cell_length_c       9.19518
_cell_angle_alpha    115.312
_cell_angle_beta     115.312
_cell_angle_gamma    90

_space_group_name_H-M_alt    "P 1"
_space_group_IT_number       1

loop_
  _space_group_symop_operation_xyz
  'x, y, z'

loop_
  _atom_site_type_symbol
  _atom_site_label
  _atom_site_symmetry_multiplicity
  _atom_site_fract_x
  _atom_site_fract_y
  _atom_site_fract_z
  _atom_site_occupancy
  Ag  Ag1       1.0  0.62900  0.12900  0.00000  1.0000
  Ag  Ag2       1.0  0.12900  0.37100  0.00000  1.0000
  Ag  Ag3       1.0  0.87100  0.62900  0.00000  1.0000
  Ag  Ag4       1.0  0.37100  0.87100  0.00000  1.0000
  Ag  Ag5       1.0  0.25000  0.25000  0.50000  1.0000
  Ag  Ag6       1.0  0.75000  0.75000  0.50000  1.0000
  Yb  Yb1       1.0  0.00000  0.00000  0.00000  1.0000
  Yb  Yb2       1.0  0.50000  0.50000  0.00000  1.0000
  Yb  Yb3       1.0  0.47700  0.31300  0.28900  1.0000
  Yb  Yb4       1.0  0.97700  0.47700  0.28900  1.0000
  Yb  Yb5       1.0  0.31300  0.81300  0.28900  1.0000
  Yb  Yb6       1.0  0.81300  0.97700  0.28900  1.0000
  Yb  Yb7       1.0  0.18700  0.02350  0.71100  1.0000
  Yb  Yb8       1.0  0.68700  0.18700  0.71100  1.0000
  Yb  Yb9       1.0  0.02350  0.52300  0.71100  1.0000
  Yb  Yb10      1.0  0.52300  0.68700  0.71100  1.0000
