data_image0
_chemical_formula_structural       Ge2Li4O8Zn2
_chemical_formula_sum              "Ge2 Li4 O8 Zn2"
_cell_length_a       6.33246
_cell_length_b       5.43286
_cell_length_c       5.03354
_cell_angle_alpha    90
_cell_angle_beta     89.8998
_cell_angle_gamma    90

_space_group_name_H-M_alt    "P 1"
_space_group_IT_number       1

loop_
  _space_group_symop_operation_xyz
  'x, y, z'

loop_
  _atom_site_type_symbol
  _atom_site_label
  _atom_site_symmetry_multiplicity
  _atom_site_fract_x
  _atom_site_fract_y
  _atom_site_fract_z
  _atom_site_occupancy
  Ge  Ge1       1.0  0.00000  0.16600  0.00388  1.0000
  Ge  Ge2       1.0  0.50000  0.83400  0.50400  1.0000
  Li  Li1       1.0  0.50000  0.16300  0.99800  1.0000
  Li  Li2       1.0  0.24900  0.67000  0.99900  1.0000
  Li  Li3       1.0  0.00000  0.83700  0.49800  1.0000
  Li  Li4       1.0  0.74900  0.33000  0.49900  1.0000
  O   O1        1.0  0.99800  0.17400  0.35600  1.0000
  O   O2        1.0  0.26900  0.68200  0.38700  1.0000
  O   O3        1.0  0.50100  0.14100  0.38800  1.0000
  O   O4        1.0  0.73000  0.67700  0.39400  1.0000
  O   O5        1.0  0.49800  0.82600  0.85600  1.0000
  O   O6        1.0  0.76900  0.31800  0.88700  1.0000
  O   O7        1.0  0.00143  0.85900  0.88800  1.0000
  O   O8        1.0  0.23000  0.32300  0.89400  1.0000
  Zn  Zn1       1.0  0.75200  0.66400  0.00007  1.0000
  Zn  Zn2       1.0  0.25200  0.33600  0.50000  1.0000
