data_image0
_chemical_formula_structural       B4Si2V10
_chemical_formula_sum              "B4 Si2 V10"
_cell_length_a       5.76341
_cell_length_b       5.76341
_cell_length_c       6.74224
_cell_angle_alpha    115.303
_cell_angle_beta     115.303
_cell_angle_gamma    90

_space_group_name_H-M_alt    "P 1"
_space_group_IT_number       1

loop_
  _space_group_symop_operation_xyz
  'x, y, z'

loop_
  _atom_site_type_symbol
  _atom_site_label
  _atom_site_symmetry_multiplicity
  _atom_site_fract_x
  _atom_site_fract_y
  _atom_site_fract_z
  _atom_site_occupancy
  B   B1        1.0  0.61500  0.11500  0.00000  1.0000
  B   B2        1.0  0.11500  0.38500  0.00000  1.0000
  B   B3        1.0  0.88500  0.61500  0.00000  1.0000
  B   B4        1.0  0.38500  0.88500  0.00000  1.0000
  Si  Si1       1.0  0.25000  0.25000  0.50000  1.0000
  Si  Si2       1.0  0.75000  0.75000  0.50000  1.0000
  V   V1        1.0  0.00000  0.00000  0.00000  1.0000
  V   V2        1.0  0.50000  0.50000  0.00000  1.0000
  V   V3        1.0  0.46700  0.30700  0.27300  1.0000
  V   V4        1.0  0.96700  0.46700  0.27300  1.0000
  V   V5        1.0  0.30700  0.80700  0.27300  1.0000
  V   V6        1.0  0.80700  0.96700  0.27300  1.0000
  V   V7        1.0  0.19300  0.03340  0.72700  1.0000
  V   V8        1.0  0.69300  0.19300  0.72700  1.0000
  V   V9        1.0  0.03340  0.53300  0.72700  1.0000
  V   V10       1.0  0.53300  0.69300  0.72700  1.0000
