data_image0
_chemical_formula_structural       As8Cu6
_chemical_formula_sum              "As8 Cu6"
_cell_length_a       2.72439
_cell_length_b       10.2054
_cell_length_c       10.2054
_cell_angle_alpha    110.372
_cell_angle_beta     71.5082
_cell_angle_gamma    108.492

_space_group_name_H-M_alt    "P 1"
_space_group_IT_number       1

loop_
  _space_group_symop_operation_xyz
  'x, y, z'

loop_
  _atom_site_type_symbol
  _atom_site_label
  _atom_site_symmetry_multiplicity
  _atom_site_fract_x
  _atom_site_fract_y
  _atom_site_fract_z
  _atom_site_occupancy
  As  As1       1.0  0.42300  0.37400  0.08690  1.0000
  As  As2       1.0  0.00091  0.11800  0.11800  1.0000
  As  As3       1.0  0.46100  0.80900  0.19100  1.0000
  As  As4       1.0  0.57600  0.08680  0.37300  1.0000
  As  As5       1.0  0.42300  0.91300  0.62600  1.0000
  As  As6       1.0  0.54000  0.19100  0.80900  1.0000
  As  As7       1.0  0.00091  0.88200  0.88200  1.0000
  As  As8       1.0  0.57600  0.62700  0.91300  1.0000
  Cu  Cu1       1.0  0.64400  0.67800  0.32200  1.0000
  Cu  Cu2       1.0  0.89100  0.46200  0.32700  1.0000
  Cu  Cu3       1.0  0.10800  0.32700  0.46200  1.0000
  Cu  Cu4       1.0  0.89100  0.67300  0.53800  1.0000
  Cu  Cu5       1.0  0.10800  0.53800  0.67300  1.0000
  Cu  Cu6       1.0  0.35500  0.32200  0.67800  1.0000
