data_image0
_chemical_formula_structural       C4I6N4Rb2
_chemical_formula_sum              "C4 I6 N4 Rb2"
_cell_length_a       16.1581
_cell_length_b       6.88559
_cell_length_c       4.38681
_cell_angle_alpha    90
_cell_angle_beta     90
_cell_angle_gamma    90

_space_group_name_H-M_alt    "P 1"
_space_group_IT_number       1

loop_
  _space_group_symop_operation_xyz
  'x, y, z'

loop_
  _atom_site_type_symbol
  _atom_site_label
  _atom_site_symmetry_multiplicity
  _atom_site_fract_x
  _atom_site_fract_y
  _atom_site_fract_z
  _atom_site_occupancy
  C   C1        1.0  0.04960  0.75000  0.28600  1.0000
  C   C2        1.0  0.45000  0.75000  0.28600  1.0000
  C   C3        1.0  0.55000  0.25000  0.71400  1.0000
  C   C4        1.0  0.95000  0.25000  0.71400  1.0000
  I   I1        1.0  0.57000  0.75000  0.12100  1.0000
  I   I2        1.0  0.93000  0.75000  0.12100  1.0000
  I   I3        1.0  0.25000  0.25000  0.19800  1.0000
  I   I4        1.0  0.75000  0.75000  0.80200  1.0000
  I   I5        1.0  0.06960  0.25000  0.87900  1.0000
  I   I6        1.0  0.43000  0.25000  0.87900  1.0000
  N   N1        1.0  0.11800  0.75000  0.37200  1.0000
  N   N2        1.0  0.38200  0.75000  0.37200  1.0000
  N   N3        1.0  0.61800  0.25000  0.62800  1.0000
  N   N4        1.0  0.88200  0.25000  0.62800  1.0000
  Rb  Rb1       1.0  0.75000  0.25000  0.16100  1.0000
  Rb  Rb2       1.0  0.25000  0.75000  0.83900  1.0000
