data_image0
_chemical_formula_structural       As2Cs4Na2O8
_chemical_formula_sum              "As2 Cs4 Na2 O8"
_cell_length_a       8.25747
_cell_length_b       6.12681
_cell_length_c       6.03561
_cell_angle_alpha    90
_cell_angle_beta     92.1507
_cell_angle_gamma    90

_space_group_name_H-M_alt    "P 1"
_space_group_IT_number       1

loop_
  _space_group_symop_operation_xyz
  'x, y, z'

loop_
  _atom_site_type_symbol
  _atom_site_label
  _atom_site_symmetry_multiplicity
  _atom_site_fract_x
  _atom_site_fract_y
  _atom_site_fract_z
  _atom_site_occupancy
  As  As1       1.0  0.76000  0.25000  0.21700  1.0000
  As  As2       1.0  0.24000  0.75000  0.78300  1.0000
  Cs  Cs1       1.0  0.18900  0.25000  0.16700  1.0000
  Cs  Cs2       1.0  0.50400  0.75000  0.29700  1.0000
  Cs  Cs3       1.0  0.49600  0.25000  0.70300  1.0000
  Cs  Cs4       1.0  0.81100  0.75000  0.83300  1.0000
  Na  Na1       1.0  0.02100  0.75000  0.35700  1.0000
  Na  Na2       1.0  0.97900  0.25000  0.64300  1.0000
  O   O1        1.0  0.16800  0.75000  0.04770  1.0000
  O   O2        1.0  0.55100  0.25000  0.20300  1.0000
  O   O3        1.0  0.83000  0.02410  0.36200  1.0000
  O   O4        1.0  0.83000  0.47600  0.36200  1.0000
  O   O5        1.0  0.17000  0.52400  0.63800  1.0000
  O   O6        1.0  0.17000  0.97600  0.63800  1.0000
  O   O7        1.0  0.44900  0.75000  0.79700  1.0000
  O   O8        1.0  0.83200  0.25000  0.95200  1.0000
