data_image0
_chemical_formula_structural       C2Na2Np2O10
_chemical_formula_sum              "C2 Na2 Np2 O10"
_cell_length_a       4.88736
_cell_length_b       10.3074
_cell_length_c       4.37434
_cell_angle_alpha    90
_cell_angle_beta     90
_cell_angle_gamma    90

_space_group_name_H-M_alt    "P 1"
_space_group_IT_number       1

loop_
  _space_group_symop_operation_xyz
  'x, y, z'

loop_
  _atom_site_type_symbol
  _atom_site_label
  _atom_site_symmetry_multiplicity
  _atom_site_fract_x
  _atom_site_fract_y
  _atom_site_fract_z
  _atom_site_occupancy
  C   C1        1.0  0.00000  0.50300  0.38800  1.0000
  C   C2        1.0  0.50000  0.00346  0.61200  1.0000
  Na  Na1       1.0  0.50000  0.74800  0.25600  1.0000
  Na  Na2       1.0  0.00000  0.24800  0.74400  1.0000
  Np  Np1       1.0  0.00000  0.99600  0.23100  1.0000
  Np  Np2       1.0  0.50000  0.49600  0.76900  1.0000
  O   O1        1.0  0.00000  0.81700  0.22800  1.0000
  O   O2        1.0  0.00000  0.17600  0.24000  1.0000
  O   O3        1.0  0.23500  0.51600  0.26000  1.0000
  O   O4        1.0  0.76500  0.51600  0.26000  1.0000
  O   O5        1.0  0.50000  0.97700  0.31900  1.0000
  O   O6        1.0  0.00000  0.47700  0.68100  1.0000
  O   O7        1.0  0.26500  0.01620  0.74000  1.0000
  O   O8        1.0  0.73500  0.01620  0.74000  1.0000
  O   O9        1.0  0.50000  0.67600  0.76000  1.0000
  O   O10       1.0  0.50000  0.31700  0.77200  1.0000
