data_image0
_chemical_formula_structural       C6Ca6Cl4
_chemical_formula_sum              "C6 Ca6 Cl4"
_cell_length_a       3.8405
_cell_length_b       6.99005
_cell_length_c       11.5488
_cell_angle_alpha    90
_cell_angle_beta     90
_cell_angle_gamma    74.0551

_space_group_name_H-M_alt    "P 1"
_space_group_IT_number       1

loop_
  _space_group_symop_operation_xyz
  'x, y, z'

loop_
  _atom_site_type_symbol
  _atom_site_label
  _atom_site_symmetry_multiplicity
  _atom_site_fract_x
  _atom_site_fract_y
  _atom_site_fract_z
  _atom_site_occupancy
  C   C1        1.0  0.26700  0.46500  0.13500  1.0000
  C   C2        1.0  0.25800  0.48500  0.25000  1.0000
  C   C3        1.0  0.26700  0.46500  0.36500  1.0000
  C   C4        1.0  0.73300  0.53500  0.63500  1.0000
  C   C5        1.0  0.74200  0.51500  0.75000  1.0000
  C   C6        1.0  0.73300  0.53500  0.86500  1.0000
  Ca  Ca1       1.0  0.65600  0.68700  0.06070  1.0000
  Ca  Ca2       1.0  0.87900  0.24200  0.25000  1.0000
  Ca  Ca3       1.0  0.65600  0.68700  0.43900  1.0000
  Ca  Ca4       1.0  0.34400  0.31300  0.56100  1.0000
  Ca  Ca5       1.0  0.12100  0.75800  0.75000  1.0000
  Ca  Ca6       1.0  0.34400  0.31300  0.93900  1.0000
  Cl  Cl1       1.0  0.00000  0.00000  0.00000  1.0000
  Cl  Cl2       1.0  0.52900  0.94200  0.25000  1.0000
  Cl  Cl3       1.0  0.00000  0.00000  0.50000  1.0000
  Cl  Cl4       1.0  0.47100  0.05840  0.75000  1.0000
