data_image0
_chemical_formula_structural       Bi4Cu4S8
_chemical_formula_sum              "Bi4 Cu4 S8"
_cell_length_a       6.25548
_cell_length_b       3.93975
_cell_length_c       14.4013
_cell_angle_alpha    90
_cell_angle_beta     90
_cell_angle_gamma    90

_space_group_name_H-M_alt    "P 1"
_space_group_IT_number       1

loop_
  _space_group_symop_operation_xyz
  'x, y, z'

loop_
  _atom_site_type_symbol
  _atom_site_label
  _atom_site_symmetry_multiplicity
  _atom_site_fract_x
  _atom_site_fract_y
  _atom_site_fract_z
  _atom_site_occupancy
  Bi  Bi1       1.0  0.23400  0.25000  0.06120  1.0000
  Bi  Bi2       1.0  0.73400  0.25000  0.43900  1.0000
  Bi  Bi3       1.0  0.26600  0.75000  0.56100  1.0000
  Bi  Bi4       1.0  0.76600  0.75000  0.93900  1.0000
  Cu  Cu1       1.0  0.75500  0.75000  0.17100  1.0000
  Cu  Cu2       1.0  0.25500  0.75000  0.32900  1.0000
  Cu  Cu3       1.0  0.74500  0.25000  0.67100  1.0000
  Cu  Cu4       1.0  0.24500  0.25000  0.82900  1.0000
  S   S1        1.0  0.64000  0.25000  0.09810  1.0000
  S   S2        1.0  0.12100  0.75000  0.17900  1.0000
  S   S3        1.0  0.62100  0.75000  0.32100  1.0000
  S   S4        1.0  0.14000  0.25000  0.40200  1.0000
  S   S5        1.0  0.86000  0.75000  0.59800  1.0000
  S   S6        1.0  0.37900  0.25000  0.67900  1.0000
  S   S7        1.0  0.87900  0.25000  0.82100  1.0000
  S   S8        1.0  0.36000  0.75000  0.90200  1.0000
