data_image0
_chemical_formula_structural       Al6Pt10
_chemical_formula_sum              "Al6 Pt10"
_cell_length_a       5.46189
_cell_length_b       10.8476
_cell_length_c       3.99791
_cell_angle_alpha    90
_cell_angle_beta     90
_cell_angle_gamma    90

_space_group_name_H-M_alt    "P 1"
_space_group_IT_number       1

loop_
  _space_group_symop_operation_xyz
  'x, y, z'

loop_
  _atom_site_type_symbol
  _atom_site_label
  _atom_site_symmetry_multiplicity
  _atom_site_fract_x
  _atom_site_fract_y
  _atom_site_fract_z
  _atom_site_occupancy
  Al  Al1       1.0  0.00000  0.00000  0.00000  1.0000
  Al  Al2       1.0  0.50000  0.50000  0.00000  1.0000
  Al  Al3       1.0  0.31600  0.14000  0.50000  1.0000
  Al  Al4       1.0  0.81600  0.36000  0.50000  1.0000
  Al  Al5       1.0  0.18400  0.64000  0.50000  1.0000
  Al  Al6       1.0  0.68400  0.86000  0.50000  1.0000
  Pt  Pt1       1.0  0.50000  0.00000  0.00000  1.0000
  Pt  Pt2       1.0  0.06670  0.23200  0.00000  1.0000
  Pt  Pt3       1.0  0.56700  0.26800  0.00000  1.0000
  Pt  Pt4       1.0  0.00000  0.50000  0.00000  1.0000
  Pt  Pt5       1.0  0.43300  0.73200  0.00000  1.0000
  Pt  Pt6       1.0  0.93300  0.76800  0.00000  1.0000
  Pt  Pt7       1.0  0.79200  0.10700  0.50000  1.0000
  Pt  Pt8       1.0  0.29200  0.39300  0.50000  1.0000
  Pt  Pt9       1.0  0.70800  0.60700  0.50000  1.0000
  Pt  Pt10      1.0  0.20800  0.89300  0.50000  1.0000
