data_image0
_chemical_formula_structural       Cr2O10Pb4
_chemical_formula_sum              "Cr2 O10 Pb4"
_cell_length_a       5.64216
_cell_length_b       7.09326
_cell_length_c       7.52256
_cell_angle_alpha    113.255
_cell_angle_beta     112.025
_cell_angle_gamma    90

_space_group_name_H-M_alt    "P 1"
_space_group_IT_number       1

loop_
  _space_group_symop_operation_xyz
  'x, y, z'

loop_
  _atom_site_type_symbol
  _atom_site_label
  _atom_site_symmetry_multiplicity
  _atom_site_fract_x
  _atom_site_fract_y
  _atom_site_fract_z
  _atom_site_occupancy
  Cr  Cr1       1.0  0.16900  0.66200  0.33900  1.0000
  Cr  Cr2       1.0  0.83100  0.33800  0.66100  1.0000
  O   O1        1.0  0.25200  0.00000  0.00000  1.0000
  O   O2        1.0  0.74800  0.00000  0.00000  1.0000
  O   O3        1.0  0.09100  0.40700  0.18200  1.0000
  O   O4        1.0  0.38600  0.77600  0.29600  1.0000
  O   O5        1.0  0.91000  0.77600  0.29600  1.0000
  O   O6        1.0  0.70400  0.30000  0.40800  1.0000
  O   O7        1.0  0.29600  0.70000  0.59200  1.0000
  O   O8        1.0  0.09040  0.22400  0.70400  1.0000
  O   O9        1.0  0.61400  0.22400  0.70400  1.0000
  O   O10       1.0  0.90900  0.59300  0.81800  1.0000
  Pb  Pb1       1.0  0.52000  0.27100  0.03930  1.0000
  Pb  Pb2       1.0  0.14600  0.11500  0.29100  1.0000
  Pb  Pb3       1.0  0.85400  0.88500  0.70900  1.0000
  Pb  Pb4       1.0  0.48000  0.72900  0.96100  1.0000
