data_image0
_chemical_formula_structural       Ga14Rb2
_chemical_formula_sum              "Ga14 Rb2"
_cell_length_a       10.2943
_cell_length_b       10.2943
_cell_length_c       10.2943
_cell_angle_alpha    37.8798
_cell_angle_beta     37.8798
_cell_angle_gamma    37.8798

_space_group_name_H-M_alt    "P 1"
_space_group_IT_number       1

loop_
  _space_group_symop_operation_xyz
  'x, y, z'

loop_
  _atom_site_type_symbol
  _atom_site_label
  _atom_site_symmetry_multiplicity
  _atom_site_fract_x
  _atom_site_fract_y
  _atom_site_fract_z
  _atom_site_occupancy
  Ga  Ga1       1.0  0.18200  0.58000  0.18200  1.0000
  Ga  Ga2       1.0  0.58000  0.18200  0.18200  1.0000
  Ga  Ga3       1.0  0.78300  0.78300  0.20200  1.0000
  Ga  Ga4       1.0  0.21700  0.79800  0.21700  1.0000
  Ga  Ga5       1.0  0.79800  0.21700  0.21700  1.0000
  Ga  Ga6       1.0  0.81800  0.81800  0.42000  1.0000
  Ga  Ga7       1.0  0.45600  0.45600  0.45600  1.0000
  Ga  Ga8       1.0  0.54400  0.54400  0.54400  1.0000
  Ga  Ga9       1.0  0.18200  0.18200  0.58000  1.0000
  Ga  Ga10      1.0  0.20200  0.78300  0.78300  1.0000
  Ga  Ga11      1.0  0.78300  0.20200  0.78300  1.0000
  Ga  Ga12      1.0  0.21700  0.21700  0.79800  1.0000
  Ga  Ga13      1.0  0.81800  0.42000  0.81800  1.0000
  Ga  Ga14      1.0  0.42000  0.81800  0.81800  1.0000
  Rb  Rb1       1.0  0.19500  0.19500  0.19500  1.0000
  Rb  Rb2       1.0  0.80500  0.80500  0.80500  1.0000
