data_image0
_chemical_formula_structural       Au2K10P4
_chemical_formula_sum              "Au2 K10 P4"
_cell_length_a       5.68375
_cell_length_b       5.68382
_cell_length_c       18.8739
_cell_angle_alpha    90
_cell_angle_beta     90
_cell_angle_gamma    120

_space_group_name_H-M_alt    "P 1"
_space_group_IT_number       1

loop_
  _space_group_symop_operation_xyz
  'x, y, z'

loop_
  _atom_site_type_symbol
  _atom_site_label
  _atom_site_symmetry_multiplicity
  _atom_site_fract_x
  _atom_site_fract_y
  _atom_site_fract_z
  _atom_site_occupancy
  Au  Au1       1.0  0.33300  0.66700  0.25000  1.0000
  Au  Au2       1.0  0.66700  0.33300  0.75000  1.0000
  K   K1        1.0  0.66700  0.33300  0.04850  1.0000
  K   K2        1.0  0.00000  0.00000  0.14500  1.0000
  K   K3        1.0  0.66700  0.33300  0.25000  1.0000
  K   K4        1.0  0.00000  0.00000  0.35500  1.0000
  K   K5        1.0  0.66700  0.33300  0.45100  1.0000
  K   K6        1.0  0.33300  0.66700  0.54900  1.0000
  K   K7        1.0  0.00001  0.00001  0.64500  1.0000
  K   K8        1.0  0.33300  0.66700  0.75000  1.0000
  K   K9        1.0  0.00001  0.00001  0.85500  1.0000
  K   K10       1.0  0.33300  0.66700  0.95100  1.0000
  P   P1        1.0  0.33300  0.66700  0.12200  1.0000
  P   P2        1.0  0.33300  0.66700  0.37800  1.0000
  P   P3        1.0  0.66700  0.33300  0.62200  1.0000
  P   P4        1.0  0.66700  0.33300  0.87800  1.0000
