data_image0
_chemical_formula_structural       Pd4Si6Y6
_chemical_formula_sum              "Pd4 Si6 Y6"
_cell_length_a       4.25218
_cell_length_b       5.6398
_cell_length_c       14.1223
_cell_angle_alpha    90
_cell_angle_beta     90
_cell_angle_gamma    67.8533

_space_group_name_H-M_alt    "P 1"
_space_group_IT_number       1

loop_
  _space_group_symop_operation_xyz
  'x, y, z'

loop_
  _atom_site_type_symbol
  _atom_site_label
  _atom_site_symmetry_multiplicity
  _atom_site_fract_x
  _atom_site_fract_y
  _atom_site_fract_z
  _atom_site_occupancy
  Pd  Pd1       1.0  0.70500  0.59000  0.09530  1.0000
  Pd  Pd2       1.0  0.70500  0.59000  0.40500  1.0000
  Pd  Pd3       1.0  0.29500  0.41000  0.59500  1.0000
  Pd  Pd4       1.0  0.29500  0.41000  0.90500  1.0000
  Si  Si1       1.0  0.10500  0.78900  0.03910  1.0000
  Si  Si2       1.0  0.83900  0.32200  0.25000  1.0000
  Si  Si3       1.0  0.10500  0.78900  0.46100  1.0000
  Si  Si4       1.0  0.89500  0.21100  0.53900  1.0000
  Si  Si5       1.0  0.16100  0.67800  0.75000  1.0000
  Si  Si6       1.0  0.89500  0.21100  0.96100  1.0000
  Y   Y1        1.0  0.41200  0.17500  0.11100  1.0000
  Y   Y2        1.0  0.13400  0.73200  0.25000  1.0000
  Y   Y3        1.0  0.41200  0.17500  0.38900  1.0000
  Y   Y4        1.0  0.58800  0.82500  0.61100  1.0000
  Y   Y5        1.0  0.86600  0.26800  0.75000  1.0000
  Y   Y6        1.0  0.58800  0.82500  0.88900  1.0000
