data_image0
_chemical_formula_structural       Cl4N6S4V2
_chemical_formula_sum              "Cl4 N6 S4 V2"
_cell_length_a       5.68275
_cell_length_b       6.97898
_cell_length_c       7.75852
_cell_angle_alpha    95.8701
_cell_angle_beta     99.3285
_cell_angle_gamma    97.5079

_space_group_name_H-M_alt    "P 1"
_space_group_IT_number       1

loop_
  _space_group_symop_operation_xyz
  'x, y, z'

loop_
  _atom_site_type_symbol
  _atom_site_label
  _atom_site_symmetry_multiplicity
  _atom_site_fract_x
  _atom_site_fract_y
  _atom_site_fract_z
  _atom_site_occupancy
  Cl  Cl1       1.0  0.62400  0.12300  0.17300  1.0000
  Cl  Cl2       1.0  0.19700  0.37300  0.20100  1.0000
  Cl  Cl3       1.0  0.80300  0.62700  0.79900  1.0000
  Cl  Cl4       1.0  0.37600  0.87700  0.82700  1.0000
  N   N1        1.0  0.06640  0.92300  0.14300  1.0000
  N   N2        1.0  0.65600  0.69400  0.15800  1.0000
  N   N3        1.0  0.01490  0.73500  0.42000  1.0000
  N   N4        1.0  0.98500  0.26500  0.58000  1.0000
  N   N5        1.0  0.34400  0.30600  0.84200  1.0000
  N   N6        1.0  0.93400  0.07720  0.85700  1.0000
  S   S1        1.0  0.18800  0.87500  0.33000  1.0000
  S   S2        1.0  0.74300  0.63100  0.34500  1.0000
  S   S3        1.0  0.25700  0.36900  0.65500  1.0000
  S   S4        1.0  0.81200  0.12500  0.67000  1.0000
  V   V1        1.0  0.76200  0.84900  0.01800  1.0000
  V   V2        1.0  0.23800  0.15100  0.98200  1.0000
