data_image0
_chemical_formula_structural       Ba3O9Tm4
_chemical_formula_sum              "Ba3 O9 Tm4"
_cell_length_a       6.0218
_cell_length_b       6.0218
_cell_length_c       9.02367
_cell_angle_alpha    70.5085
_cell_angle_beta     109.492
_cell_angle_gamma    120

_space_group_name_H-M_alt    "P 1"
_space_group_IT_number       1

loop_
  _space_group_symop_operation_xyz
  'x, y, z'

loop_
  _atom_site_type_symbol
  _atom_site_label
  _atom_site_symmetry_multiplicity
  _atom_site_fract_x
  _atom_site_fract_y
  _atom_site_fract_z
  _atom_site_occupancy
  Ba  Ba1       1.0  0.00000  0.00039  0.99900  1.0000
  Ba  Ba2       1.0  0.42200  0.57800  0.26500  1.0000
  Ba  Ba3       1.0  0.83700  0.16300  0.51100  1.0000
  O   O1        1.0  0.86400  0.02830  0.25500  1.0000
  O   O2        1.0  0.41900  0.13600  0.25500  1.0000
  O   O3        1.0  0.97200  0.58100  0.25500  1.0000
  O   O4        1.0  0.31000  0.12700  0.58400  1.0000
  O   O5        1.0  0.87300  0.59900  0.58400  1.0000
  O   O6        1.0  0.40100  0.69000  0.58400  1.0000
  O   O7        1.0  0.42800  0.03980  0.92100  1.0000
  O   O8        1.0  0.96000  0.46600  0.92100  1.0000
  O   O9        1.0  0.53400  0.57200  0.92100  1.0000
  Tm  Tm1       1.0  0.70000  0.30000  0.10000  1.0000
  Tm  Tm2       1.0  0.13600  0.86400  0.40800  1.0000
  Tm  Tm3       1.0  0.57500  0.42500  0.72600  1.0000
  Tm  Tm4       1.0  0.26100  0.73900  0.78300  1.0000
