data_image0
_chemical_formula_structural       C2I7Y6
_chemical_formula_sum              "C2 I7 Y6"
_cell_length_a       3.93454
_cell_length_b       11.1127
_cell_length_c       11.6588
_cell_angle_alpha    108.133
_cell_angle_beta     99.7144
_cell_angle_gamma    100.197

_space_group_name_H-M_alt    "P 1"
_space_group_IT_number       1

loop_
  _space_group_symop_operation_xyz
  'x, y, z'

loop_
  _atom_site_type_symbol
  _atom_site_label
  _atom_site_symmetry_multiplicity
  _atom_site_fract_x
  _atom_site_fract_y
  _atom_site_fract_z
  _atom_site_occupancy
  C   C1        1.0  0.12300  0.84300  0.40300  1.0000
  C   C2        1.0  0.87700  0.15700  0.59700  1.0000
  I   I1        1.0  0.45800  0.84700  0.06900  1.0000
  I   I2        1.0  0.33400  0.49500  0.17400  1.0000
  I   I3        1.0  0.21900  0.16100  0.27800  1.0000
  I   I4        1.0  0.00000  0.50000  0.50000  1.0000
  I   I5        1.0  0.78100  0.83900  0.72200  1.0000
  I   I6        1.0  0.66600  0.50500  0.82600  1.0000
  I   I7        1.0  0.54200  0.15300  0.93100  1.0000
  Y   Y1        1.0  0.95200  0.71600  0.18800  1.0000
  Y   Y2        1.0  0.68200  0.99100  0.37400  1.0000
  Y   Y3        1.0  0.58100  0.71900  0.44400  1.0000
  Y   Y4        1.0  0.41900  0.28100  0.55600  1.0000
  Y   Y5        1.0  0.31800  0.00937  0.62600  1.0000
  Y   Y6        1.0  0.04800  0.28400  0.81200  1.0000
