data_image0
_chemical_formula_structural       Rh10Si6
_chemical_formula_sum              "Rh10 Si6"
_cell_length_a       5.3764
_cell_length_b       10.2753
_cell_length_c       3.91481
_cell_angle_alpha    90
_cell_angle_beta     90
_cell_angle_gamma    90

_space_group_name_H-M_alt    "P 1"
_space_group_IT_number       1

loop_
  _space_group_symop_operation_xyz
  'x, y, z'

loop_
  _atom_site_type_symbol
  _atom_site_label
  _atom_site_symmetry_multiplicity
  _atom_site_fract_x
  _atom_site_fract_y
  _atom_site_fract_z
  _atom_site_occupancy
  Rh  Rh1       1.0  0.50000  0.00000  0.00000  1.0000
  Rh  Rh2       1.0  0.15900  0.21300  0.00000  1.0000
  Rh  Rh3       1.0  0.65900  0.28700  0.00000  1.0000
  Rh  Rh4       1.0  0.00000  0.50000  0.00000  1.0000
  Rh  Rh5       1.0  0.34100  0.71300  0.00000  1.0000
  Rh  Rh6       1.0  0.84100  0.78700  0.00000  1.0000
  Rh  Rh7       1.0  0.83100  0.10700  0.50000  1.0000
  Rh  Rh8       1.0  0.33100  0.39300  0.50000  1.0000
  Rh  Rh9       1.0  0.66900  0.60700  0.50000  1.0000
  Rh  Rh10      1.0  0.16900  0.89300  0.50000  1.0000
  Si  Si1       1.0  0.00000  0.00000  0.00000  1.0000
  Si  Si2       1.0  0.50000  0.50000  0.00000  1.0000
  Si  Si3       1.0  0.39900  0.15300  0.50000  1.0000
  Si  Si4       1.0  0.89900  0.34700  0.50000  1.0000
  Si  Si5       1.0  0.10100  0.65300  0.50000  1.0000
  Si  Si6       1.0  0.60100  0.84700  0.50000  1.0000
