data_image0
_chemical_formula_structural       Ca10Si6
_chemical_formula_sum              "Ca10 Si6"
_cell_length_a       7.63269
_cell_length_b       7.63269
_cell_length_c       9.15241
_cell_angle_alpha    114.644
_cell_angle_beta     114.644
_cell_angle_gamma    90

_space_group_name_H-M_alt    "P 1"
_space_group_IT_number       1

loop_
  _space_group_symop_operation_xyz
  'x, y, z'

loop_
  _atom_site_type_symbol
  _atom_site_label
  _atom_site_symmetry_multiplicity
  _atom_site_fract_x
  _atom_site_fract_y
  _atom_site_fract_z
  _atom_site_occupancy
  Ca  Ca1       1.0  0.00000  0.00000  0.00000  1.0000
  Ca  Ca2       1.0  0.50000  0.50000  0.00000  1.0000
  Ca  Ca3       1.0  0.46100  0.32000  0.28100  1.0000
  Ca  Ca4       1.0  0.96100  0.46100  0.28100  1.0000
  Ca  Ca5       1.0  0.32000  0.82000  0.28100  1.0000
  Ca  Ca6       1.0  0.82000  0.96100  0.28100  1.0000
  Ca  Ca7       1.0  0.18000  0.03880  0.71900  1.0000
  Ca  Ca8       1.0  0.68000  0.18000  0.71900  1.0000
  Ca  Ca9       1.0  0.03880  0.53900  0.71900  1.0000
  Ca  Ca10      1.0  0.53900  0.68000  0.71900  1.0000
  Si  Si1       1.0  0.61300  0.11300  0.00000  1.0000
  Si  Si2       1.0  0.11300  0.38700  0.00000  1.0000
  Si  Si3       1.0  0.88700  0.61300  0.00000  1.0000
  Si  Si4       1.0  0.38700  0.88700  0.00000  1.0000
  Si  Si5       1.0  0.25000  0.25000  0.50000  1.0000
  Si  Si6       1.0  0.75000  0.75000  0.50000  1.0000
