data_image0
_chemical_formula_structural       Ag6N2O6Se2
_chemical_formula_sum              "Ag6 N2 O6 Se2"
_cell_length_a       6.20587
_cell_length_b       6.20587
_cell_length_c       6.20587
_cell_angle_alpha    93.8056
_cell_angle_beta     86.1944
_cell_angle_gamma    93.8056

_space_group_name_H-M_alt    "P 1"
_space_group_IT_number       1

loop_
  _space_group_symop_operation_xyz
  'x, y, z'

loop_
  _atom_site_type_symbol
  _atom_site_label
  _atom_site_symmetry_multiplicity
  _atom_site_fract_x
  _atom_site_fract_y
  _atom_site_fract_z
  _atom_site_occupancy
  Ag  Ag1       1.0  0.48600  0.66500  0.02010  1.0000
  Ag  Ag2       1.0  0.02010  0.51400  0.33500  1.0000
  Ag  Ag3       1.0  0.33500  0.98000  0.48600  1.0000
  Ag  Ag4       1.0  0.83500  0.01390  0.52000  1.0000
  Ag  Ag5       1.0  0.98600  0.48000  0.83500  1.0000
  Ag  Ag6       1.0  0.52000  0.16500  0.98600  1.0000
  N   N1        1.0  0.34800  0.65200  0.34800  1.0000
  N   N2        1.0  0.84800  0.15200  0.84800  1.0000
  O   O1        1.0  0.18900  0.15500  0.14000  1.0000
  O   O2        1.0  0.84500  0.86000  0.18900  1.0000
  O   O3        1.0  0.68900  0.36000  0.34500  1.0000
  O   O4        1.0  0.34500  0.31100  0.64000  1.0000
  O   O5        1.0  0.64000  0.65500  0.68900  1.0000
  O   O6        1.0  0.14000  0.81100  0.84500  1.0000
  Se  Se1       1.0  0.00067  0.99900  0.00067  1.0000
  Se  Se2       1.0  0.50100  0.49900  0.50100  1.0000
