data_image0
_chemical_formula_structural       Cu8P4Ti4
_chemical_formula_sum              "Cu8 P4 Ti4"
_cell_length_a       3.51066
_cell_length_b       3.51066
_cell_length_c       16.8854
_cell_angle_alpha    95.967
_cell_angle_beta     95.967
_cell_angle_gamma    90

_space_group_name_H-M_alt    "P 1"
_space_group_IT_number       1

loop_
  _space_group_symop_operation_xyz
  'x, y, z'

loop_
  _atom_site_type_symbol
  _atom_site_label
  _atom_site_symmetry_multiplicity
  _atom_site_fract_x
  _atom_site_fract_y
  _atom_site_fract_z
  _atom_site_occupancy
  Cu  Cu1       1.0  0.59500  0.59500  0.19000  1.0000
  Cu  Cu2       1.0  0.09740  0.09740  0.19500  1.0000
  Cu  Cu3       1.0  0.15300  0.65300  0.30500  1.0000
  Cu  Cu4       1.0  0.65500  0.15500  0.31000  1.0000
  Cu  Cu5       1.0  0.84500  0.34500  0.69000  1.0000
  Cu  Cu6       1.0  0.34700  0.84700  0.69500  1.0000
  Cu  Cu7       1.0  0.90300  0.90300  0.80500  1.0000
  Cu  Cu8       1.0  0.40500  0.40500  0.81000  1.0000
  P   P1        1.0  0.54600  0.04640  0.09270  1.0000
  P   P2        1.0  0.70400  0.70400  0.40700  1.0000
  P   P3        1.0  0.29600  0.29600  0.59300  1.0000
  P   P4        1.0  0.95400  0.45400  0.90700  1.0000
  Ti  Ti1       1.0  0.02800  0.52800  0.05600  1.0000
  Ti  Ti2       1.0  0.22200  0.22200  0.44400  1.0000
  Ti  Ti3       1.0  0.77800  0.77800  0.55600  1.0000
  Ti  Ti4       1.0  0.47200  0.97200  0.94400  1.0000
