data_image0
_chemical_formula_structural       Al4As6K6
_chemical_formula_sum              "Al4 As6 K6"
_cell_length_a       10.5722
_cell_length_b       6.0622
_cell_length_c       7.63598
_cell_angle_alpha    90
_cell_angle_beta     110.256
_cell_angle_gamma    90

_space_group_name_H-M_alt    "P 1"
_space_group_IT_number       1

loop_
  _space_group_symop_operation_xyz
  'x, y, z'

loop_
  _atom_site_type_symbol
  _atom_site_label
  _atom_site_symmetry_multiplicity
  _atom_site_fract_x
  _atom_site_fract_y
  _atom_site_fract_z
  _atom_site_occupancy
  Al  Al1       1.0  0.65700  0.00069  0.02700  1.0000
  Al  Al2       1.0  0.65700  0.49900  0.02700  1.0000
  Al  Al3       1.0  0.34300  0.99900  0.97300  1.0000
  Al  Al4       1.0  0.34300  0.50100  0.97300  1.0000
  As  As1       1.0  0.25300  0.75000  0.15700  1.0000
  As  As2       1.0  0.53100  0.25000  0.19000  1.0000
  As  As3       1.0  0.81900  0.75000  0.25200  1.0000
  As  As4       1.0  0.18100  0.25000  0.74800  1.0000
  As  As5       1.0  0.46900  0.75000  0.81000  1.0000
  As  As6       1.0  0.74700  0.25000  0.84300  1.0000
  K   K1        1.0  0.07430  0.25000  0.13000  1.0000
  K   K2        1.0  0.57700  0.75000  0.43900  1.0000
  K   K3        1.0  0.85100  0.25000  0.47600  1.0000
  K   K4        1.0  0.14900  0.75000  0.52400  1.0000
  K   K5        1.0  0.42300  0.25000  0.56100  1.0000
  K   K6        1.0  0.92600  0.75000  0.87000  1.0000
