data_image0
_chemical_formula_structural       C8U4V4
_chemical_formula_sum              "C8 U4 V4"
_cell_length_a       5.54844
_cell_length_b       3.18731
_cell_length_c       10.7555
_cell_angle_alpha    90
_cell_angle_beta     90
_cell_angle_gamma    90

_space_group_name_H-M_alt    "P 1"
_space_group_IT_number       1

loop_
  _space_group_symop_operation_xyz
  'x, y, z'

loop_
  _atom_site_type_symbol
  _atom_site_label
  _atom_site_symmetry_multiplicity
  _atom_site_fract_x
  _atom_site_fract_y
  _atom_site_fract_z
  _atom_site_occupancy
  C   C1        1.0  0.73500  0.25000  0.00914  1.0000
  C   C2        1.0  0.83300  0.75000  0.24600  1.0000
  C   C3        1.0  0.33300  0.75000  0.25400  1.0000
  C   C4        1.0  0.23500  0.25000  0.49100  1.0000
  C   C5        1.0  0.76500  0.75000  0.50900  1.0000
  C   C6        1.0  0.66700  0.25000  0.74600  1.0000
  C   C7        1.0  0.16700  0.25000  0.75400  1.0000
  C   C8        1.0  0.26500  0.75000  0.99100  1.0000
  U   U1        1.0  0.07910  0.25000  0.14100  1.0000
  U   U2        1.0  0.57900  0.25000  0.35900  1.0000
  U   U3        1.0  0.42100  0.75000  0.64100  1.0000
  U   U4        1.0  0.92100  0.75000  0.85900  1.0000
  V   V1        1.0  0.57900  0.75000  0.10100  1.0000
  V   V2        1.0  0.07870  0.75000  0.39900  1.0000
  V   V3        1.0  0.92100  0.25000  0.60100  1.0000
  V   V4        1.0  0.42100  0.25000  0.89900  1.0000
