data_image0
_chemical_formula_structural       Ca10Zn6
_chemical_formula_sum              "Ca10 Zn6"
_cell_length_a       7.87188
_cell_length_b       7.87188
_cell_length_c       9.44017
_cell_angle_alpha    114.641
_cell_angle_beta     114.641
_cell_angle_gamma    90

_space_group_name_H-M_alt    "P 1"
_space_group_IT_number       1

loop_
  _space_group_symop_operation_xyz
  'x, y, z'

loop_
  _atom_site_type_symbol
  _atom_site_label
  _atom_site_symmetry_multiplicity
  _atom_site_fract_x
  _atom_site_fract_y
  _atom_site_fract_z
  _atom_site_occupancy
  Ca  Ca1       1.0  0.00000  0.00000  0.00000  1.0000
  Ca  Ca2       1.0  0.50000  0.50000  0.00000  1.0000
  Ca  Ca3       1.0  0.81800  0.31800  0.29400  1.0000
  Ca  Ca4       1.0  0.31800  0.47700  0.29400  1.0000
  Ca  Ca5       1.0  0.97700  0.81800  0.29400  1.0000
  Ca  Ca6       1.0  0.47700  0.97700  0.29400  1.0000
  Ca  Ca7       1.0  0.52300  0.02330  0.70600  1.0000
  Ca  Ca8       1.0  0.02330  0.18200  0.70600  1.0000
  Ca  Ca9       1.0  0.68200  0.52300  0.70600  1.0000
  Ca  Ca10      1.0  0.18200  0.68200  0.70600  1.0000
  Zn  Zn1       1.0  0.38300  0.11700  0.00000  1.0000
  Zn  Zn2       1.0  0.88300  0.38300  0.00000  1.0000
  Zn  Zn3       1.0  0.11700  0.61700  0.00000  1.0000
  Zn  Zn4       1.0  0.61700  0.88300  0.00000  1.0000
  Zn  Zn5       1.0  0.25000  0.25000  0.50000  1.0000
  Zn  Zn6       1.0  0.75000  0.75000  0.50000  1.0000
