data_image0
_chemical_formula_structural       Mo10Si6
_chemical_formula_sum              "Mo10 Si6"
_cell_length_a       4.93293
_cell_length_b       7.27822
_cell_length_c       7.27822
_cell_angle_alpha    96.5945
_cell_angle_beta     109.809
_cell_angle_gamma    70.1911

_space_group_name_H-M_alt    "P 1"
_space_group_IT_number       1

loop_
  _space_group_symop_operation_xyz
  'x, y, z'

loop_
  _atom_site_type_symbol
  _atom_site_label
  _atom_site_symmetry_multiplicity
  _atom_site_fract_x
  _atom_site_fract_y
  _atom_site_fract_z
  _atom_site_occupancy
  Mo  Mo1       1.0  0.72400  0.69900  0.14800  1.0000
  Mo  Mo2       1.0  0.92400  0.30100  0.14800  1.0000
  Mo  Mo3       1.0  0.22400  0.85200  0.30100  1.0000
  Mo  Mo4       1.0  0.57600  0.14800  0.30100  1.0000
  Mo  Mo5       1.0  0.25000  0.50000  0.50000  1.0000
  Mo  Mo6       1.0  0.75000  0.50000  0.50000  1.0000
  Mo  Mo7       1.0  0.77600  0.14800  0.69900  1.0000
  Mo  Mo8       1.0  0.42400  0.85200  0.69900  1.0000
  Mo  Mo9       1.0  0.07630  0.69900  0.85200  1.0000
  Mo  Mo10      1.0  0.27600  0.30100  0.85200  1.0000
  Si  Si1       1.0  0.25000  0.00000  0.00000  1.0000
  Si  Si2       1.0  0.75000  0.00000  0.00000  1.0000
  Si  Si3       1.0  0.33200  0.50000  0.16500  1.0000
  Si  Si4       1.0  0.16800  0.16500  0.50000  1.0000
  Si  Si5       1.0  0.83200  0.83500  0.50000  1.0000
  Si  Si6       1.0  0.66800  0.50000  0.83500  1.0000
