data_image0
_chemical_formula_structural       Cu4Ge2Mn2S8
_chemical_formula_sum              "Cu4 Ge2 Mn2 S8"
_cell_length_a       7.60867
_cell_length_b       6.49753
_cell_length_c       6.23958
_cell_angle_alpha    90
_cell_angle_beta     90
_cell_angle_gamma    90

_space_group_name_H-M_alt    "P 1"
_space_group_IT_number       1

loop_
  _space_group_symop_operation_xyz
  'x, y, z'

loop_
  _atom_site_type_symbol
  _atom_site_label
  _atom_site_symmetry_multiplicity
  _atom_site_fract_x
  _atom_site_fract_y
  _atom_site_fract_z
  _atom_site_occupancy
  Cu  Cu1       1.0  0.25100  0.17100  0.37100  1.0000
  Cu  Cu2       1.0  0.74900  0.17100  0.37100  1.0000
  Cu  Cu3       1.0  0.24900  0.82900  0.87100  1.0000
  Cu  Cu4       1.0  0.75100  0.82900  0.87100  1.0000
  Ge  Ge1       1.0  0.00000  0.66900  0.37600  1.0000
  Ge  Ge2       1.0  0.50000  0.33100  0.87600  1.0000
  Mn  Mn1       1.0  0.50000  0.66300  0.37400  1.0000
  Mn  Mn2       1.0  0.00000  0.33700  0.87400  1.0000
  S   S1        1.0  0.50000  0.66200  0.99100  1.0000
  S   S2        1.0  0.25900  0.16300  0.00256  1.0000
  S   S3        1.0  0.74100  0.16300  0.00256  1.0000
  S   S4        1.0  0.00000  0.68100  0.01120  1.0000
  S   S5        1.0  0.00000  0.33800  0.49100  1.0000
  S   S6        1.0  0.24100  0.83700  0.50300  1.0000
  S   S7        1.0  0.75900  0.83700  0.50300  1.0000
  S   S8        1.0  0.50000  0.31900  0.51100  1.0000
