data_image0
_chemical_formula_structural       Pu10Si6
_chemical_formula_sum              "Pu10 Si6"
_cell_length_a       5.41296
_cell_length_b       8.56072
_cell_length_c       8.56072
_cell_angle_alpha    95.7364
_cell_angle_beta     71.5697
_cell_angle_gamma    108.43

_space_group_name_H-M_alt    "P 1"
_space_group_IT_number       1

loop_
  _space_group_symop_operation_xyz
  'x, y, z'

loop_
  _atom_site_type_symbol
  _atom_site_label
  _atom_site_symmetry_multiplicity
  _atom_site_fract_x
  _atom_site_fract_y
  _atom_site_fract_z
  _atom_site_occupancy
  Pu  Pu1       1.0  0.78100  0.69500  0.13200  1.0000
  Pu  Pu2       1.0  0.58600  0.30500  0.13200  1.0000
  Pu  Pu3       1.0  0.28100  0.86800  0.30500  1.0000
  Pu  Pu4       1.0  0.91400  0.13200  0.30500  1.0000
  Pu  Pu5       1.0  0.25000  0.50000  0.50000  1.0000
  Pu  Pu6       1.0  0.75000  0.50000  0.50000  1.0000
  Pu  Pu7       1.0  0.71900  0.13200  0.69500  1.0000
  Pu  Pu8       1.0  0.08650  0.86800  0.69500  1.0000
  Pu  Pu9       1.0  0.21900  0.30500  0.86800  1.0000
  Pu  Pu10      1.0  0.41400  0.69500  0.86800  1.0000
  Si  Si1       1.0  0.25000  0.00000  0.00000  1.0000
  Si  Si2       1.0  0.75000  0.00000  0.00000  1.0000
  Si  Si3       1.0  0.15900  0.50000  0.18100  1.0000
  Si  Si4       1.0  0.65900  0.81900  0.50000  1.0000
  Si  Si5       1.0  0.34100  0.18100  0.50000  1.0000
  Si  Si6       1.0  0.84100  0.50000  0.81900  1.0000
