data_image0
_chemical_formula_structural       Cl12Na2Sb2
_chemical_formula_sum              "Cl12 Na2 Sb2"
_cell_length_a       6.42694
_cell_length_b       6.42694
_cell_length_c       10.7181
_cell_angle_alpha    90
_cell_angle_beta     90
_cell_angle_gamma    90

_space_group_name_H-M_alt    "P 1"
_space_group_IT_number       1

loop_
  _space_group_symop_operation_xyz
  'x, y, z'

loop_
  _atom_site_type_symbol
  _atom_site_label
  _atom_site_symmetry_multiplicity
  _atom_site_fract_x
  _atom_site_fract_y
  _atom_site_fract_z
  _atom_site_occupancy
  Cl  Cl1       1.0  0.78500  0.19300  0.00000  1.0000
  Cl  Cl2       1.0  0.21500  0.80700  0.00000  1.0000
  Cl  Cl3       1.0  0.22000  0.34900  0.15800  1.0000
  Cl  Cl4       1.0  0.78000  0.65100  0.15800  1.0000
  Cl  Cl5       1.0  0.65100  0.22000  0.34200  1.0000
  Cl  Cl6       1.0  0.34900  0.78000  0.34200  1.0000
  Cl  Cl7       1.0  0.19300  0.21500  0.50000  1.0000
  Cl  Cl8       1.0  0.80700  0.78500  0.50000  1.0000
  Cl  Cl9       1.0  0.65100  0.22000  0.65800  1.0000
  Cl  Cl10      1.0  0.34900  0.78000  0.65800  1.0000
  Cl  Cl11      1.0  0.22000  0.34900  0.84200  1.0000
  Cl  Cl12      1.0  0.78000  0.65100  0.84200  1.0000
  Na  Na1       1.0  0.00000  0.00000  0.25000  1.0000
  Na  Na2       1.0  0.00000  0.00000  0.75000  1.0000
  Sb  Sb1       1.0  0.00000  0.50000  0.00000  1.0000
  Sb  Sb2       1.0  0.50000  0.00000  0.50000  1.0000
