data_image0
_chemical_formula_structural       In6Pd10
_chemical_formula_sum              "In6 Pd10"
_cell_length_a       5.6723
_cell_length_b       11.1655
_cell_length_c       4.28217
_cell_angle_alpha    90
_cell_angle_beta     90
_cell_angle_gamma    90

_space_group_name_H-M_alt    "P 1"
_space_group_IT_number       1

loop_
  _space_group_symop_operation_xyz
  'x, y, z'

loop_
  _atom_site_type_symbol
  _atom_site_label
  _atom_site_symmetry_multiplicity
  _atom_site_fract_x
  _atom_site_fract_y
  _atom_site_fract_z
  _atom_site_occupancy
  In  In1       1.0  0.00000  0.00000  0.00000  1.0000
  In  In2       1.0  0.50000  0.50000  0.00000  1.0000
  In  In3       1.0  0.32600  0.14100  0.50000  1.0000
  In  In4       1.0  0.82600  0.35900  0.50000  1.0000
  In  In5       1.0  0.17400  0.64100  0.50000  1.0000
  In  In6       1.0  0.67400  0.85900  0.50000  1.0000
  Pd  Pd1       1.0  0.50000  0.00000  0.00000  1.0000
  Pd  Pd2       1.0  0.07720  0.24500  0.00000  1.0000
  Pd  Pd3       1.0  0.57700  0.25500  0.00000  1.0000
  Pd  Pd4       1.0  0.00000  0.50000  0.00000  1.0000
  Pd  Pd5       1.0  0.42300  0.74500  0.00000  1.0000
  Pd  Pd6       1.0  0.92300  0.75500  0.00000  1.0000
  Pd  Pd7       1.0  0.80800  0.11100  0.50000  1.0000
  Pd  Pd8       1.0  0.30800  0.38900  0.50000  1.0000
  Pd  Pd9       1.0  0.69200  0.61100  0.50000  1.0000
  Pd  Pd10      1.0  0.19200  0.88900  0.50000  1.0000
