data_image0
_chemical_formula_structural       C8N6Na2
_chemical_formula_sum              "C8 N6 Na2"
_cell_length_a       3.61985
_cell_length_b       9.16362
_cell_length_c       7.67556
_cell_angle_alpha    105.649
_cell_angle_beta     100.598
_cell_angle_gamma    88.5954

_space_group_name_H-M_alt    "P 1"
_space_group_IT_number       1

loop_
  _space_group_symop_operation_xyz
  'x, y, z'

loop_
  _atom_site_type_symbol
  _atom_site_label
  _atom_site_symmetry_multiplicity
  _atom_site_fract_x
  _atom_site_fract_y
  _atom_site_fract_z
  _atom_site_occupancy
  C   C1        1.0  0.75000  0.80000  0.18100  1.0000
  C   C2        1.0  0.76500  0.55100  0.23800  1.0000
  C   C3        1.0  0.71400  0.70800  0.29600  1.0000
  C   C4        1.0  0.64100  0.77300  0.47200  1.0000
  C   C5        1.0  0.35900  0.22700  0.52800  1.0000
  C   C6        1.0  0.28600  0.29200  0.70400  1.0000
  C   C7        1.0  0.23500  0.44900  0.76200  1.0000
  C   C8        1.0  0.25000  0.20000  0.81900  1.0000
  N   N1        1.0  0.78000  0.87700  0.08490  1.0000
  N   N2        1.0  0.80800  0.42000  0.19300  1.0000
  N   N3        1.0  0.41800  0.17500  0.37800  1.0000
  N   N4        1.0  0.58200  0.82500  0.62200  1.0000
  N   N5        1.0  0.19200  0.58000  0.80700  1.0000
  N   N6        1.0  0.22000  0.12300  0.91500  1.0000
  Na  Na1       1.0  0.82100  0.15700  0.15500  1.0000
  Na  Na2       1.0  0.17900  0.84300  0.84500  1.0000
