data_image0
_chemical_formula_structural       Ge6Rh10
_chemical_formula_sum              "Ge6 Rh10"
_cell_length_a       5.49719
_cell_length_b       10.4606
_cell_length_c       4.02477
_cell_angle_alpha    90
_cell_angle_beta     90
_cell_angle_gamma    90

_space_group_name_H-M_alt    "P 1"
_space_group_IT_number       1

loop_
  _space_group_symop_operation_xyz
  'x, y, z'

loop_
  _atom_site_type_symbol
  _atom_site_label
  _atom_site_symmetry_multiplicity
  _atom_site_fract_x
  _atom_site_fract_y
  _atom_site_fract_z
  _atom_site_occupancy
  Ge  Ge1       1.0  0.00000  0.00000  0.00000  1.0000
  Ge  Ge2       1.0  0.50000  0.50000  0.00000  1.0000
  Ge  Ge3       1.0  0.39200  0.15200  0.50000  1.0000
  Ge  Ge4       1.0  0.89200  0.34800  0.50000  1.0000
  Ge  Ge5       1.0  0.10800  0.65200  0.50000  1.0000
  Ge  Ge6       1.0  0.60800  0.84800  0.50000  1.0000
  Rh  Rh1       1.0  0.50000  0.00000  0.00000  1.0000
  Rh  Rh2       1.0  0.15200  0.21800  0.00000  1.0000
  Rh  Rh3       1.0  0.65200  0.28200  0.00000  1.0000
  Rh  Rh4       1.0  0.00000  0.50000  0.00000  1.0000
  Rh  Rh5       1.0  0.34800  0.71800  0.00000  1.0000
  Rh  Rh6       1.0  0.84800  0.78200  0.00000  1.0000
  Rh  Rh7       1.0  0.82900  0.10700  0.50000  1.0000
  Rh  Rh8       1.0  0.32900  0.39300  0.50000  1.0000
  Rh  Rh9       1.0  0.67100  0.60700  0.50000  1.0000
  Rh  Rh10      1.0  0.17100  0.89300  0.50000  1.0000
