data_image0
_chemical_formula_structural       C4Na4O8
_chemical_formula_sum              "C4 Na4 O8"
_cell_length_a       3.38506
_cell_length_b       5.23835
_cell_length_c       10.2541
_cell_angle_alpha    90
_cell_angle_beta     92.1601
_cell_angle_gamma    90

_space_group_name_H-M_alt    "P 1"
_space_group_IT_number       1

loop_
  _space_group_symop_operation_xyz
  'x, y, z'

loop_
  _atom_site_type_symbol
  _atom_site_label
  _atom_site_symmetry_multiplicity
  _atom_site_fract_x
  _atom_site_fract_y
  _atom_site_fract_z
  _atom_site_occupancy
  C   C1        1.0  0.11400  0.04270  0.06420  1.0000
  C   C2        1.0  0.88600  0.54300  0.43600  1.0000
  C   C3        1.0  0.11400  0.45700  0.56400  1.0000
  C   C4        1.0  0.88600  0.95700  0.93600  1.0000
  Na  Na1       1.0  0.69700  0.55700  0.14500  1.0000
  Na  Na2       1.0  0.30300  0.05700  0.35500  1.0000
  Na  Na3       1.0  0.69700  0.94300  0.64500  1.0000
  Na  Na4       1.0  0.30300  0.44300  0.85500  1.0000
  O   O1        1.0  0.22800  0.27300  0.07050  1.0000
  O   O2        1.0  0.17000  0.87700  0.15300  1.0000
  O   O3        1.0  0.83000  0.37700  0.34700  1.0000
  O   O4        1.0  0.77200  0.77300  0.42900  1.0000
  O   O5        1.0  0.22800  0.22700  0.57100  1.0000
  O   O6        1.0  0.17000  0.62300  0.65300  1.0000
  O   O7        1.0  0.83000  0.12300  0.84700  1.0000
  O   O8        1.0  0.77200  0.72700  0.92900  1.0000
