data_image0
_chemical_formula_structural       Al6Pd10
_chemical_formula_sum              "Al6 Pd10"
_cell_length_a       5.40024
_cell_length_b       10.5482
_cell_length_c       4.05761
_cell_angle_alpha    90
_cell_angle_beta     90
_cell_angle_gamma    90

_space_group_name_H-M_alt    "P 1"
_space_group_IT_number       1

loop_
  _space_group_symop_operation_xyz
  'x, y, z'

loop_
  _atom_site_type_symbol
  _atom_site_label
  _atom_site_symmetry_multiplicity
  _atom_site_fract_x
  _atom_site_fract_y
  _atom_site_fract_z
  _atom_site_occupancy
  Al  Al1       1.0  0.00000  0.00000  0.00000  1.0000
  Al  Al2       1.0  0.50000  0.50000  0.00000  1.0000
  Al  Al3       1.0  0.66500  0.14200  0.50000  1.0000
  Al  Al4       1.0  0.16500  0.35800  0.50000  1.0000
  Al  Al5       1.0  0.83500  0.64200  0.50000  1.0000
  Al  Al6       1.0  0.33500  0.85800  0.50000  1.0000
  Pd  Pd1       1.0  0.50000  0.00000  0.00000  1.0000
  Pd  Pd2       1.0  0.90900  0.23300  0.00000  1.0000
  Pd  Pd3       1.0  0.40900  0.26700  0.00000  1.0000
  Pd  Pd4       1.0  0.00000  0.50000  0.00000  1.0000
  Pd  Pd5       1.0  0.59100  0.73300  0.00000  1.0000
  Pd  Pd6       1.0  0.09150  0.76700  0.00000  1.0000
  Pd  Pd7       1.0  0.18800  0.10500  0.50000  1.0000
  Pd  Pd8       1.0  0.68800  0.39500  0.50000  1.0000
  Pd  Pd9       1.0  0.31200  0.60500  0.50000  1.0000
  Pd  Pd10      1.0  0.81200  0.89500  0.50000  1.0000
