data_image0
_chemical_formula_structural       Si6Y10
_chemical_formula_sum              "Si6 Y10"
_cell_length_a       8.45148
_cell_length_b       8.45148
_cell_length_c       6.3717
_cell_angle_alpha    90
_cell_angle_beta     90
_cell_angle_gamma    120

_space_group_name_H-M_alt    "P 1"
_space_group_IT_number       1

loop_
  _space_group_symop_operation_xyz
  'x, y, z'

loop_
  _atom_site_type_symbol
  _atom_site_label
  _atom_site_symmetry_multiplicity
  _atom_site_fract_x
  _atom_site_fract_y
  _atom_site_fract_z
  _atom_site_occupancy
  Si  Si1       1.0  0.60600  0.00000  0.25000  1.0000
  Si  Si2       1.0  0.00000  0.60600  0.25000  1.0000
  Si  Si3       1.0  0.39400  0.39400  0.25000  1.0000
  Si  Si4       1.0  0.39400  0.00000  0.75000  1.0000
  Si  Si5       1.0  0.00000  0.39400  0.75000  1.0000
  Si  Si6       1.0  0.60600  0.60600  0.75000  1.0000
  Y   Y1        1.0  0.66700  0.33300  0.00000  1.0000
  Y   Y2        1.0  0.33300  0.66700  0.00000  1.0000
  Y   Y3        1.0  0.75700  0.75700  0.25000  1.0000
  Y   Y4        1.0  0.24300  0.00000  0.25000  1.0000
  Y   Y5        1.0  0.00000  0.24300  0.25000  1.0000
  Y   Y6        1.0  0.66700  0.33300  0.50000  1.0000
  Y   Y7        1.0  0.33300  0.66700  0.50000  1.0000
  Y   Y8        1.0  0.24300  0.24300  0.75000  1.0000
  Y   Y9        1.0  0.75700  0.00000  0.75000  1.0000
  Y   Y10       1.0  0.00000  0.75700  0.75000  1.0000
