data_image0
_chemical_formula_structural       Cd14Sc2
_chemical_formula_sum              "Cd14 Sc2"
_cell_length_a       6.21239
_cell_length_b       6.21239
_cell_length_c       9.34586
_cell_angle_alpha    90
_cell_angle_beta     90
_cell_angle_gamma    107.673

_space_group_name_H-M_alt    "P 1"
_space_group_IT_number       1

loop_
  _space_group_symop_operation_xyz
  'x, y, z'

loop_
  _atom_site_type_symbol
  _atom_site_label
  _atom_site_symmetry_multiplicity
  _atom_site_fract_x
  _atom_site_fract_y
  _atom_site_fract_z
  _atom_site_occupancy
  Cd  Cd1       1.0  0.21100  0.21100  0.00000  1.0000
  Cd  Cd2       1.0  0.78900  0.78900  0.00000  1.0000
  Cd  Cd3       1.0  0.71000  0.29000  0.01770  1.0000
  Cd  Cd4       1.0  0.40300  0.00192  0.25000  1.0000
  Cd  Cd5       1.0  0.91500  0.08510  0.25000  1.0000
  Cd  Cd6       1.0  0.99800  0.59700  0.25000  1.0000
  Cd  Cd7       1.0  0.71000  0.29000  0.48200  1.0000
  Cd  Cd8       1.0  0.21100  0.21100  0.50000  1.0000
  Cd  Cd9       1.0  0.78900  0.78900  0.50000  1.0000
  Cd  Cd10      1.0  0.29000  0.71000  0.51800  1.0000
  Cd  Cd11      1.0  0.00192  0.40300  0.75000  1.0000
  Cd  Cd12      1.0  0.08510  0.91500  0.75000  1.0000
  Cd  Cd13      1.0  0.59700  0.99800  0.75000  1.0000
  Cd  Cd14      1.0  0.29000  0.71000  0.98200  1.0000
  Sc  Sc1       1.0  0.47900  0.52100  0.25000  1.0000
  Sc  Sc2       1.0  0.52100  0.47900  0.75000  1.0000
