data_image0
_chemical_formula_structural       As2Cs4Li2O8
_chemical_formula_sum              "As2 Cs4 Li2 O8"
_cell_length_a       5.9685
_cell_length_b       6.74829
_cell_length_c       8.1879
_cell_angle_alpha    90
_cell_angle_beta     90
_cell_angle_gamma    63.7542

_space_group_name_H-M_alt    "P 1"
_space_group_IT_number       1

loop_
  _space_group_symop_operation_xyz
  'x, y, z'

loop_
  _atom_site_type_symbol
  _atom_site_label
  _atom_site_symmetry_multiplicity
  _atom_site_fract_x
  _atom_site_fract_y
  _atom_site_fract_z
  _atom_site_occupancy
  As  As1       1.0  0.30400  0.39200  0.05480  1.0000
  As  As2       1.0  0.69600  0.60800  0.55500  1.0000
  Cs  Cs1       1.0  0.60500  0.79000  0.99900  1.0000
  Cs  Cs2       1.0  0.06390  0.87200  0.34900  1.0000
  Cs  Cs3       1.0  0.39500  0.21000  0.49900  1.0000
  Cs  Cs4       1.0  0.93600  0.12800  0.84900  1.0000
  Li  Li1       1.0  0.79200  0.41500  0.27000  1.0000
  Li  Li2       1.0  0.20800  0.58500  0.77000  1.0000
  O   O1        1.0  0.16400  0.67300  0.01190  1.0000
  O   O2        1.0  0.10900  0.31300  0.16100  1.0000
  O   O3        1.0  0.57900  0.31300  0.16100  1.0000
  O   O4        1.0  0.63500  0.73000  0.36300  1.0000
  O   O5        1.0  0.83600  0.32700  0.51200  1.0000
  O   O6        1.0  0.42100  0.68700  0.66100  1.0000
  O   O7        1.0  0.89100  0.68700  0.66100  1.0000
  O   O8        1.0  0.36500  0.27000  0.86300  1.0000
