data_image0
_chemical_formula_structural       ClFe3O8Pb4
_chemical_formula_sum              "Cl1 Fe3 O8 Pb4"
_cell_length_a       3.92815
_cell_length_b       3.92815
_cell_length_c       15.275
_cell_angle_alpha    90
_cell_angle_beta     90
_cell_angle_gamma    90

_space_group_name_H-M_alt    "P 1"
_space_group_IT_number       1

loop_
  _space_group_symop_operation_xyz
  'x, y, z'

loop_
  _atom_site_type_symbol
  _atom_site_label
  _atom_site_symmetry_multiplicity
  _atom_site_fract_x
  _atom_site_fract_y
  _atom_site_fract_z
  _atom_site_occupancy
  Cl  Cl1       1.0  0.00000  0.00000  0.00000  1.0000
  Fe  Fe1       1.0  0.00000  0.00000  0.24200  1.0000
  Fe  Fe2       1.0  0.00000  0.00000  0.50000  1.0000
  Fe  Fe3       1.0  0.00000  0.00000  0.75800  1.0000
  O   O1        1.0  0.50000  0.00000  0.20900  1.0000
  O   O2        1.0  0.00000  0.50000  0.20900  1.0000
  O   O3        1.0  0.00000  0.00000  0.36400  1.0000
  O   O4        1.0  0.50000  0.00000  0.50000  1.0000
  O   O5        1.0  0.00000  0.50000  0.50000  1.0000
  O   O6        1.0  0.00000  0.00000  0.63600  1.0000
  O   O7        1.0  0.50000  0.00000  0.79100  1.0000
  O   O8        1.0  0.00000  0.50000  0.79100  1.0000
  Pb  Pb1       1.0  0.50000  0.50000  0.11700  1.0000
  Pb  Pb2       1.0  0.50000  0.50000  0.38200  1.0000
  Pb  Pb3       1.0  0.50000  0.50000  0.61800  1.0000
  Pb  Pb4       1.0  0.50000  0.50000  0.88300  1.0000
