data_image0
_chemical_formula_structural       Mo2O6
_chemical_formula_sum              "Mo2 O6"
_cell_length_a       3.90721
_cell_length_b       3.69771
_cell_length_c       7.03688
_cell_angle_alpha    90
_cell_angle_beta     103.289
_cell_angle_gamma    90

_space_group_name_H-M_alt    "P 1"
_space_group_IT_number       1

loop_
  _space_group_symop_operation_xyz
  'x, y, z'

loop_
  _atom_site_type_symbol
  _atom_site_label
  _atom_site_symmetry_multiplicity
  _atom_site_fract_x
  _atom_site_fract_y
  _atom_site_fract_z
  _atom_site_occupancy
  Mo  Mo1       1.0  0.33200  0.25000  0.28700  1.0000
  Mo  Mo2       1.0  0.66800  0.75000  0.71300  1.0000
  O   O1        1.0  0.26700  0.25000  0.04080  1.0000
  O   O2        1.0  0.89900  0.25000  0.32300  1.0000
  O   O3        1.0  0.44100  0.75000  0.36500  1.0000
  O   O4        1.0  0.55900  0.25000  0.63500  1.0000
  O   O5        1.0  0.10100  0.75000  0.67700  1.0000
  O   O6        1.0  0.73300  0.75000  0.95900  1.0000
