data_image0
_chemical_formula_structural       Pt6Pu10
_chemical_formula_sum              "Pt6 Pu10"
_cell_length_a       8.65011
_cell_length_b       8.65011
_cell_length_c       5.91993
_cell_angle_alpha    90
_cell_angle_beta     90
_cell_angle_gamma    120.023

_space_group_name_H-M_alt    "P 1"
_space_group_IT_number       1

loop_
  _space_group_symop_operation_xyz
  'x, y, z'

loop_
  _atom_site_type_symbol
  _atom_site_label
  _atom_site_symmetry_multiplicity
  _atom_site_fract_x
  _atom_site_fract_y
  _atom_site_fract_z
  _atom_site_occupancy
  Pt  Pt1       1.0  0.61500  0.00001  0.25000  1.0000
  Pt  Pt2       1.0  0.00001  0.61500  0.25000  1.0000
  Pt  Pt3       1.0  0.38500  0.38500  0.25000  1.0000
  Pt  Pt4       1.0  0.38500  0.00000  0.75000  1.0000
  Pt  Pt5       1.0  0.00000  0.38500  0.75000  1.0000
  Pt  Pt6       1.0  0.61500  0.61500  0.75000  1.0000
  Pu  Pu1       1.0  0.66700  0.33300  0.00000  1.0000
  Pu  Pu2       1.0  0.33300  0.66700  0.00000  1.0000
  Pu  Pu3       1.0  0.74300  0.74300  0.25000  1.0000
  Pu  Pu4       1.0  0.25700  0.00000  0.25000  1.0000
  Pu  Pu5       1.0  0.00000  0.25700  0.25000  1.0000
  Pu  Pu6       1.0  0.66700  0.33300  0.50000  1.0000
  Pu  Pu7       1.0  0.33300  0.66700  0.50000  1.0000
  Pu  Pu8       1.0  0.25700  0.25700  0.75000  1.0000
  Pu  Pu9       1.0  0.74300  0.00001  0.75000  1.0000
  Pu  Pu10      1.0  0.00001  0.74300  0.75000  1.0000
