data_image0
_chemical_formula_structural       Ge6Li6
_chemical_formula_sum              "Ge6 Li6"
_cell_length_a       4.03448
_cell_length_b       4.03448
_cell_length_c       11.9522
_cell_angle_alpha    99.7167
_cell_angle_beta     99.7167
_cell_angle_gamma    90

_space_group_name_H-M_alt    "P 1"
_space_group_IT_number       1

loop_
  _space_group_symop_operation_xyz
  'x, y, z'

loop_
  _atom_site_type_symbol
  _atom_site_label
  _atom_site_symmetry_multiplicity
  _atom_site_fract_x
  _atom_site_fract_y
  _atom_site_fract_z
  _atom_site_occupancy
  Ge  Ge1       1.0  0.54800  0.79800  0.09560  1.0000
  Ge  Ge2       1.0  0.62500  0.37500  0.25000  1.0000
  Ge  Ge3       1.0  0.20200  0.45200  0.40400  1.0000
  Ge  Ge4       1.0  0.79800  0.54800  0.59600  1.0000
  Ge  Ge5       1.0  0.37500  0.62500  0.75000  1.0000
  Ge  Ge6       1.0  0.45200  0.20200  0.90400  1.0000
  Li  Li1       1.0  0.03750  0.28700  0.07500  1.0000
  Li  Li2       1.0  0.12500  0.87500  0.25000  1.0000
  Li  Li3       1.0  0.71300  0.96300  0.42500  1.0000
  Li  Li4       1.0  0.28700  0.03750  0.57500  1.0000
  Li  Li5       1.0  0.87500  0.12500  0.75000  1.0000
  Li  Li6       1.0  0.96300  0.71300  0.92500  1.0000
