data_image0
_chemical_formula_structural       Ba3Ho4O9
_chemical_formula_sum              "Ba3 Ho4 O9"
_cell_length_a       6.07163
_cell_length_b       6.07163
_cell_length_c       9.11794
_cell_angle_alpha    109.448
_cell_angle_beta     70.5521
_cell_angle_gamma    120

_space_group_name_H-M_alt    "P 1"
_space_group_IT_number       1

loop_
  _space_group_symop_operation_xyz
  'x, y, z'

loop_
  _atom_site_type_symbol
  _atom_site_label
  _atom_site_symmetry_multiplicity
  _atom_site_fract_x
  _atom_site_fract_y
  _atom_site_fract_z
  _atom_site_occupancy
  Ba  Ba1       1.0  0.00088  0.99900  0.99700  1.0000
  Ba  Ba2       1.0  0.83700  0.16300  0.48900  1.0000
  Ba  Ba3       1.0  0.42400  0.57600  0.72900  1.0000
  Ho  Ho1       1.0  0.26200  0.73800  0.21500  1.0000
  Ho  Ho2       1.0  0.57500  0.42500  0.27400  1.0000
  Ho  Ho3       1.0  0.13600  0.86400  0.59200  1.0000
  Ho  Ho4       1.0  0.70000  0.30000  0.89900  1.0000
  O   O1        1.0  0.54800  0.04080  0.07870  1.0000
  O   O2        1.0  0.41400  0.45200  0.07870  1.0000
  O   O3        1.0  0.95900  0.58600  0.07870  1.0000
  O   O4        1.0  0.40600  0.12700  0.41600  1.0000
  O   O5        1.0  0.30500  0.59400  0.41600  1.0000
  O   O6        1.0  0.87300  0.69500  0.41600  1.0000
  O   O7        1.0  0.42100  0.02070  0.74400  1.0000
  O   O8        1.0  0.97900  0.14400  0.74400  1.0000
  O   O9        1.0  0.85600  0.57900  0.74400  1.0000
