data_image0
_chemical_formula_structural       As2Li2O8Rb4
_chemical_formula_sum              "As2 Li2 O8 Rb4"
_cell_length_a       5.79359
_cell_length_b       6.49063
_cell_length_c       7.89952
_cell_angle_alpha    90
_cell_angle_beta     90
_cell_angle_gamma    63.4932

_space_group_name_H-M_alt    "P 1"
_space_group_IT_number       1

loop_
  _space_group_symop_operation_xyz
  'x, y, z'

loop_
  _atom_site_type_symbol
  _atom_site_label
  _atom_site_symmetry_multiplicity
  _atom_site_fract_x
  _atom_site_fract_y
  _atom_site_fract_z
  _atom_site_occupancy
  As  As1       1.0  0.31100  0.37800  0.05530  1.0000
  As  As2       1.0  0.68900  0.62200  0.55500  1.0000
  Li  Li1       1.0  0.79500  0.41000  0.27000  1.0000
  Li  Li2       1.0  0.20500  0.59000  0.77000  1.0000
  O   O1        1.0  0.16400  0.67200  0.02300  1.0000
  O   O2        1.0  0.11800  0.28300  0.16200  1.0000
  O   O3        1.0  0.59800  0.28300  0.16200  1.0000
  O   O4        1.0  0.63100  0.73800  0.35400  1.0000
  O   O5        1.0  0.83600  0.32800  0.52300  1.0000
  O   O6        1.0  0.40200  0.71700  0.66200  1.0000
  O   O7        1.0  0.88200  0.71700  0.66200  1.0000
  O   O8        1.0  0.36900  0.26200  0.85400  1.0000
  Rb  Rb1       1.0  0.60400  0.79200  0.99800  1.0000
  Rb  Rb2       1.0  0.05760  0.88500  0.34700  1.0000
  Rb  Rb3       1.0  0.39600  0.20800  0.49800  1.0000
  Rb  Rb4       1.0  0.94200  0.11500  0.84700  1.0000
