data_image0
_chemical_formula_structural       B4Mo10Si2
_chemical_formula_sum              "B4 Mo10 Si2"
_cell_length_a       6.05092
_cell_length_b       6.05092
_cell_length_c       7.0147
_cell_angle_alpha    115.55
_cell_angle_beta     115.55
_cell_angle_gamma    90

_space_group_name_H-M_alt    "P 1"
_space_group_IT_number       1

loop_
  _space_group_symop_operation_xyz
  'x, y, z'

loop_
  _atom_site_type_symbol
  _atom_site_label
  _atom_site_symmetry_multiplicity
  _atom_site_fract_x
  _atom_site_fract_y
  _atom_site_fract_z
  _atom_site_occupancy
  B   B1        1.0  0.37800  0.12200  0.00000  1.0000
  B   B2        1.0  0.87800  0.37800  0.00000  1.0000
  B   B3        1.0  0.12200  0.62200  0.00000  1.0000
  B   B4        1.0  0.62200  0.87800  0.00000  1.0000
  Mo  Mo1       1.0  0.00000  0.00000  0.00000  1.0000
  Mo  Mo2       1.0  0.50000  0.50000  0.00000  1.0000
  Mo  Mo3       1.0  0.80300  0.30300  0.27900  1.0000
  Mo  Mo4       1.0  0.30300  0.47600  0.27900  1.0000
  Mo  Mo5       1.0  0.97600  0.80300  0.27900  1.0000
  Mo  Mo6       1.0  0.47600  0.97600  0.27900  1.0000
  Mo  Mo7       1.0  0.52400  0.02430  0.72100  1.0000
  Mo  Mo8       1.0  0.02430  0.19700  0.72100  1.0000
  Mo  Mo9       1.0  0.69700  0.52400  0.72100  1.0000
  Mo  Mo10      1.0  0.19700  0.69700  0.72100  1.0000
  Si  Si1       1.0  0.25000  0.25000  0.50000  1.0000
  Si  Si2       1.0  0.75000  0.75000  0.50000  1.0000
