data_image0
_chemical_formula_structural       Au6Cd10
_chemical_formula_sum              "Au6 Cd10"
_cell_length_a       5.43098
_cell_length_b       8.14138
_cell_length_c       8.14138
_cell_angle_alpha    96.3874
_cell_angle_beta     70.5161
_cell_angle_gamma    109.484

_space_group_name_H-M_alt    "P 1"
_space_group_IT_number       1

loop_
  _space_group_symop_operation_xyz
  'x, y, z'

loop_
  _atom_site_type_symbol
  _atom_site_label
  _atom_site_symmetry_multiplicity
  _atom_site_fract_x
  _atom_site_fract_y
  _atom_site_fract_z
  _atom_site_occupancy
  Au  Au1       1.0  0.25000  0.00000  0.00000  1.0000
  Au  Au2       1.0  0.75000  0.00000  0.00000  1.0000
  Au  Au3       1.0  0.16600  0.50000  0.16700  1.0000
  Au  Au4       1.0  0.33400  0.16700  0.50000  1.0000
  Au  Au5       1.0  0.66600  0.83300  0.50000  1.0000
  Au  Au6       1.0  0.83400  0.50000  0.83300  1.0000
  Cd  Cd1       1.0  0.77400  0.69600  0.14700  1.0000
  Cd  Cd2       1.0  0.57800  0.30400  0.14700  1.0000
  Cd  Cd3       1.0  0.92200  0.14700  0.30400  1.0000
  Cd  Cd4       1.0  0.27400  0.85300  0.30400  1.0000
  Cd  Cd5       1.0  0.25000  0.50000  0.50000  1.0000
  Cd  Cd6       1.0  0.75000  0.50000  0.50000  1.0000
  Cd  Cd7       1.0  0.72600  0.14700  0.69600  1.0000
  Cd  Cd8       1.0  0.07830  0.85300  0.69600  1.0000
  Cd  Cd9       1.0  0.42200  0.69600  0.85300  1.0000
  Cd  Cd10      1.0  0.22600  0.30400  0.85300  1.0000
