data_image0
_chemical_formula_structural       Cr2Cu2O6S2Sr4
_chemical_formula_sum              "Cr2 Cu2 O6 S2 Sr4"
_cell_length_a       3.92018
_cell_length_b       3.92018
_cell_length_c       15.3425
_cell_angle_alpha    90
_cell_angle_beta     90
_cell_angle_gamma    90

_space_group_name_H-M_alt    "P 1"
_space_group_IT_number       1

loop_
  _space_group_symop_operation_xyz
  'x, y, z'

loop_
  _atom_site_type_symbol
  _atom_site_label
  _atom_site_symmetry_multiplicity
  _atom_site_fract_x
  _atom_site_fract_y
  _atom_site_fract_z
  _atom_site_occupancy
  Cr  Cr1       1.0  0.25000  0.25000  0.30600  1.0000
  Cr  Cr2       1.0  0.75000  0.75000  0.69400  1.0000
  Cu  Cu1       1.0  0.75000  0.25000  0.00000  1.0000
  Cu  Cu2       1.0  0.25000  0.75000  0.00000  1.0000
  O   O1        1.0  0.75000  0.25000  0.28700  1.0000
  O   O2        1.0  0.25000  0.75000  0.28700  1.0000
  O   O3        1.0  0.25000  0.25000  0.43000  1.0000
  O   O4        1.0  0.75000  0.75000  0.57000  1.0000
  O   O5        1.0  0.75000  0.25000  0.71300  1.0000
  O   O6        1.0  0.25000  0.75000  0.71300  1.0000
  S   S1        1.0  0.25000  0.25000  0.09060  1.0000
  S   S2        1.0  0.75000  0.75000  0.90900  1.0000
  Sr  Sr1       1.0  0.75000  0.75000  0.18300  1.0000
  Sr  Sr2       1.0  0.75000  0.75000  0.41200  1.0000
  Sr  Sr3       1.0  0.25000  0.25000  0.58800  1.0000
  Sr  Sr4       1.0  0.25000  0.25000  0.81700  1.0000
