data_image0
_chemical_formula_structural       Te6Tl10
_chemical_formula_sum              "Te6 Tl10"
_cell_length_a       9.00494
_cell_length_b       9.00494
_cell_length_c       9.00494
_cell_angle_alpha    89.511
_cell_angle_beta     120.283
_cell_angle_gamma    120.283

_space_group_name_H-M_alt    "P 1"
_space_group_IT_number       1

loop_
  _space_group_symop_operation_xyz
  'x, y, z'

loop_
  _atom_site_type_symbol
  _atom_site_label
  _atom_site_symmetry_multiplicity
  _atom_site_fract_x
  _atom_site_fract_y
  _atom_site_fract_z
  _atom_site_occupancy
  Te  Te1       1.0  0.50000  0.34200  0.15800  1.0000
  Te  Te2       1.0  0.00000  0.25000  0.25000  1.0000
  Te  Te3       1.0  0.18400  0.84200  0.34200  1.0000
  Te  Te4       1.0  0.81600  0.15800  0.65800  1.0000
  Te  Te5       1.0  0.00000  0.75000  0.75000  1.0000
  Te  Te6       1.0  0.50000  0.65800  0.84200  1.0000
  Tl  Tl1       1.0  0.00000  0.00000  0.00000  1.0000
  Tl  Tl2       1.0  0.20600  0.51100  0.01100  1.0000
  Tl  Tl3       1.0  0.50000  0.98900  0.19500  1.0000
  Tl  Tl4       1.0  0.79400  0.80500  0.30500  1.0000
  Tl  Tl5       1.0  0.50000  0.69500  0.48900  1.0000
  Tl  Tl6       1.0  0.00000  0.50000  0.50000  1.0000
  Tl  Tl7       1.0  0.50000  0.30500  0.51100  1.0000
  Tl  Tl8       1.0  0.20600  0.19500  0.69500  1.0000
  Tl  Tl9       1.0  0.50000  0.01100  0.80500  1.0000
  Tl  Tl10      1.0  0.79400  0.48900  0.98900  1.0000
