data_image0
_chemical_formula_structural       B2Ba2F4Ga2O6
_chemical_formula_sum              "B2 Ba2 F4 Ga2 O6"
_cell_length_a       4.86839
_cell_length_b       4.86842
_cell_length_c       9.48707
_cell_angle_alpha    90
_cell_angle_beta     90
_cell_angle_gamma    120.002

_space_group_name_H-M_alt    "P 1"
_space_group_IT_number       1

loop_
  _space_group_symop_operation_xyz
  'x, y, z'

loop_
  _atom_site_type_symbol
  _atom_site_label
  _atom_site_symmetry_multiplicity
  _atom_site_fract_x
  _atom_site_fract_y
  _atom_site_fract_z
  _atom_site_occupancy
  B   B1        1.0  0.66700  0.33300  0.25000  1.0000
  B   B2        1.0  0.33300  0.66700  0.75000  1.0000
  Ba  Ba1       1.0  0.00000  0.00000  0.00000  1.0000
  Ba  Ba2       1.0  0.00000  0.00000  0.50000  1.0000
  F   F1        1.0  0.33300  0.66700  0.04200  1.0000
  F   F2        1.0  0.33300  0.66700  0.45800  1.0000
  F   F3        1.0  0.66700  0.33300  0.54200  1.0000
  F   F4        1.0  0.66700  0.33300  0.95800  1.0000
  Ga  Ga1       1.0  0.33300  0.66700  0.25000  1.0000
  Ga  Ga2       1.0  0.66700  0.33300  0.75000  1.0000
  O   O1        1.0  0.69700  0.06680  0.25000  1.0000
  O   O2        1.0  0.37000  0.30300  0.25000  1.0000
  O   O3        1.0  0.93300  0.63000  0.25000  1.0000
  O   O4        1.0  0.06690  0.37000  0.75000  1.0000
  O   O5        1.0  0.63000  0.69700  0.75000  1.0000
  O   O6        1.0  0.30300  0.93300  0.75000  1.0000
