data_image0
_chemical_formula_structural       Cu4K2Se8Ta2
_chemical_formula_sum              "Cu4 K2 Se8 Ta2"
_cell_length_a       5.71219
_cell_length_b       7.7351
_cell_length_c       9.92155
_cell_angle_alpha    90.0029
_cell_angle_beta     73.2697
_cell_angle_gamma    90.0101

_space_group_name_H-M_alt    "P 1"
_space_group_IT_number       1

loop_
  _space_group_symop_operation_xyz
  'x, y, z'

loop_
  _atom_site_type_symbol
  _atom_site_label
  _atom_site_symmetry_multiplicity
  _atom_site_fract_x
  _atom_site_fract_y
  _atom_site_fract_z
  _atom_site_occupancy
  Cu  Cu1       1.0  0.12000  0.65600  0.00000  1.0000
  Cu  Cu2       1.0  0.11900  0.15600  0.00002  1.0000
  Cu  Cu3       1.0  0.53100  0.40600  0.21700  1.0000
  Cu  Cu4       1.0  0.74800  0.90600  0.78300  1.0000
  K   K1        1.0  0.19900  0.90600  0.36600  1.0000
  K   K2        1.0  0.56400  0.40600  0.63400  1.0000
  Se  Se1       1.0  0.38200  0.40600  0.00699  1.0000
  Se  Se2       1.0  0.78200  0.14800  0.21800  1.0000
  Se  Se3       1.0  0.78200  0.66300  0.21800  1.0000
  Se  Se4       1.0  0.17500  0.40600  0.42700  1.0000
  Se  Se5       1.0  0.60100  0.90600  0.57300  1.0000
  Se  Se6       1.0  0.00065  0.16300  0.78200  1.0000
  Se  Se7       1.0  0.00053  0.64800  0.78200  1.0000
  Se  Se8       1.0  0.38900  0.90600  0.99300  1.0000
  Ta  Ta1       1.0  0.02890  0.40600  0.22100  1.0000
  Ta  Ta2       1.0  0.24900  0.90600  0.77900  1.0000
