data_image0
_chemical_formula_structural       C2F2O6Rb6
_chemical_formula_sum              "C2 F2 O6 Rb6"
_cell_length_a       7.20431
_cell_length_b       7.20431
_cell_length_c       7.20431
_cell_angle_alpha    64.8844
_cell_angle_beta     115.116
_cell_angle_gamma    115.116

_space_group_name_H-M_alt    "P 1"
_space_group_IT_number       1

loop_
  _space_group_symop_operation_xyz
  'x, y, z'

loop_
  _atom_site_type_symbol
  _atom_site_label
  _atom_site_symmetry_multiplicity
  _atom_site_fract_x
  _atom_site_fract_y
  _atom_site_fract_z
  _atom_site_occupancy
  C   C1        1.0  0.75000  0.25000  0.25000  1.0000
  C   C2        1.0  0.25000  0.75000  0.75000  1.0000
  F   F1        1.0  0.00000  0.00000  0.00000  1.0000
  F   F2        1.0  0.50000  0.50000  0.50000  1.0000
  O   O1        1.0  0.75000  0.41900  0.08070  1.0000
  O   O2        1.0  0.58100  0.08070  0.25000  1.0000
  O   O3        1.0  0.91900  0.25000  0.41900  1.0000
  O   O4        1.0  0.08070  0.75000  0.58100  1.0000
  O   O5        1.0  0.41900  0.91900  0.75000  1.0000
  O   O6        1.0  0.25000  0.58100  0.91900  1.0000
  Rb  Rb1       1.0  0.68100  0.75000  0.18100  1.0000
  Rb  Rb2       1.0  0.18100  0.68100  0.25000  1.0000
  Rb  Rb3       1.0  0.25000  0.18100  0.31900  1.0000
  Rb  Rb4       1.0  0.75000  0.81900  0.68100  1.0000
  Rb  Rb5       1.0  0.81900  0.31900  0.75000  1.0000
  Rb  Rb6       1.0  0.31900  0.25000  0.81900  1.0000
