data_image0
_chemical_formula_structural       Ag6As2S8
_chemical_formula_sum              "Ag6 As2 S8"
_cell_length_a       7.87543
_cell_length_b       7.05787
_cell_length_c       6.64407
_cell_angle_alpha    90
_cell_angle_beta     90
_cell_angle_gamma    90

_space_group_name_H-M_alt    "P 1"
_space_group_IT_number       1

loop_
  _space_group_symop_operation_xyz
  'x, y, z'

loop_
  _atom_site_type_symbol
  _atom_site_label
  _atom_site_symmetry_multiplicity
  _atom_site_fract_x
  _atom_site_fract_y
  _atom_site_fract_z
  _atom_site_occupancy
  Ag  Ag1       1.0  0.50000  0.84900  0.02900  1.0000
  Ag  Ag2       1.0  0.27000  0.69500  0.48000  1.0000
  Ag  Ag3       1.0  0.73000  0.69500  0.48000  1.0000
  Ag  Ag4       1.0  0.00000  0.15100  0.52900  1.0000
  Ag  Ag5       1.0  0.23000  0.30500  0.98000  1.0000
  Ag  Ag6       1.0  0.77000  0.30500  0.98000  1.0000
  As  As1       1.0  0.00000  0.81200  0.00047  1.0000
  As  As2       1.0  0.50000  0.18800  0.50000  1.0000
  S   S1        1.0  0.23100  0.65500  0.10500  1.0000
  S   S2        1.0  0.76900  0.65500  0.10500  1.0000
  S   S3        1.0  0.00000  0.10100  0.13600  1.0000
  S   S4        1.0  0.50000  0.18800  0.16700  1.0000
  S   S5        1.0  0.26900  0.34500  0.60500  1.0000
  S   S6        1.0  0.73100  0.34500  0.60500  1.0000
  S   S7        1.0  0.50000  0.89900  0.63600  1.0000
  S   S8        1.0  0.00000  0.81200  0.66700  1.0000
