data_image0
_chemical_formula_structural       Al2Ca2F2O8Si2
_chemical_formula_sum              "Al2 Ca2 F2 O8 Si2"
_cell_length_a       5.31862
_cell_length_b       5.31862
_cell_length_c       6.88143
_cell_angle_alpha    104.587
_cell_angle_beta     104.587
_cell_angle_gamma    105.902

_space_group_name_H-M_alt    "P 1"
_space_group_IT_number       1

loop_
  _space_group_symop_operation_xyz
  'x, y, z'

loop_
  _atom_site_type_symbol
  _atom_site_label
  _atom_site_symmetry_multiplicity
  _atom_site_fract_x
  _atom_site_fract_y
  _atom_site_fract_z
  _atom_site_occupancy
  Al  Al1       1.0  0.50000  0.50000  0.00000  1.0000
  Al  Al2       1.0  0.50000  0.50000  0.50000  1.0000
  Ca  Ca1       1.0  0.16300  0.83700  0.25000  1.0000
  Ca  Ca2       1.0  0.83700  0.16300  0.75000  1.0000
  F   F1        1.0  0.43100  0.56900  0.25000  1.0000
  F   F2        1.0  0.56900  0.43100  0.75000  1.0000
  O   O1        1.0  0.74000  0.87000  0.08720  1.0000
  O   O2        1.0  0.80700  0.39600  0.11100  1.0000
  O   O3        1.0  0.60400  0.19300  0.38900  1.0000
  O   O4        1.0  0.13000  0.26000  0.41300  1.0000
  O   O5        1.0  0.87000  0.74000  0.58700  1.0000
  O   O6        1.0  0.39600  0.80700  0.61100  1.0000
  O   O7        1.0  0.19300  0.60400  0.88900  1.0000
  O   O8        1.0  0.26000  0.13000  0.91300  1.0000
  Si  Si1       1.0  0.81400  0.18600  0.25000  1.0000
  Si  Si2       1.0  0.18600  0.81400  0.75000  1.0000
