data_image0
_chemical_formula_structural       As2Bi2Mn2O10
_chemical_formula_sum              "As2 Bi2 Mn2 O10"
_cell_length_a       6.87097
_cell_length_b       6.88757
_cell_length_c       5.34511
_cell_angle_alpha    109.917
_cell_angle_beta     95.3137
_cell_angle_gamma    109.362

_space_group_name_H-M_alt    "P 1"
_space_group_IT_number       1

loop_
  _space_group_symop_operation_xyz
  'x, y, z'

loop_
  _atom_site_type_symbol
  _atom_site_label
  _atom_site_symmetry_multiplicity
  _atom_site_fract_x
  _atom_site_fract_y
  _atom_site_fract_z
  _atom_site_occupancy
  As  As1       1.0  0.82500  0.12400  0.35300  1.0000
  As  As2       1.0  0.17500  0.87600  0.64700  1.0000
  Bi  Bi1       1.0  0.75700  0.51800  0.07360  1.0000
  Bi  Bi2       1.0  0.24300  0.48200  0.92600  1.0000
  Mn  Mn1       1.0  0.36300  0.21400  0.32300  1.0000
  Mn  Mn2       1.0  0.63700  0.78600  0.67700  1.0000
  O   O1        1.0  0.79200  0.87400  0.09760  1.0000
  O   O2        1.0  0.65800  0.21900  0.21200  1.0000
  O   O3        1.0  0.50200  0.54900  0.26600  1.0000
  O   O4        1.0  0.24000  0.89500  0.35400  1.0000
  O   O5        1.0  0.08660  0.30500  0.43000  1.0000
  O   O6        1.0  0.91300  0.69500  0.57000  1.0000
  O   O7        1.0  0.76000  0.10500  0.64600  1.0000
  O   O8        1.0  0.49800  0.45100  0.73400  1.0000
  O   O9        1.0  0.34200  0.78100  0.78800  1.0000
  O   O10       1.0  0.20800  0.12600  0.90200  1.0000
