data_image0
_chemical_formula_structural       Cu4Er4P8
_chemical_formula_sum              "Cu4 Er4 P8"
_cell_length_a       3.72441
_cell_length_b       19.2747
_cell_length_c       3.70287
_cell_angle_alpha    90
_cell_angle_beta     90.012
_cell_angle_gamma    90

_space_group_name_H-M_alt    "P 1"
_space_group_IT_number       1

loop_
  _space_group_symop_operation_xyz
  'x, y, z'

loop_
  _atom_site_type_symbol
  _atom_site_label
  _atom_site_symmetry_multiplicity
  _atom_site_fract_x
  _atom_site_fract_y
  _atom_site_fract_z
  _atom_site_occupancy
  Cu  Cu1       1.0  0.27000  0.75000  0.24900  1.0000
  Cu  Cu2       1.0  0.23000  0.25000  0.25100  1.0000
  Cu  Cu3       1.0  0.77000  0.75000  0.74900  1.0000
  Cu  Cu4       1.0  0.73000  0.25000  0.75100  1.0000
  Er  Er1       1.0  0.77300  0.88300  0.25000  1.0000
  Er  Er2       1.0  0.72700  0.38300  0.25000  1.0000
  Er  Er3       1.0  0.27300  0.61700  0.75000  1.0000
  Er  Er4       1.0  0.22700  0.11700  0.75000  1.0000
  P   P1        1.0  0.77100  0.67000  0.24900  1.0000
  P   P2        1.0  0.30200  0.99900  0.25000  1.0000
  P   P3        1.0  0.19800  0.49900  0.25000  1.0000
  P   P4        1.0  0.72900  0.17000  0.25100  1.0000
  P   P5        1.0  0.27100  0.83000  0.74900  1.0000
  P   P6        1.0  0.80200  0.50100  0.75000  1.0000
  P   P7        1.0  0.69800  0.00123  0.75000  1.0000
  P   P8        1.0  0.22900  0.33000  0.75100  1.0000
