data_image0
_chemical_formula_structural       Mo2O10Pb4
_chemical_formula_sum              "Mo2 O10 Pb4"
_cell_length_a       5.761
_cell_length_b       7.2722
_cell_length_c       7.65459
_cell_angle_alpha    112.306
_cell_angle_beta     112.105
_cell_angle_gamma    90

_space_group_name_H-M_alt    "P 1"
_space_group_IT_number       1

loop_
  _space_group_symop_operation_xyz
  'x, y, z'

loop_
  _atom_site_type_symbol
  _atom_site_label
  _atom_site_symmetry_multiplicity
  _atom_site_fract_x
  _atom_site_fract_y
  _atom_site_fract_z
  _atom_site_occupancy
  Mo  Mo1       1.0  0.16800  0.66200  0.33600  1.0000
  Mo  Mo2       1.0  0.83200  0.33800  0.66400  1.0000
  O   O1        1.0  0.25400  0.00000  0.00000  1.0000
  O   O2        1.0  0.74600  0.00000  0.00000  1.0000
  O   O3        1.0  0.08170  0.39800  0.16300  1.0000
  O   O4        1.0  0.39700  0.78900  0.29800  1.0000
  O   O5        1.0  0.90100  0.78900  0.29800  1.0000
  O   O6        1.0  0.70100  0.31500  0.40300  1.0000
  O   O7        1.0  0.29900  0.68500  0.59700  1.0000
  O   O8        1.0  0.09910  0.21100  0.70200  1.0000
  O   O9        1.0  0.60300  0.21100  0.70200  1.0000
  O   O10       1.0  0.91800  0.60200  0.83700  1.0000
  Pb  Pb1       1.0  0.51300  0.26000  0.02530  1.0000
  Pb  Pb2       1.0  0.13900  0.11700  0.27800  1.0000
  Pb  Pb3       1.0  0.86100  0.88300  0.72200  1.0000
  Pb  Pb4       1.0  0.48700  0.74000  0.97500  1.0000
