data_image0
_chemical_formula_structural       Fe4Li2N6Sr4
_chemical_formula_sum              "Fe4 Li2 N6 Sr4"
_cell_length_a       6.50412
_cell_length_b       6.47577
_cell_length_c       6.50928
_cell_angle_alpha    91.2796
_cell_angle_beta     92.5487
_cell_angle_gamma    59.8551

_space_group_name_H-M_alt    "P 1"
_space_group_IT_number       1

loop_
  _space_group_symop_operation_xyz
  'x, y, z'

loop_
  _atom_site_type_symbol
  _atom_site_label
  _atom_site_symmetry_multiplicity
  _atom_site_fract_x
  _atom_site_fract_y
  _atom_site_fract_z
  _atom_site_occupancy
  Fe  Fe1       1.0  0.83500  0.59300  0.10400  1.0000
  Fe  Fe2       1.0  0.57100  0.59300  0.39600  1.0000
  Fe  Fe3       1.0  0.42900  0.40700  0.60400  1.0000
  Fe  Fe4       1.0  0.16500  0.40700  0.89600  1.0000
  Li  Li1       1.0  0.19200  0.61700  0.25000  1.0000
  Li  Li2       1.0  0.80800  0.38300  0.75000  1.0000
  N   N1        1.0  0.00105  0.28000  0.01690  1.0000
  N   N2        1.0  0.58900  0.82300  0.25000  1.0000
  N   N3        1.0  0.71900  0.28000  0.48300  1.0000
  N   N4        1.0  0.28100  0.72000  0.51700  1.0000
  N   N5        1.0  0.41100  0.17700  0.75000  1.0000
  N   N6        1.0  0.99900  0.72000  0.98300  1.0000
  Sr  Sr1       1.0  0.68100  0.14200  0.09890  1.0000
  Sr  Sr2       1.0  0.17700  0.14200  0.40100  1.0000
  Sr  Sr3       1.0  0.82300  0.85800  0.59900  1.0000
  Sr  Sr4       1.0  0.31900  0.85800  0.90100  1.0000
