data_image0
_chemical_formula_structural       Ba10Pb6
_chemical_formula_sum              "Ba10 Pb6"
_cell_length_a       9.11166
_cell_length_b       9.11166
_cell_length_c       10.7478
_cell_angle_alpha    115.08
_cell_angle_beta     115.08
_cell_angle_gamma    90

_space_group_name_H-M_alt    "P 1"
_space_group_IT_number       1

loop_
  _space_group_symop_operation_xyz
  'x, y, z'

loop_
  _atom_site_type_symbol
  _atom_site_label
  _atom_site_symmetry_multiplicity
  _atom_site_fract_x
  _atom_site_fract_y
  _atom_site_fract_z
  _atom_site_occupancy
  Ba  Ba1       1.0  0.00000  0.00000  0.00000  1.0000
  Ba  Ba2       1.0  0.50000  0.50000  0.00000  1.0000
  Ba  Ba3       1.0  0.82100  0.32100  0.28900  1.0000
  Ba  Ba4       1.0  0.32100  0.46800  0.28900  1.0000
  Ba  Ba5       1.0  0.96800  0.82100  0.28900  1.0000
  Ba  Ba6       1.0  0.46800  0.96800  0.28900  1.0000
  Ba  Ba7       1.0  0.53200  0.03180  0.71100  1.0000
  Ba  Ba8       1.0  0.03180  0.17900  0.71100  1.0000
  Ba  Ba9       1.0  0.67900  0.53200  0.71100  1.0000
  Ba  Ba10      1.0  0.17900  0.67900  0.71100  1.0000
  Pb  Pb1       1.0  0.38000  0.12000  0.00000  1.0000
  Pb  Pb2       1.0  0.88000  0.38000  0.00000  1.0000
  Pb  Pb3       1.0  0.12000  0.62000  0.00000  1.0000
  Pb  Pb4       1.0  0.62000  0.88000  0.00000  1.0000
  Pb  Pb5       1.0  0.25000  0.25000  0.50000  1.0000
  Pb  Pb6       1.0  0.75000  0.75000  0.50000  1.0000
