data_image0
_chemical_formula_structural       Br2Eu6O8
_chemical_formula_sum              "Br2 Eu6 O8"
_cell_length_a       4.02476
_cell_length_b       6.6066
_cell_length_c       11.7256
_cell_angle_alpha    90
_cell_angle_beta     90
_cell_angle_gamma    72.2658

_space_group_name_H-M_alt    "P 1"
_space_group_IT_number       1

loop_
  _space_group_symop_operation_xyz
  'x, y, z'

loop_
  _atom_site_type_symbol
  _atom_site_label
  _atom_site_symmetry_multiplicity
  _atom_site_fract_x
  _atom_site_fract_y
  _atom_site_fract_z
  _atom_site_occupancy
  Br  Br1       1.0  0.50000  0.00000  0.00000  1.0000
  Br  Br2       1.0  0.50000  0.00000  0.50000  1.0000
  Eu  Eu1       1.0  0.83300  0.33400  0.09340  1.0000
  Eu  Eu2       1.0  0.11700  0.76600  0.25000  1.0000
  Eu  Eu3       1.0  0.83300  0.33400  0.40700  1.0000
  Eu  Eu4       1.0  0.16700  0.66600  0.59300  1.0000
  Eu  Eu5       1.0  0.88300  0.23400  0.75000  1.0000
  Eu  Eu6       1.0  0.16700  0.66600  0.90700  1.0000
  O   O1        1.0  0.23200  0.53700  0.09360  1.0000
  O   O2        1.0  0.93900  0.12300  0.25000  1.0000
  O   O3        1.0  0.71200  0.57600  0.25000  1.0000
  O   O4        1.0  0.23200  0.53700  0.40600  1.0000
  O   O5        1.0  0.76800  0.46300  0.59400  1.0000
  O   O6        1.0  0.28800  0.42400  0.75000  1.0000
  O   O7        1.0  0.06140  0.87700  0.75000  1.0000
  O   O8        1.0  0.76800  0.46300  0.90600  1.0000
