data_image0
_chemical_formula_structural       B8Os6Sc2
_chemical_formula_sum              "B8 Os6 Sc2"
_cell_length_a       2.95391
_cell_length_b       6.09576
_cell_length_c       9.868
_cell_angle_alpha    90
_cell_angle_beta     90
_cell_angle_gamma    75.9781

_space_group_name_H-M_alt    "P 1"
_space_group_IT_number       1

loop_
  _space_group_symop_operation_xyz
  'x, y, z'

loop_
  _atom_site_type_symbol
  _atom_site_label
  _atom_site_symmetry_multiplicity
  _atom_site_fract_x
  _atom_site_fract_y
  _atom_site_fract_z
  _atom_site_occupancy
  B   B1        1.0  0.15700  0.68600  0.10900  1.0000
  B   B2        1.0  0.37100  0.25700  0.25000  1.0000
  B   B3        1.0  0.65000  0.69900  0.25000  1.0000
  B   B4        1.0  0.15700  0.68600  0.39100  1.0000
  B   B5        1.0  0.84300  0.31400  0.60900  1.0000
  B   B6        1.0  0.35000  0.30100  0.75000  1.0000
  B   B7        1.0  0.62900  0.74300  0.75000  1.0000
  B   B8        1.0  0.84300  0.31400  0.89100  1.0000
  Os  Os1       1.0  0.79900  0.40200  0.10800  1.0000
  Os  Os2       1.0  0.01180  0.97600  0.25000  1.0000
  Os  Os3       1.0  0.79900  0.40200  0.39200  1.0000
  Os  Os4       1.0  0.20100  0.59800  0.60800  1.0000
  Os  Os5       1.0  0.98800  0.02350  0.75000  1.0000
  Os  Os6       1.0  0.20100  0.59800  0.89200  1.0000
  Sc  Sc1       1.0  0.50000  0.00000  0.00000  1.0000
  Sc  Sc2       1.0  0.50000  0.00000  0.50000  1.0000
