data_image0
_chemical_formula_structural       Cl10Cs2Sn4
_chemical_formula_sum              "Cl10 Cs2 Sn4"
_cell_length_a       9.50419
_cell_length_b       8.13613
_cell_length_c       8.13613
_cell_angle_alpha    90
_cell_angle_beta     115.343
_cell_angle_gamma    115.343

_space_group_name_H-M_alt    "P 1"
_space_group_IT_number       1

loop_
  _space_group_symop_operation_xyz
  'x, y, z'

loop_
  _atom_site_type_symbol
  _atom_site_label
  _atom_site_symmetry_multiplicity
  _atom_site_fract_x
  _atom_site_fract_y
  _atom_site_fract_z
  _atom_site_occupancy
  Cl  Cl1       1.0  0.00000  0.00000  0.00000  1.0000
  Cl  Cl2       1.0  0.75200  0.21200  0.03970  1.0000
  Cl  Cl3       1.0  0.75200  0.71200  0.21200  1.0000
  Cl  Cl4       1.0  0.24800  0.46000  0.28800  1.0000
  Cl  Cl5       1.0  0.24800  0.96000  0.46000  1.0000
  Cl  Cl6       1.0  0.00000  0.50000  0.50000  1.0000
  Cl  Cl7       1.0  0.75200  0.03970  0.54000  1.0000
  Cl  Cl8       1.0  0.75200  0.54000  0.71200  1.0000
  Cl  Cl9       1.0  0.24800  0.28800  0.78800  1.0000
  Cl  Cl10      1.0  0.24800  0.78800  0.96000  1.0000
  Cs  Cs1       1.0  0.50000  0.25000  0.25000  1.0000
  Cs  Cs2       1.0  0.50000  0.75000  0.75000  1.0000
  Sn  Sn1       1.0  0.00000  0.67800  0.17800  1.0000
  Sn  Sn2       1.0  0.00000  0.17800  0.32200  1.0000
  Sn  Sn3       1.0  0.00000  0.82200  0.67800  1.0000
  Sn  Sn4       1.0  0.00000  0.32200  0.82200  1.0000
