data_image0
_chemical_formula_structural       Cs4Li2O8V2
_chemical_formula_sum              "Cs4 Li2 O8 V2"
_cell_length_a       6.04366
_cell_length_b       6.7444
_cell_length_c       8.16428
_cell_angle_alpha    90
_cell_angle_beta     90
_cell_angle_gamma    63.3813

_space_group_name_H-M_alt    "P 1"
_space_group_IT_number       1

loop_
  _space_group_symop_operation_xyz
  'x, y, z'

loop_
  _atom_site_type_symbol
  _atom_site_label
  _atom_site_symmetry_multiplicity
  _atom_site_fract_x
  _atom_site_fract_y
  _atom_site_fract_z
  _atom_site_occupancy
  Cs  Cs1       1.0  0.60600  0.78800  0.04670  1.0000
  Cs  Cs2       1.0  0.06890  0.86200  0.40700  1.0000
  Cs  Cs3       1.0  0.39400  0.21200  0.54700  1.0000
  Cs  Cs4       1.0  0.93100  0.13800  0.90700  1.0000
  Li  Li1       1.0  0.79700  0.40600  0.32400  1.0000
  Li  Li2       1.0  0.20300  0.59400  0.82400  1.0000
  O   O1        1.0  0.16000  0.67900  0.06170  1.0000
  O   O2        1.0  0.10400  0.31900  0.21100  1.0000
  O   O3        1.0  0.57700  0.31900  0.21100  1.0000
  O   O4        1.0  0.63700  0.72500  0.41200  1.0000
  O   O5        1.0  0.84000  0.32100  0.56200  1.0000
  O   O6        1.0  0.42300  0.68100  0.71100  1.0000
  O   O7        1.0  0.89600  0.68100  0.71100  1.0000
  O   O8        1.0  0.36300  0.27500  0.91200  1.0000
  V   V1        1.0  0.30200  0.39600  0.10500  1.0000
  V   V2        1.0  0.69800  0.60400  0.60500  1.0000
