data_image0
_chemical_formula_structural       Cu4I4Te8
_chemical_formula_sum              "Cu4 I4 Te8"
_cell_length_a       8.71479
_cell_length_b       5.07013
_cell_length_c       16.6019
_cell_angle_alpha    90
_cell_angle_beta     134.833
_cell_angle_gamma    90

_space_group_name_H-M_alt    "P 1"
_space_group_IT_number       1

loop_
  _space_group_symop_operation_xyz
  'x, y, z'

loop_
  _atom_site_type_symbol
  _atom_site_label
  _atom_site_symmetry_multiplicity
  _atom_site_fract_x
  _atom_site_fract_y
  _atom_site_fract_z
  _atom_site_occupancy
  Cu  Cu1       1.0  0.68900  0.13500  0.24900  1.0000
  Cu  Cu2       1.0  0.31100  0.63500  0.25100  1.0000
  Cu  Cu3       1.0  0.68900  0.36500  0.74900  1.0000
  Cu  Cu4       1.0  0.31100  0.86500  0.75100  1.0000
  I   I1        1.0  0.31500  0.38400  0.11100  1.0000
  I   I2        1.0  0.68500  0.88400  0.38900  1.0000
  I   I3        1.0  0.31500  0.11600  0.61100  1.0000
  I   I4        1.0  0.68500  0.61600  0.88900  1.0000
  Te  Te1       1.0  0.01130  0.98600  0.14600  1.0000
  Te  Te2       1.0  0.71500  0.78400  0.14800  1.0000
  Te  Te3       1.0  0.28500  0.28400  0.35200  1.0000
  Te  Te4       1.0  0.98900  0.48600  0.35400  1.0000
  Te  Te5       1.0  0.01130  0.51400  0.64600  1.0000
  Te  Te6       1.0  0.71500  0.71600  0.64800  1.0000
  Te  Te7       1.0  0.28500  0.21600  0.85200  1.0000
  Te  Te8       1.0  0.98900  0.01440  0.85400  1.0000
