data_image0
_chemical_formula_structural       K4Li2O8V2
_chemical_formula_sum              "K4 Li2 O8 V2"
_cell_length_a       5.65467
_cell_length_b       5.65467
_cell_length_c       7.48297
_cell_angle_alpha    90.2171
_cell_angle_beta     90.2171
_cell_angle_gamma    85.8665

_space_group_name_H-M_alt    "P 1"
_space_group_IT_number       1

loop_
  _space_group_symop_operation_xyz
  'x, y, z'

loop_
  _atom_site_type_symbol
  _atom_site_label
  _atom_site_symmetry_multiplicity
  _atom_site_fract_x
  _atom_site_fract_y
  _atom_site_fract_z
  _atom_site_occupancy
  K   K1        1.0  0.70300  0.70300  0.17500  1.0000
  K   K2        1.0  0.78400  0.21600  0.50000  1.0000
  K   K3        1.0  0.21600  0.78400  0.50000  1.0000
  K   K4        1.0  0.29700  0.29700  0.82500  1.0000
  Li  Li1       1.0  0.82300  0.17700  0.00000  1.0000
  Li  Li2       1.0  0.17700  0.82300  0.00000  1.0000
  O   O1        1.0  0.08940  0.08940  0.16200  1.0000
  O   O2        1.0  0.56900  0.20400  0.17200  1.0000
  O   O3        1.0  0.20400  0.56900  0.17200  1.0000
  O   O4        1.0  0.27900  0.27900  0.47900  1.0000
  O   O5        1.0  0.72100  0.72100  0.52100  1.0000
  O   O6        1.0  0.79600  0.43100  0.82800  1.0000
  O   O7        1.0  0.43100  0.79600  0.82800  1.0000
  O   O8        1.0  0.91100  0.91100  0.83800  1.0000
  V   V1        1.0  0.28500  0.28500  0.24700  1.0000
  V   V2        1.0  0.71500  0.71500  0.75300  1.0000
