data_image0
_chemical_formula_structural       Ca6Ga10
_chemical_formula_sum              "Ca6 Ga10"
_cell_length_a       4.46508
_cell_length_b       5.84542
_cell_length_c       15.041
_cell_angle_alpha    90
_cell_angle_beta     90
_cell_angle_gamma    67.5468

_space_group_name_H-M_alt    "P 1"
_space_group_IT_number       1

loop_
  _space_group_symop_operation_xyz
  'x, y, z'

loop_
  _atom_site_type_symbol
  _atom_site_label
  _atom_site_symmetry_multiplicity
  _atom_site_fract_x
  _atom_site_fract_y
  _atom_site_fract_z
  _atom_site_occupancy
  Ca  Ca1       1.0  0.58800  0.82400  0.11000  1.0000
  Ca  Ca2       1.0  0.87000  0.26000  0.25000  1.0000
  Ca  Ca3       1.0  0.58800  0.82400  0.39000  1.0000
  Ca  Ca4       1.0  0.41200  0.17600  0.61000  1.0000
  Ca  Ca5       1.0  0.13000  0.74000  0.75000  1.0000
  Ca  Ca6       1.0  0.41200  0.17600  0.89000  1.0000
  Ga  Ga1       1.0  0.88500  0.23100  0.03410  1.0000
  Ga  Ga2       1.0  0.29200  0.41600  0.09950  1.0000
  Ga  Ga3       1.0  0.16300  0.67400  0.25000  1.0000
  Ga  Ga4       1.0  0.29200  0.41600  0.40000  1.0000
  Ga  Ga5       1.0  0.88500  0.23100  0.46600  1.0000
  Ga  Ga6       1.0  0.11500  0.76900  0.53400  1.0000
  Ga  Ga7       1.0  0.70800  0.58400  0.60000  1.0000
  Ga  Ga8       1.0  0.83700  0.32600  0.75000  1.0000
  Ga  Ga9       1.0  0.70800  0.58400  0.90000  1.0000
  Ga  Ga10      1.0  0.11500  0.76900  0.96600  1.0000
