data_image0
_chemical_formula_structural       K10Te6
_chemical_formula_sum              "K10 Te6"
_cell_length_a       6.49824
_cell_length_b       10.3151
_cell_length_c       10.3151
_cell_angle_alpha    95.6941
_cell_angle_beta     71.6399
_cell_angle_gamma    108.36

_space_group_name_H-M_alt    "P 1"
_space_group_IT_number       1

loop_
  _space_group_symop_operation_xyz
  'x, y, z'

loop_
  _atom_site_type_symbol
  _atom_site_label
  _atom_site_symmetry_multiplicity
  _atom_site_fract_x
  _atom_site_fract_y
  _atom_site_fract_z
  _atom_site_occupancy
  K   K1        1.0  0.28100  0.69300  0.13100  1.0000
  K   K2        1.0  0.09010  0.31400  0.13400  1.0000
  K   K3        1.0  0.41200  0.13100  0.30700  1.0000
  K   K4        1.0  0.77600  0.86600  0.31400  1.0000
  K   K5        1.0  0.25000  0.50000  0.50000  1.0000
  K   K6        1.0  0.75000  0.50000  0.50000  1.0000
  K   K7        1.0  0.22400  0.13400  0.68600  1.0000
  K   K8        1.0  0.58800  0.86900  0.69300  1.0000
  K   K9        1.0  0.91000  0.68600  0.86600  1.0000
  K   K10       1.0  0.71900  0.30700  0.86900  1.0000
  Te  Te1       1.0  0.21900  0.00000  0.00000  1.0000
  Te  Te2       1.0  0.78100  0.00000  0.00000  1.0000
  Te  Te3       1.0  0.65500  0.49900  0.18900  1.0000
  Te  Te4       1.0  0.15600  0.81100  0.49900  1.0000
  Te  Te5       1.0  0.84400  0.18900  0.50100  1.0000
  Te  Te6       1.0  0.34500  0.50100  0.81100  1.0000
