data_image0
_chemical_formula_structural       I12Sn2Th2
_chemical_formula_sum              "I12 Sn2 Th2"
_cell_length_a       7.81708
_cell_length_b       7.81703
_cell_length_c       14.147
_cell_angle_alpha    90.0001
_cell_angle_beta     90
_cell_angle_gamma    120

_space_group_name_H-M_alt    "P 1"
_space_group_IT_number       1

loop_
  _space_group_symop_operation_xyz
  'x, y, z'

loop_
  _atom_site_type_symbol
  _atom_site_label
  _atom_site_symmetry_multiplicity
  _atom_site_fract_x
  _atom_site_fract_y
  _atom_site_fract_z
  _atom_site_occupancy
  I   I1        1.0  0.33800  0.34600  0.12500  1.0000
  I   I2        1.0  0.65400  0.99200  0.12500  1.0000
  I   I3        1.0  0.00823  0.66200  0.12500  1.0000
  I   I4        1.0  0.00823  0.34600  0.37500  1.0000
  I   I5        1.0  0.65400  0.66200  0.37500  1.0000
  I   I6        1.0  0.33800  0.99200  0.37500  1.0000
  I   I7        1.0  0.66200  0.00823  0.62500  1.0000
  I   I8        1.0  0.34600  0.33800  0.62500  1.0000
  I   I9        1.0  0.99200  0.65400  0.62500  1.0000
  I   I10       1.0  0.99200  0.33800  0.87500  1.0000
  I   I11       1.0  0.34600  0.00822  0.87500  1.0000
  I   I12       1.0  0.66200  0.65400  0.87500  1.0000
  Sn  Sn1       1.0  0.00000  0.00000  0.00000  1.0000
  Sn  Sn2       1.0  0.00000  0.00000  0.50000  1.0000
  Th  Th1       1.0  0.33300  0.66700  0.25000  1.0000
  Th  Th2       1.0  0.66700  0.33300  0.75000  1.0000
