data_image0
_chemical_formula_structural       Ba4Fe4Li2N6
_chemical_formula_sum              "Ba4 Fe4 Li2 N6"
_cell_length_a       6.76434
_cell_length_b       6.76187
_cell_length_c       6.76187
_cell_angle_alpha    119.451
_cell_angle_beta     90.9859
_cell_angle_gamma    90.9859

_space_group_name_H-M_alt    "P 1"
_space_group_IT_number       1

loop_
  _space_group_symop_operation_xyz
  'x, y, z'

loop_
  _atom_site_type_symbol
  _atom_site_label
  _atom_site_symmetry_multiplicity
  _atom_site_fract_x
  _atom_site_fract_y
  _atom_site_fract_z
  _atom_site_occupancy
  Ba  Ba1       1.0  0.39900  0.32000  0.17400  1.0000
  Ba  Ba2       1.0  0.89900  0.17400  0.32000  1.0000
  Ba  Ba3       1.0  0.10100  0.82600  0.68000  1.0000
  Ba  Ba4       1.0  0.60100  0.68000  0.82600  1.0000
  Fe  Fe1       1.0  0.89900  0.56800  0.16100  1.0000
  Fe  Fe2       1.0  0.60100  0.83900  0.43200  1.0000
  Fe  Fe3       1.0  0.39900  0.16100  0.56800  1.0000
  Fe  Fe4       1.0  0.10100  0.43200  0.83900  1.0000
  Li  Li1       1.0  0.25000  0.80800  0.19200  1.0000
  Li  Li2       1.0  0.75000  0.19200  0.80800  1.0000
  N   N1        1.0  0.99400  0.71300  0.00628  1.0000
  N   N2        1.0  0.50600  0.99400  0.28700  1.0000
  N   N3        1.0  0.75000  0.60200  0.39800  1.0000
  N   N4        1.0  0.25000  0.39800  0.60200  1.0000
  N   N5        1.0  0.49400  0.00628  0.71300  1.0000
  N   N6        1.0  0.00575  0.28700  0.99400  1.0000
