data_image0
_chemical_formula_structural       Ag6Ca10
_chemical_formula_sum              "Ag6 Ca10"
_cell_length_a       7.97253
_cell_length_b       7.97253
_cell_length_c       9.32535
_cell_angle_alpha    115.307
_cell_angle_beta     115.307
_cell_angle_gamma    90

_space_group_name_H-M_alt    "P 1"
_space_group_IT_number       1

loop_
  _space_group_symop_operation_xyz
  'x, y, z'

loop_
  _atom_site_type_symbol
  _atom_site_label
  _atom_site_symmetry_multiplicity
  _atom_site_fract_x
  _atom_site_fract_y
  _atom_site_fract_z
  _atom_site_occupancy
  Ag  Ag1       1.0  0.37200  0.12800  0.00000  1.0000
  Ag  Ag2       1.0  0.87200  0.37200  0.00000  1.0000
  Ag  Ag3       1.0  0.12800  0.62800  0.00000  1.0000
  Ag  Ag4       1.0  0.62800  0.87200  0.00000  1.0000
  Ag  Ag5       1.0  0.25000  0.25000  0.50000  1.0000
  Ag  Ag6       1.0  0.75000  0.75000  0.50000  1.0000
  Ca  Ca1       1.0  0.00000  0.00000  0.00000  1.0000
  Ca  Ca2       1.0  0.50000  0.50000  0.00000  1.0000
  Ca  Ca3       1.0  0.81300  0.31300  0.29200  1.0000
  Ca  Ca4       1.0  0.31300  0.47900  0.29200  1.0000
  Ca  Ca5       1.0  0.97900  0.81300  0.29200  1.0000
  Ca  Ca6       1.0  0.47900  0.97900  0.29200  1.0000
  Ca  Ca7       1.0  0.52100  0.02090  0.70800  1.0000
  Ca  Ca8       1.0  0.02090  0.18700  0.70800  1.0000
  Ca  Ca9       1.0  0.68700  0.52100  0.70800  1.0000
  Ca  Ca10      1.0  0.18700  0.68700  0.70800  1.0000
