data_image0
_chemical_formula_structural       Cu2Nd4Rb2S8
_chemical_formula_sum              "Cu2 Nd4 Rb2 S8"
_cell_length_a       4.08819
_cell_length_b       7.33843
_cell_length_c       14.074
_cell_angle_alpha    90
_cell_angle_beta     90
_cell_angle_gamma    73.8265

_space_group_name_H-M_alt    "P 1"
_space_group_IT_number       1

loop_
  _space_group_symop_operation_xyz
  'x, y, z'

loop_
  _atom_site_type_symbol
  _atom_site_label
  _atom_site_symmetry_multiplicity
  _atom_site_fract_x
  _atom_site_fract_y
  _atom_site_fract_z
  _atom_site_occupancy
  Cu  Cu1       1.0  0.16500  0.67100  0.25000  1.0000
  Cu  Cu2       1.0  0.83500  0.32900  0.75000  1.0000
  Nd  Nd1       1.0  0.63400  0.73100  0.06180  1.0000
  Nd  Nd2       1.0  0.63400  0.73100  0.43800  1.0000
  Nd  Nd3       1.0  0.36600  0.26900  0.56200  1.0000
  Nd  Nd4       1.0  0.36600  0.26900  0.93800  1.0000
  Rb  Rb1       1.0  0.89300  0.21300  0.25000  1.0000
  Rb  Rb2       1.0  0.10700  0.78700  0.75000  1.0000
  S   S1        1.0  0.00000  0.00000  0.00000  1.0000
  S   S2        1.0  0.26100  0.47900  0.11300  1.0000
  S   S3        1.0  0.57500  0.85000  0.25000  1.0000
  S   S4        1.0  0.26100  0.47900  0.38700  1.0000
  S   S5        1.0  0.00000  0.00000  0.50000  1.0000
  S   S6        1.0  0.73900  0.52100  0.61300  1.0000
  S   S7        1.0  0.42500  0.15000  0.75000  1.0000
  S   S8        1.0  0.73900  0.52100  0.88700  1.0000
