data_image0
_chemical_formula_structural       C8La4Rh4
_chemical_formula_sum              "C8 La4 Rh4"
_cell_length_a       3.98312
_cell_length_b       3.98312
_cell_length_c       15.3981
_cell_angle_alpha    90
_cell_angle_beta     90
_cell_angle_gamma    90

_space_group_name_H-M_alt    "P 1"
_space_group_IT_number       1

loop_
  _space_group_symop_operation_xyz
  'x, y, z'

loop_
  _atom_site_type_symbol
  _atom_site_label
  _atom_site_symmetry_multiplicity
  _atom_site_fract_x
  _atom_site_fract_y
  _atom_site_fract_z
  _atom_site_occupancy
  C   C1        1.0  0.15300  0.65400  0.01350  1.0000
  C   C2        1.0  0.35100  0.66600  0.08500  1.0000
  C   C3        1.0  0.34600  0.15300  0.26300  1.0000
  C   C4        1.0  0.33400  0.35100  0.33500  1.0000
  C   C5        1.0  0.84700  0.34600  0.51300  1.0000
  C   C6        1.0  0.64900  0.33400  0.58500  1.0000
  C   C7        1.0  0.65400  0.84700  0.76300  1.0000
  C   C8        1.0  0.66600  0.64900  0.83500  1.0000
  La  La1       1.0  0.85100  0.14900  0.12600  1.0000
  La  La2       1.0  0.85100  0.85100  0.37600  1.0000
  La  La3       1.0  0.14900  0.85100  0.62600  1.0000
  La  La4       1.0  0.14900  0.14900  0.87600  1.0000
  Rh  Rh1       1.0  0.35300  0.65900  0.22000  1.0000
  Rh  Rh2       1.0  0.34100  0.35300  0.47000  1.0000
  Rh  Rh3       1.0  0.64700  0.34100  0.72000  1.0000
  Rh  Rh4       1.0  0.65900  0.64700  0.97000  1.0000
