data_image0
_chemical_formula_structural       Cl8O4S4
_chemical_formula_sum              "Cl8 O4 S4"
_cell_length_a       8.87864
_cell_length_b       5.85082
_cell_length_c       7.62876
_cell_angle_alpha    90
_cell_angle_beta     100.669
_cell_angle_gamma    90

_space_group_name_H-M_alt    "P 1"
_space_group_IT_number       1

loop_
  _space_group_symop_operation_xyz
  'x, y, z'

loop_
  _atom_site_type_symbol
  _atom_site_label
  _atom_site_symmetry_multiplicity
  _atom_site_fract_x
  _atom_site_fract_y
  _atom_site_fract_z
  _atom_site_occupancy
  Cl  Cl1       1.0  0.74800  0.77600  0.08860  1.0000
  Cl  Cl2       1.0  0.37700  0.70800  0.23600  1.0000
  Cl  Cl3       1.0  0.62300  0.20800  0.26400  1.0000
  Cl  Cl4       1.0  0.25200  0.27600  0.41100  1.0000
  Cl  Cl5       1.0  0.74800  0.72400  0.58900  1.0000
  Cl  Cl6       1.0  0.37700  0.79200  0.73600  1.0000
  Cl  Cl7       1.0  0.62300  0.29200  0.76400  1.0000
  Cl  Cl8       1.0  0.25200  0.22400  0.91100  1.0000
  O   O1        1.0  0.90700  0.21100  0.12900  1.0000
  O   O2        1.0  0.09320  0.71100  0.37100  1.0000
  O   O3        1.0  0.90700  0.28900  0.62900  1.0000
  O   O4        1.0  0.09320  0.78900  0.87100  1.0000
  S   S1        1.0  0.83500  0.06250  0.24200  1.0000
  S   S2        1.0  0.16500  0.56200  0.25800  1.0000
  S   S3        1.0  0.83500  0.43800  0.74200  1.0000
  S   S4        1.0  0.16500  0.93800  0.75800  1.0000
