data_image0
_chemical_formula_structural       Rh2Sb4Ti10
_chemical_formula_sum              "Rh2 Sb4 Ti10"
_cell_length_a       5.20647
_cell_length_b       7.85297
_cell_length_c       7.85297
_cell_angle_alpha    96.309
_cell_angle_beta     70.6403
_cell_angle_gamma    109.36

_space_group_name_H-M_alt    "P 1"
_space_group_IT_number       1

loop_
  _space_group_symop_operation_xyz
  'x, y, z'

loop_
  _atom_site_type_symbol
  _atom_site_label
  _atom_site_symmetry_multiplicity
  _atom_site_fract_x
  _atom_site_fract_y
  _atom_site_fract_z
  _atom_site_occupancy
  Rh  Rh1       1.0  0.25000  0.00000  0.00000  1.0000
  Rh  Rh2       1.0  0.75000  0.00000  0.00000  1.0000
  Sb  Sb1       1.0  0.16300  0.50000  0.17300  1.0000
  Sb  Sb2       1.0  0.33700  0.17300  0.50000  1.0000
  Sb  Sb3       1.0  0.66300  0.82700  0.50000  1.0000
  Sb  Sb4       1.0  0.83700  0.50000  0.82700  1.0000
  Ti  Ti1       1.0  0.79000  0.71700  0.13700  1.0000
  Ti  Ti2       1.0  0.57300  0.28300  0.13700  1.0000
  Ti  Ti3       1.0  0.92700  0.13700  0.28300  1.0000
  Ti  Ti4       1.0  0.29000  0.86300  0.28300  1.0000
  Ti  Ti5       1.0  0.25000  0.50000  0.50000  1.0000
  Ti  Ti6       1.0  0.75000  0.50000  0.50000  1.0000
  Ti  Ti7       1.0  0.71000  0.13700  0.71700  1.0000
  Ti  Ti8       1.0  0.07300  0.86300  0.71700  1.0000
  Ti  Ti9       1.0  0.42700  0.71700  0.86300  1.0000
  Ti  Ti10      1.0  0.21000  0.28300  0.86300  1.0000
