data_image0
_chemical_formula_structural       Li2O8Rb4V2
_chemical_formula_sum              "Li2 O8 Rb4 V2"
_cell_length_a       5.85255
_cell_length_b       6.48886
_cell_length_c       7.88447
_cell_angle_alpha    90
_cell_angle_beta     90
_cell_angle_gamma    63.1941

_space_group_name_H-M_alt    "P 1"
_space_group_IT_number       1

loop_
  _space_group_symop_operation_xyz
  'x, y, z'

loop_
  _atom_site_type_symbol
  _atom_site_label
  _atom_site_symmetry_multiplicity
  _atom_site_fract_x
  _atom_site_fract_y
  _atom_site_fract_z
  _atom_site_occupancy
  Li  Li1       1.0  0.79900  0.40200  0.33000  1.0000
  Li  Li2       1.0  0.20100  0.59800  0.83000  1.0000
  O   O1        1.0  0.16200  0.67700  0.07790  1.0000
  O   O2        1.0  0.11600  0.28600  0.21800  1.0000
  O   O3        1.0  0.59800  0.28600  0.21800  1.0000
  O   O4        1.0  0.63300  0.73400  0.40700  1.0000
  O   O5        1.0  0.83800  0.32300  0.57800  1.0000
  O   O6        1.0  0.40200  0.71400  0.71800  1.0000
  O   O7        1.0  0.88400  0.71400  0.71800  1.0000
  O   O8        1.0  0.36700  0.26600  0.90700  1.0000
  Rb  Rb1       1.0  0.60500  0.79000  0.05100  1.0000
  Rb  Rb2       1.0  0.06180  0.87600  0.40700  1.0000
  Rb  Rb3       1.0  0.39500  0.21000  0.55100  1.0000
  Rb  Rb4       1.0  0.93800  0.12400  0.90700  1.0000
  V   V1        1.0  0.31000  0.38000  0.11100  1.0000
  V   V2        1.0  0.69000  0.62000  0.61100  1.0000
