data_image0
_chemical_formula_structural       Br10Te4Zr2
_chemical_formula_sum              "Br10 Te4 Zr2"
_cell_length_a       8.85744
_cell_length_b       8.85744
_cell_length_c       9.35063
_cell_angle_alpha    110.356
_cell_angle_beta     115.372
_cell_angle_gamma    100.394

_space_group_name_H-M_alt    "P 1"
_space_group_IT_number       1

loop_
  _space_group_symop_operation_xyz
  'x, y, z'

loop_
  _atom_site_type_symbol
  _atom_site_label
  _atom_site_symmetry_multiplicity
  _atom_site_fract_x
  _atom_site_fract_y
  _atom_site_fract_z
  _atom_site_occupancy
  Br  Br1       1.0  0.91900  0.16100  0.08010  1.0000
  Br  Br2       1.0  0.25000  0.50900  0.09720  1.0000
  Br  Br3       1.0  0.58800  0.84700  0.09720  1.0000
  Br  Br4       1.0  0.07880  0.92100  0.33500  1.0000
  Br  Br5       1.0  0.41300  0.25600  0.33500  1.0000
  Br  Br6       1.0  0.92100  0.07880  0.66500  1.0000
  Br  Br7       1.0  0.58700  0.74400  0.66500  1.0000
  Br  Br8       1.0  0.41200  0.15300  0.90300  1.0000
  Br  Br9       1.0  0.75000  0.49100  0.90300  1.0000
  Br  Br10      1.0  0.08110  0.83900  0.92000  1.0000
  Te  Te1       1.0  0.80600  0.56600  0.37200  1.0000
  Te  Te2       1.0  0.16900  0.66900  0.50000  1.0000
  Te  Te3       1.0  0.83100  0.33100  0.50000  1.0000
  Te  Te4       1.0  0.19400  0.43400  0.62800  1.0000
  Zr  Zr1       1.0  0.18700  0.18700  0.00000  1.0000
  Zr  Zr2       1.0  0.81300  0.81300  0.00000  1.0000
