data_image0
_chemical_formula_structural       Bi2O10Pb2V2
_chemical_formula_sum              "Bi2 O10 Pb2 V2"
_cell_length_a       7.08994
_cell_length_b       7.21663
_cell_length_c       5.61049
_cell_angle_alpha    112.208
_cell_angle_beta     95.2997
_cell_angle_gamma    108.372

_space_group_name_H-M_alt    "P 1"
_space_group_IT_number       1

loop_
  _space_group_symop_operation_xyz
  'x, y, z'

loop_
  _atom_site_type_symbol
  _atom_site_label
  _atom_site_symmetry_multiplicity
  _atom_site_fract_x
  _atom_site_fract_y
  _atom_site_fract_z
  _atom_site_occupancy
  Bi  Bi1       1.0  0.24200  0.47000  0.43400  1.0000
  Bi  Bi2       1.0  0.75800  0.53000  0.56600  1.0000
  O   O1        1.0  0.89000  0.67400  0.05430  1.0000
  O   O2        1.0  0.75200  0.19900  0.11800  1.0000
  O   O3        1.0  0.50300  0.48400  0.25800  1.0000
  O   O4        1.0  0.18300  0.10800  0.32800  1.0000
  O   O5        1.0  0.29500  0.78500  0.37300  1.0000
  O   O6        1.0  0.70500  0.21500  0.62700  1.0000
  O   O7        1.0  0.81700  0.89200  0.67200  1.0000
  O   O8        1.0  0.49700  0.51600  0.74200  1.0000
  O   O9        1.0  0.24800  0.80100  0.88200  1.0000
  O   O10       1.0  0.11000  0.32600  0.94600  1.0000
  Pb  Pb1       1.0  0.61800  0.81800  0.18100  1.0000
  Pb  Pb2       1.0  0.38200  0.18200  0.81900  1.0000
  V   V1        1.0  0.14800  0.83800  0.15500  1.0000
  V   V2        1.0  0.85200  0.16200  0.84500  1.0000
