data_image0
_chemical_formula_structural       AgBi6S9
_chemical_formula_sum              "Ag1 Bi6 S9"
_cell_length_a       4.06982
_cell_length_b       7.19203
_cell_length_c       15.0141
_cell_angle_alpha    98.9049
_cell_angle_beta     90
_cell_angle_gamma    106.436

_space_group_name_H-M_alt    "P 1"
_space_group_IT_number       1

loop_
  _space_group_symop_operation_xyz
  'x, y, z'

loop_
  _atom_site_type_symbol
  _atom_site_label
  _atom_site_symmetry_multiplicity
  _atom_site_fract_x
  _atom_site_fract_y
  _atom_site_fract_z
  _atom_site_occupancy
  Ag  Ag1       1.0  0.50000  0.00000  0.50000  1.0000
  Bi  Bi1       1.0  0.14800  0.29500  0.06510  1.0000
  Bi  Bi2       1.0  0.44200  0.88400  0.19100  1.0000
  Bi  Bi3       1.0  0.75000  0.49900  0.38200  1.0000
  Bi  Bi4       1.0  0.25000  0.50100  0.61800  1.0000
  Bi  Bi5       1.0  0.55800  0.11600  0.80900  1.0000
  Bi  Bi6       1.0  0.85200  0.70500  0.93500  1.0000
  S   S1        1.0  0.50000  0.00000  0.00000  1.0000
  S   S2        1.0  0.79200  0.58400  0.11600  1.0000
  S   S3        1.0  0.08050  0.16100  0.22700  1.0000
  S   S4        1.0  0.38600  0.77100  0.35300  1.0000
  S   S5        1.0  0.14300  0.28700  0.45800  1.0000
  S   S6        1.0  0.85700  0.71300  0.54200  1.0000
  S   S7        1.0  0.61400  0.22900  0.64700  1.0000
  S   S8        1.0  0.91900  0.83900  0.77300  1.0000
  S   S9        1.0  0.20800  0.41600  0.88400  1.0000
