data_image0
_chemical_formula_structural       Ho10Ni4Sb2
_chemical_formula_sum              "Ho10 Ni4 Sb2"
_cell_length_a       7.56622
_cell_length_b       7.56622
_cell_length_c       8.52001
_cell_angle_alpha    116.361
_cell_angle_beta     116.361
_cell_angle_gamma    90

_space_group_name_H-M_alt    "P 1"
_space_group_IT_number       1

loop_
  _space_group_symop_operation_xyz
  'x, y, z'

loop_
  _atom_site_type_symbol
  _atom_site_label
  _atom_site_symmetry_multiplicity
  _atom_site_fract_x
  _atom_site_fract_y
  _atom_site_fract_z
  _atom_site_occupancy
  Ho  Ho1       1.0  0.00000  0.00000  0.00000  1.0000
  Ho  Ho2       1.0  0.50000  0.50000  0.00000  1.0000
  Ho  Ho3       1.0  0.48100  0.29600  0.27700  1.0000
  Ho  Ho4       1.0  0.98100  0.48100  0.27700  1.0000
  Ho  Ho5       1.0  0.29600  0.79600  0.27700  1.0000
  Ho  Ho6       1.0  0.79600  0.98100  0.27700  1.0000
  Ho  Ho7       1.0  0.20400  0.01910  0.72300  1.0000
  Ho  Ho8       1.0  0.70400  0.20400  0.72300  1.0000
  Ho  Ho9       1.0  0.01910  0.51900  0.72300  1.0000
  Ho  Ho10      1.0  0.51900  0.70400  0.72300  1.0000
  Ni  Ni1       1.0  0.63200  0.13200  0.00000  1.0000
  Ni  Ni2       1.0  0.13200  0.36800  0.00000  1.0000
  Ni  Ni3       1.0  0.86800  0.63200  0.00000  1.0000
  Ni  Ni4       1.0  0.36800  0.86800  0.00000  1.0000
  Sb  Sb1       1.0  0.25000  0.25000  0.50000  1.0000
  Sb  Sb2       1.0  0.75000  0.75000  0.50000  1.0000
