data_image0
_chemical_formula_structural       Na6P2S8
_chemical_formula_sum              "Na6 P2 S8"
_cell_length_a       6.94658
_cell_length_b       6.94658
_cell_length_c       7.07795
_cell_angle_alpha    90
_cell_angle_beta     90
_cell_angle_gamma    90

_space_group_name_H-M_alt    "P 1"
_space_group_IT_number       1

loop_
  _space_group_symop_operation_xyz
  'x, y, z'

loop_
  _atom_site_type_symbol
  _atom_site_label
  _atom_site_symmetry_multiplicity
  _atom_site_fract_x
  _atom_site_fract_y
  _atom_site_fract_z
  _atom_site_occupancy
  Na  Na1       1.0  0.00000  0.00000  0.00000  1.0000
  Na  Na2       1.0  0.50000  0.00000  0.07920  1.0000
  Na  Na3       1.0  0.00000  0.50000  0.42100  1.0000
  Na  Na4       1.0  0.50000  0.50000  0.50000  1.0000
  Na  Na5       1.0  0.50000  0.00000  0.57900  1.0000
  Na  Na6       1.0  0.00000  0.50000  0.92100  1.0000
  P   P1        1.0  0.50000  0.50000  0.00000  1.0000
  P   P2        1.0  0.00000  0.00000  0.50000  1.0000
  S   S1        1.0  0.31000  0.34700  0.16700  1.0000
  S   S2        1.0  0.69000  0.65300  0.16700  1.0000
  S   S3        1.0  0.81000  0.15300  0.33300  1.0000
  S   S4        1.0  0.19000  0.84700  0.33300  1.0000
  S   S5        1.0  0.15300  0.19000  0.66700  1.0000
  S   S6        1.0  0.84700  0.81000  0.66700  1.0000
  S   S7        1.0  0.65300  0.31000  0.83300  1.0000
  S   S8        1.0  0.34700  0.69000  0.83300  1.0000
