data_image0
_chemical_formula_structural       Cu4S8Y4
_chemical_formula_sum              "Cu4 S8 Y4"
_cell_length_a       13.464
_cell_length_b       3.95894
_cell_length_c       6.26138
_cell_angle_alpha    90
_cell_angle_beta     90
_cell_angle_gamma    90

_space_group_name_H-M_alt    "P 1"
_space_group_IT_number       1

loop_
  _space_group_symop_operation_xyz
  'x, y, z'

loop_
  _atom_site_type_symbol
  _atom_site_label
  _atom_site_symmetry_multiplicity
  _atom_site_fract_x
  _atom_site_fract_y
  _atom_site_fract_z
  _atom_site_occupancy
  Cu  Cu1       1.0  0.95300  0.25000  0.12600  1.0000
  Cu  Cu2       1.0  0.45300  0.25000  0.37400  1.0000
  Cu  Cu3       1.0  0.54700  0.75000  0.62600  1.0000
  Cu  Cu4       1.0  0.04680  0.75000  0.87400  1.0000
  S   S1        1.0  0.29500  0.25000  0.23700  1.0000
  S   S2        1.0  0.53900  0.75000  0.24900  1.0000
  S   S3        1.0  0.03860  0.75000  0.25100  1.0000
  S   S4        1.0  0.79500  0.25000  0.26300  1.0000
  S   S5        1.0  0.20500  0.75000  0.73700  1.0000
  S   S6        1.0  0.96100  0.25000  0.74900  1.0000
  S   S7        1.0  0.46100  0.25000  0.75100  1.0000
  S   S8        1.0  0.70500  0.75000  0.76300  1.0000
  Y   Y1        1.0  0.63300  0.25000  0.00192  1.0000
  Y   Y2        1.0  0.13300  0.25000  0.49800  1.0000
  Y   Y3        1.0  0.86700  0.75000  0.50200  1.0000
  Y   Y4        1.0  0.36700  0.75000  0.99800  1.0000
