data_image0
_chemical_formula_structural       Ni2S10Ta4
_chemical_formula_sum              "Ni2 S10 Ta4"
_cell_length_a       3.41691
_cell_length_b       6.49335
_cell_length_c       15.1567
_cell_angle_alpha    90
_cell_angle_beta     90
_cell_angle_gamma    74.7454

_space_group_name_H-M_alt    "P 1"
_space_group_IT_number       1

loop_
  _space_group_symop_operation_xyz
  'x, y, z'

loop_
  _atom_site_type_symbol
  _atom_site_label
  _atom_site_symmetry_multiplicity
  _atom_site_fract_x
  _atom_site_fract_y
  _atom_site_fract_z
  _atom_site_occupancy
  Ni  Ni1       1.0  0.69800  0.60300  0.25000  1.0000
  Ni  Ni2       1.0  0.30200  0.39700  0.75000  1.0000
  S   S1        1.0  0.84900  0.30200  0.05020  1.0000
  S   S2        1.0  0.58600  0.82700  0.13600  1.0000
  S   S3        1.0  0.31600  0.36800  0.25000  1.0000
  S   S4        1.0  0.58600  0.82700  0.36400  1.0000
  S   S5        1.0  0.84900  0.30200  0.45000  1.0000
  S   S6        1.0  0.15100  0.69800  0.55000  1.0000
  S   S7        1.0  0.41400  0.17300  0.63600  1.0000
  S   S8        1.0  0.68400  0.63200  0.75000  1.0000
  S   S9        1.0  0.41400  0.17300  0.86400  1.0000
  S   S10       1.0  0.15100  0.69800  0.95000  1.0000
  Ta  Ta1       1.0  0.22100  0.55800  0.10800  1.0000
  Ta  Ta2       1.0  0.22100  0.55800  0.39200  1.0000
  Ta  Ta3       1.0  0.77900  0.44200  0.60800  1.0000
  Ta  Ta4       1.0  0.77900  0.44200  0.89200  1.0000
