data_image0
_chemical_formula_structural       Cu2Er4K2Se8
_chemical_formula_sum              "Cu2 Er4 K2 Se8"
_cell_length_a       7.26396
_cell_length_b       4.08094
_cell_length_c       14.2889
_cell_angle_alpha    90
_cell_angle_beta     90
_cell_angle_gamma    106.314

_space_group_name_H-M_alt    "P 1"
_space_group_IT_number       1

loop_
  _space_group_symop_operation_xyz
  'x, y, z'

loop_
  _atom_site_type_symbol
  _atom_site_label
  _atom_site_symmetry_multiplicity
  _atom_site_fract_x
  _atom_site_fract_y
  _atom_site_fract_z
  _atom_site_occupancy
  Cu  Cu1       1.0  0.67900  0.83900  0.25000  1.0000
  Cu  Cu2       1.0  0.32100  0.16100  0.75000  1.0000
  Er  Er1       1.0  0.73100  0.36600  0.06540  1.0000
  Er  Er2       1.0  0.73100  0.36600  0.43500  1.0000
  Er  Er3       1.0  0.26900  0.63400  0.56500  1.0000
  Er  Er4       1.0  0.26900  0.63400  0.93500  1.0000
  K   K1        1.0  0.22600  0.11300  0.25000  1.0000
  K   K2        1.0  0.77400  0.88700  0.75000  1.0000
  Se  Se1       1.0  0.00000  0.00000  0.00000  1.0000
  Se  Se2       1.0  0.46900  0.73400  0.11100  1.0000
  Se  Se3       1.0  0.87300  0.43600  0.25000  1.0000
  Se  Se4       1.0  0.46900  0.73400  0.38900  1.0000
  Se  Se5       1.0  0.00000  0.00000  0.50000  1.0000
  Se  Se6       1.0  0.53100  0.26600  0.61100  1.0000
  Se  Se7       1.0  0.12700  0.56400  0.75000  1.0000
  Se  Se8       1.0  0.53100  0.26600  0.88900  1.0000
