data_image0
_chemical_formula_structural       Br4Se4
_chemical_formula_sum              "Br4 Se4"
_cell_length_a       4.22763
_cell_length_b       4.22763
_cell_length_c       14.5877
_cell_angle_alpha    90
_cell_angle_beta     90
_cell_angle_gamma    75.1706

_space_group_name_H-M_alt    "P 1"
_space_group_IT_number       1

loop_
  _space_group_symop_operation_xyz
  'x, y, z'

loop_
  _atom_site_type_symbol
  _atom_site_label
  _atom_site_symmetry_multiplicity
  _atom_site_fract_x
  _atom_site_fract_y
  _atom_site_fract_z
  _atom_site_occupancy
  Br  Br1       1.0  0.06430  0.05820  0.16900  1.0000
  Br  Br2       1.0  0.56400  0.55800  0.33100  1.0000
  Br  Br3       1.0  0.44200  0.43600  0.66900  1.0000
  Br  Br4       1.0  0.94200  0.93600  0.83100  1.0000
  Se  Se1       1.0  0.81400  0.44500  0.05070  1.0000
  Se  Se2       1.0  0.31400  0.94500  0.44900  1.0000
  Se  Se3       1.0  0.05510  0.68600  0.55100  1.0000
  Se  Se4       1.0  0.55500  0.18600  0.94900  1.0000
