data_image0
_chemical_formula_structural       Br4N6S4V2
_chemical_formula_sum              "Br4 N6 S4 V2"
_cell_length_a       5.91362
_cell_length_b       7.99694
_cell_length_c       7.48363
_cell_angle_alpha    89.2687
_cell_angle_beta     108.546
_cell_angle_gamma    100.145

_space_group_name_H-M_alt    "P 1"
_space_group_IT_number       1

loop_
  _space_group_symop_operation_xyz
  'x, y, z'

loop_
  _atom_site_type_symbol
  _atom_site_label
  _atom_site_symmetry_multiplicity
  _atom_site_fract_x
  _atom_site_fract_y
  _atom_site_fract_z
  _atom_site_occupancy
  Br  Br1       1.0  0.67100  0.06840  0.21400  1.0000
  Br  Br2       1.0  0.26700  0.28300  0.29400  1.0000
  Br  Br3       1.0  0.73300  0.71700  0.70600  1.0000
  Br  Br4       1.0  0.32900  0.93200  0.78600  1.0000
  N   N1        1.0  0.65800  0.68700  0.10400  1.0000
  N   N2        1.0  0.07850  0.89400  0.12800  1.0000
  N   N3        1.0  0.06030  0.64200  0.35900  1.0000
  N   N4        1.0  0.94000  0.35800  0.64100  1.0000
  N   N5        1.0  0.92100  0.10600  0.87200  1.0000
  N   N6        1.0  0.34200  0.31300  0.89600  1.0000
  S   S1        1.0  0.77400  0.57300  0.27100  1.0000
  S   S2        1.0  0.22700  0.79600  0.30100  1.0000
  S   S3        1.0  0.77300  0.20400  0.69900  1.0000
  S   S4        1.0  0.22600  0.42700  0.72900  1.0000
  V   V1        1.0  0.24100  0.13600  0.00719  1.0000
  V   V2        1.0  0.75900  0.86400  0.99300  1.0000
