data_image0
_chemical_formula_structural       Sn2Te10Tl4
_chemical_formula_sum              "Sn2 Te10 Tl4"
_cell_length_a       8.43437
_cell_length_b       8.43437
_cell_length_c       9.69748
_cell_angle_alpha    115.777
_cell_angle_beta     115.777
_cell_angle_gamma    90

_space_group_name_H-M_alt    "P 1"
_space_group_IT_number       1

loop_
  _space_group_symop_operation_xyz
  'x, y, z'

loop_
  _atom_site_type_symbol
  _atom_site_label
  _atom_site_symmetry_multiplicity
  _atom_site_fract_x
  _atom_site_fract_y
  _atom_site_fract_z
  _atom_site_occupancy
  Sn  Sn1       1.0  0.75000  0.25000  0.50000  1.0000
  Sn  Sn2       1.0  0.25000  0.75000  0.50000  1.0000
  Te  Te1       1.0  0.50000  0.00000  0.00000  1.0000
  Te  Te2       1.0  0.00000  0.50000  0.00000  1.0000
  Te  Te3       1.0  0.44900  0.32100  0.26900  1.0000
  Te  Te4       1.0  0.94900  0.44900  0.26900  1.0000
  Te  Te5       1.0  0.32100  0.82100  0.26900  1.0000
  Te  Te6       1.0  0.82100  0.94900  0.26900  1.0000
  Te  Te7       1.0  0.17900  0.05130  0.73100  1.0000
  Te  Te8       1.0  0.67900  0.17900  0.73100  1.0000
  Te  Te9       1.0  0.05130  0.55100  0.73100  1.0000
  Te  Te10      1.0  0.55100  0.67900  0.73100  1.0000
  Tl  Tl1       1.0  0.00000  0.00000  0.00000  1.0000
  Tl  Tl2       1.0  0.50000  0.50000  0.00000  1.0000
  Tl  Tl3       1.0  0.25000  0.25000  0.50000  1.0000
  Tl  Tl4       1.0  0.75000  0.75000  0.50000  1.0000
