data_image0
_chemical_formula_structural       Cu2Gd4Rb2S8
_chemical_formula_sum              "Cu2 Gd4 Rb2 S8"
_cell_length_a       4.00284
_cell_length_b       7.1973
_cell_length_c       13.8586
_cell_angle_alpha    90
_cell_angle_beta     90
_cell_angle_gamma    73.8544

_space_group_name_H-M_alt    "P 1"
_space_group_IT_number       1

loop_
  _space_group_symop_operation_xyz
  'x, y, z'

loop_
  _atom_site_type_symbol
  _atom_site_label
  _atom_site_symmetry_multiplicity
  _atom_site_fract_x
  _atom_site_fract_y
  _atom_site_fract_z
  _atom_site_occupancy
  Cu  Cu1       1.0  0.16500  0.67000  0.25000  1.0000
  Cu  Cu2       1.0  0.83500  0.33000  0.75000  1.0000
  Gd  Gd1       1.0  0.63400  0.73100  0.06240  1.0000
  Gd  Gd2       1.0  0.63400  0.73100  0.43800  1.0000
  Gd  Gd3       1.0  0.36600  0.26900  0.56200  1.0000
  Gd  Gd4       1.0  0.36600  0.26900  0.93800  1.0000
  Rb  Rb1       1.0  0.89300  0.21500  0.25000  1.0000
  Rb  Rb2       1.0  0.10700  0.78500  0.75000  1.0000
  S   S1        1.0  0.00000  0.00000  0.00000  1.0000
  S   S2        1.0  0.26100  0.47900  0.11000  1.0000
  S   S3        1.0  0.57500  0.85000  0.25000  1.0000
  S   S4        1.0  0.26100  0.47900  0.39000  1.0000
  S   S5        1.0  0.00000  0.00000  0.50000  1.0000
  S   S6        1.0  0.73900  0.52100  0.61000  1.0000
  S   S7        1.0  0.42500  0.15000  0.75000  1.0000
  S   S8        1.0  0.73900  0.52100  0.89000  1.0000
