data_image0
_chemical_formula_structural       Ge2Na2O10Ta2
_chemical_formula_sum              "Ge2 Na2 O10 Ta2"
_cell_length_a       5.59833
_cell_length_b       5.59833
_cell_length_c       7.3973
_cell_angle_alpha    104.577
_cell_angle_beta     104.577
_cell_angle_gamma    105.346

_space_group_name_H-M_alt    "P 1"
_space_group_IT_number       1

loop_
  _space_group_symop_operation_xyz
  'x, y, z'

loop_
  _atom_site_type_symbol
  _atom_site_label
  _atom_site_symmetry_multiplicity
  _atom_site_fract_x
  _atom_site_fract_y
  _atom_site_fract_z
  _atom_site_occupancy
  Ge  Ge1       1.0  0.68200  0.31800  0.25000  1.0000
  Ge  Ge2       1.0  0.31800  0.68200  0.75000  1.0000
  Na  Na1       1.0  0.32800  0.67200  0.25000  1.0000
  Na  Na2       1.0  0.67200  0.32800  0.75000  1.0000
  O   O1        1.0  0.36700  0.24700  0.08320  1.0000
  O   O2        1.0  0.89700  0.30900  0.11300  1.0000
  O   O3        1.0  0.06870  0.93100  0.25000  1.0000
  O   O4        1.0  0.69100  0.10300  0.38700  1.0000
  O   O5        1.0  0.75300  0.63300  0.41700  1.0000
  O   O6        1.0  0.24700  0.36700  0.58300  1.0000
  O   O7        1.0  0.30900  0.89700  0.61300  1.0000
  O   O8        1.0  0.93100  0.06870  0.75000  1.0000
  O   O9        1.0  0.10300  0.69100  0.88700  1.0000
  O   O10       1.0  0.63300  0.75300  0.91700  1.0000
  Ta  Ta1       1.0  0.00000  0.00000  0.00000  1.0000
  Ta  Ta2       1.0  0.00000  0.00000  0.50000  1.0000
