data_image0
_chemical_formula_structural       Ba4F24Tb4
_chemical_formula_sum              "Ba4 F24 Tb4"
_cell_length_a       7.10875
_cell_length_b       8.01032
_cell_length_c       8.44954
_cell_angle_alpha    108.232
_cell_angle_beta     92.2641
_cell_angle_gamma    113.142

_space_group_name_H-M_alt    "P 1"
_space_group_IT_number       1

loop_
  _space_group_symop_operation_xyz
  'x, y, z'

loop_
  _atom_site_type_symbol
  _atom_site_label
  _atom_site_symmetry_multiplicity
  _atom_site_fract_x
  _atom_site_fract_y
  _atom_site_fract_z
  _atom_site_occupancy
  Ba  Ba1       1.0  0.69200  0.25800  0.45600  1.0000
  Ba  Ba2       1.0  0.31300  0.73300  0.54800  1.0000
  Ba  Ba3       1.0  0.25800  0.30800  0.75800  1.0000
  Ba  Ba4       1.0  0.75100  0.69500  0.24500  1.0000
  F   F1        1.0  0.98600  0.14400  0.94800  1.0000
  F   F2        1.0  0.02480  0.87400  0.04960  1.0000
  F   F3        1.0  0.10300  0.36500  0.46500  1.0000
  F   F4        1.0  0.91000  0.62100  0.53000  1.0000
  F   F5        1.0  0.49300  0.99100  0.98500  1.0000
  F   F6        1.0  0.25700  0.51200  0.16900  1.0000
  F   F7        1.0  0.72900  0.48400  0.82000  1.0000
  F   F8        1.0  0.96400  0.52700  0.03400  1.0000
  F   F9        1.0  0.13900  0.09250  0.42300  1.0000
  F   F10       1.0  0.81100  0.88700  0.57400  1.0000
  F   F11       1.0  0.48500  0.11900  0.66600  1.0000
  F   F12       1.0  0.52100  0.87400  0.33100  1.0000
  F   F13       1.0  0.52500  0.67500  0.97700  1.0000
  F   F14       1.0  0.47900  0.32500  0.02980  1.0000
  F   F15       1.0  0.53500  0.53400  0.63300  1.0000
  F   F16       1.0  0.47200  0.46100  0.36100  1.0000
  F   F17       1.0  0.37900  0.09230  0.21600  1.0000
  F   F18       1.0  0.63300  0.90700  0.78500  1.0000
  F   F19       1.0  0.14100  0.80900  0.32500  1.0000
  F   F20       1.0  0.88300  0.23300  0.69900  1.0000
  F   F21       1.0  0.85200  0.34400  0.19700  1.0000
  F   F22       1.0  0.15300  0.63200  0.80900  1.0000
  F   F23       1.0  0.17200  0.95500  0.77100  1.0000
  F   F24       1.0  0.82200  0.05130  0.20900  1.0000
  Tb  Tb1       1.0  0.15600  0.22200  0.20500  1.0000
  Tb  Tb2       1.0  0.86100  0.77400  0.78300  1.0000
  Tb  Tb3       1.0  0.28900  0.77100  0.09010  1.0000
  Tb  Tb4       1.0  0.71200  0.22900  0.91000  1.0000
