data_image0
_chemical_formula_structural       Er2F2Na2O8P2
_chemical_formula_sum              "Er2 F2 Na2 O8 P2"
_cell_length_a       5.59507
_cell_length_b       5.59507
_cell_length_c       6.41904
_cell_angle_alpha    102.872
_cell_angle_beta     77.128
_cell_angle_gamma    104.433

_space_group_name_H-M_alt    "P 1"
_space_group_IT_number       1

loop_
  _space_group_symop_operation_xyz
  'x, y, z'

loop_
  _atom_site_type_symbol
  _atom_site_label
  _atom_site_symmetry_multiplicity
  _atom_site_fract_x
  _atom_site_fract_y
  _atom_site_fract_z
  _atom_site_occupancy
  Er  Er1       1.0  0.28300  0.71700  0.11600  1.0000
  Er  Er2       1.0  0.71700  0.28300  0.88400  1.0000
  F   F1        1.0  0.51900  0.48100  0.19000  1.0000
  F   F2        1.0  0.48100  0.51900  0.81000  1.0000
  Na  Na1       1.0  0.29400  0.29400  0.50000  1.0000
  Na  Na2       1.0  0.70600  0.70600  0.50000  1.0000
  O   O1        1.0  0.62700  0.01770  0.15400  1.0000
  O   O2        1.0  0.98200  0.37300  0.15400  1.0000
  O   O3        1.0  0.02020  0.98000  0.27200  1.0000
  O   O4        1.0  0.25900  0.74100  0.48800  1.0000
  O   O5        1.0  0.74100  0.25900  0.51200  1.0000
  O   O6        1.0  0.98000  0.02020  0.72800  1.0000
  O   O7        1.0  0.01770  0.62700  0.84600  1.0000
  O   O8        1.0  0.37300  0.98200  0.84600  1.0000
  P   P1        1.0  0.84600  0.15400  0.27700  1.0000
  P   P2        1.0  0.15400  0.84600  0.72300  1.0000
