data_image0
_chemical_formula_structural       Ag2C8N6
_chemical_formula_sum              "Ag2 C8 N6"
_cell_length_a       6.19257
_cell_length_b       7.10727
_cell_length_c       7.10727
_cell_angle_alpha    89.8047
_cell_angle_beta     115.827
_cell_angle_gamma    115.827

_space_group_name_H-M_alt    "P 1"
_space_group_IT_number       1

loop_
  _space_group_symop_operation_xyz
  'x, y, z'

loop_
  _atom_site_type_symbol
  _atom_site_label
  _atom_site_symmetry_multiplicity
  _atom_site_fract_x
  _atom_site_fract_y
  _atom_site_fract_z
  _atom_site_occupancy
  Ag  Ag1       1.0  0.25400  0.40100  0.09920  1.0000
  Ag  Ag2       1.0  0.75400  0.59900  0.90100  1.0000
  C   C1        1.0  0.39900  0.93800  0.25500  1.0000
  C   C2        1.0  0.84400  0.19500  0.30500  1.0000
  C   C3        1.0  0.64900  0.12500  0.37500  1.0000
  C   C4        1.0  0.89900  0.75500  0.43800  1.0000
  C   C5        1.0  0.70600  0.24500  0.56200  1.0000
  C   C6        1.0  0.14900  0.87500  0.62500  1.0000
  C   C7        1.0  0.34400  0.80500  0.69500  1.0000
  C   C8        1.0  0.20600  0.06170  0.74500  1.0000
  N   N1        1.0  0.19400  0.77900  0.15100  1.0000
  N   N2        1.0  0.00846  0.25300  0.24700  1.0000
  N   N3        1.0  0.69400  0.65100  0.27900  1.0000
  N   N4        1.0  0.76300  0.34900  0.72100  1.0000
  N   N5        1.0  0.50800  0.74700  0.75300  1.0000
  N   N6        1.0  0.26300  0.22100  0.84900  1.0000
