data_image0
_chemical_formula_structural       Bi4Cs4S8
_chemical_formula_sum              "Bi4 Cs4 S8"
_cell_length_a       8.06705
_cell_length_b       9.55378
_cell_length_c       7.47723
_cell_angle_alpha    90
_cell_angle_beta     102.726
_cell_angle_gamma    90

_space_group_name_H-M_alt    "P 1"
_space_group_IT_number       1

loop_
  _space_group_symop_operation_xyz
  'x, y, z'

loop_
  _atom_site_type_symbol
  _atom_site_label
  _atom_site_symmetry_multiplicity
  _atom_site_fract_x
  _atom_site_fract_y
  _atom_site_fract_z
  _atom_site_occupancy
  Bi  Bi1       1.0  0.58800  0.16600  0.13900  1.0000
  Bi  Bi2       1.0  0.41200  0.66600  0.36100  1.0000
  Bi  Bi3       1.0  0.58800  0.33400  0.63900  1.0000
  Bi  Bi4       1.0  0.41200  0.83400  0.86100  1.0000
  Cs  Cs1       1.0  0.86900  0.56900  0.21100  1.0000
  Cs  Cs2       1.0  0.13100  0.06870  0.28900  1.0000
  Cs  Cs3       1.0  0.86900  0.93100  0.71100  1.0000
  Cs  Cs4       1.0  0.13100  0.43100  0.78900  1.0000
  S   S1        1.0  0.19100  0.75400  0.03970  1.0000
  S   S2        1.0  0.67000  0.90800  0.19500  1.0000
  S   S3        1.0  0.33000  0.40800  0.30500  1.0000
  S   S4        1.0  0.80900  0.25400  0.46000  1.0000
  S   S5        1.0  0.19100  0.74600  0.54000  1.0000
  S   S6        1.0  0.67000  0.59200  0.69500  1.0000
  S   S7        1.0  0.33000  0.09200  0.80500  1.0000
  S   S8        1.0  0.80900  0.24600  0.96000  1.0000
