data_image0
_chemical_formula_structural       Cs4Na2O8V2
_chemical_formula_sum              "Cs4 Na2 O8 V2"
_cell_length_a       8.2934
_cell_length_b       6.14697
_cell_length_c       6.05448
_cell_angle_alpha    90
_cell_angle_beta     92.5751
_cell_angle_gamma    90

_space_group_name_H-M_alt    "P 1"
_space_group_IT_number       1

loop_
  _space_group_symop_operation_xyz
  'x, y, z'

loop_
  _atom_site_type_symbol
  _atom_site_label
  _atom_site_symmetry_multiplicity
  _atom_site_fract_x
  _atom_site_fract_y
  _atom_site_fract_z
  _atom_site_occupancy
  Cs  Cs1       1.0  0.49300  0.75000  0.20000  1.0000
  Cs  Cs2       1.0  0.81600  0.25000  0.34400  1.0000
  Cs  Cs3       1.0  0.18400  0.75000  0.65600  1.0000
  Cs  Cs4       1.0  0.50700  0.25000  0.80000  1.0000
  Na  Na1       1.0  0.97500  0.75000  0.13100  1.0000
  Na  Na2       1.0  0.02490  0.25000  0.86900  1.0000
  O   O1        1.0  0.17000  0.02160  0.14700  1.0000
  O   O2        1.0  0.17000  0.47800  0.14700  1.0000
  O   O3        1.0  0.45200  0.25000  0.30100  1.0000
  O   O4        1.0  0.82500  0.75000  0.44100  1.0000
  O   O5        1.0  0.17500  0.25000  0.55900  1.0000
  O   O6        1.0  0.54800  0.75000  0.69900  1.0000
  O   O7        1.0  0.83000  0.52200  0.85300  1.0000
  O   O8        1.0  0.83000  0.97800  0.85300  1.0000
  V   V1        1.0  0.24200  0.25000  0.29000  1.0000
  V   V2        1.0  0.75800  0.75000  0.71000  1.0000
