data_image0
_chemical_formula_structural       Ge2Li2O10Ta2
_chemical_formula_sum              "Ge2 Li2 O10 Ta2"
_cell_length_a       5.54973
_cell_length_b       5.54973
_cell_length_c       7.48813
_cell_angle_alpha    109.619
_cell_angle_beta     109.619
_cell_angle_gamma    93.7219

_space_group_name_H-M_alt    "P 1"
_space_group_IT_number       1

loop_
  _space_group_symop_operation_xyz
  'x, y, z'

loop_
  _atom_site_type_symbol
  _atom_site_label
  _atom_site_symmetry_multiplicity
  _atom_site_fract_x
  _atom_site_fract_y
  _atom_site_fract_z
  _atom_site_occupancy
  Ge  Ge1       1.0  0.63800  0.36200  0.25000  1.0000
  Ge  Ge2       1.0  0.36200  0.63800  0.75000  1.0000
  Li  Li1       1.0  0.30700  0.69300  0.25000  1.0000
  Li  Li2       1.0  0.69300  0.30700  0.75000  1.0000
  O   O1        1.0  0.75900  0.23900  0.05510  1.0000
  O   O2        1.0  0.29500  0.30700  0.15000  1.0000
  O   O3        1.0  0.06750  0.93200  0.25000  1.0000
  O   O4        1.0  0.69300  0.70500  0.35000  1.0000
  O   O5        1.0  0.76100  0.24100  0.44500  1.0000
  O   O6        1.0  0.23900  0.75900  0.55500  1.0000
  O   O7        1.0  0.30700  0.29500  0.65000  1.0000
  O   O8        1.0  0.93200  0.06750  0.75000  1.0000
  O   O9        1.0  0.70500  0.69300  0.85000  1.0000
  O   O10       1.0  0.24100  0.76100  0.94500  1.0000
  Ta  Ta1       1.0  0.00000  0.00000  0.00000  1.0000
  Ta  Ta2       1.0  0.00000  0.00000  0.50000  1.0000
