data_image0
_chemical_formula_structural       F10Pd4Rb2
_chemical_formula_sum              "F10 Pd4 Rb2"
_cell_length_a       6.1313
_cell_length_b       7.19511
_cell_length_c       7.19511
_cell_angle_alpha    93.9615
_cell_angle_beta     115.219
_cell_angle_gamma    115.219

_space_group_name_H-M_alt    "P 1"
_space_group_IT_number       1

loop_
  _space_group_symop_operation_xyz
  'x, y, z'

loop_
  _atom_site_type_symbol
  _atom_site_label
  _atom_site_symmetry_multiplicity
  _atom_site_fract_x
  _atom_site_fract_y
  _atom_site_fract_z
  _atom_site_occupancy
  F   F1        1.0  0.25000  0.33800  0.16200  1.0000
  F   F2        1.0  0.34000  0.94800  0.18300  1.0000
  F   F3        1.0  0.79100  0.94800  0.18300  1.0000
  F   F4        1.0  0.29100  0.68300  0.44800  1.0000
  F   F5        1.0  0.84000  0.68300  0.44800  1.0000
  F   F6        1.0  0.16000  0.31700  0.55200  1.0000
  F   F7        1.0  0.70900  0.31700  0.55200  1.0000
  F   F8        1.0  0.20900  0.05240  0.81700  1.0000
  F   F9        1.0  0.66000  0.05240  0.81700  1.0000
  F   F10       1.0  0.75000  0.66200  0.83800  1.0000
  Pd  Pd1       1.0  0.00000  0.00000  0.00000  1.0000
  Pd  Pd2       1.0  0.00000  0.00000  0.50000  1.0000
  Pd  Pd3       1.0  0.50000  0.00000  0.50000  1.0000
  Pd  Pd4       1.0  0.50000  0.50000  0.50000  1.0000
  Rb  Rb1       1.0  0.75000  0.35900  0.14100  1.0000
  Rb  Rb2       1.0  0.25000  0.64100  0.85900  1.0000
