data_image0
_chemical_formula_structural       Cu2K2S8Y4
_chemical_formula_sum              "Cu2 K2 S8 Y4"
_cell_length_a       3.95038
_cell_length_b       7.01553
_cell_length_c       13.7406
_cell_angle_alpha    90
_cell_angle_beta     90
_cell_angle_gamma    73.6475

_space_group_name_H-M_alt    "P 1"
_space_group_IT_number       1

loop_
  _space_group_symop_operation_xyz
  'x, y, z'

loop_
  _atom_site_type_symbol
  _atom_site_label
  _atom_site_symmetry_multiplicity
  _atom_site_fract_x
  _atom_site_fract_y
  _atom_site_fract_z
  _atom_site_occupancy
  Cu  Cu1       1.0  0.16300  0.67500  0.25000  1.0000
  Cu  Cu2       1.0  0.83700  0.32500  0.75000  1.0000
  K   K1        1.0  0.89000  0.22000  0.25000  1.0000
  K   K2        1.0  0.11000  0.78000  0.75000  1.0000
  S   S1        1.0  0.00000  0.00000  0.00000  1.0000
  S   S2        1.0  0.26400  0.47200  0.11200  1.0000
  S   S3        1.0  0.56800  0.86400  0.25000  1.0000
  S   S4        1.0  0.26400  0.47200  0.38800  1.0000
  S   S5        1.0  0.00000  0.00000  0.50000  1.0000
  S   S6        1.0  0.73600  0.52800  0.61200  1.0000
  S   S7        1.0  0.43200  0.13600  0.75000  1.0000
  S   S8        1.0  0.73600  0.52800  0.88800  1.0000
  Y   Y1        1.0  0.63400  0.73100  0.06330  1.0000
  Y   Y2        1.0  0.63400  0.73100  0.43700  1.0000
  Y   Y3        1.0  0.36600  0.26900  0.56300  1.0000
  Y   Y4        1.0  0.36600  0.26900  0.93700  1.0000
