data_image0
_chemical_formula_structural       Cs4Li2Mn2O8
_chemical_formula_sum              "Cs4 Li2 Mn2 O8"
_cell_length_a       5.97542
_cell_length_b       6.66934
_cell_length_c       8.14297
_cell_angle_alpha    90
_cell_angle_beta     90
_cell_angle_gamma    63.386

_space_group_name_H-M_alt    "P 1"
_space_group_IT_number       1

loop_
  _space_group_symop_operation_xyz
  'x, y, z'

loop_
  _atom_site_type_symbol
  _atom_site_label
  _atom_site_symmetry_multiplicity
  _atom_site_fract_x
  _atom_site_fract_y
  _atom_site_fract_z
  _atom_site_occupancy
  Cs  Cs1       1.0  0.60600  0.78800  0.04860  1.0000
  Cs  Cs2       1.0  0.06870  0.86300  0.40500  1.0000
  Cs  Cs3       1.0  0.39400  0.21200  0.54900  1.0000
  Cs  Cs4       1.0  0.93100  0.13700  0.90500  1.0000
  Li  Li1       1.0  0.79200  0.41700  0.32700  1.0000
  Li  Li2       1.0  0.20800  0.58300  0.82700  1.0000
  Mn  Mn1       1.0  0.30400  0.39200  0.10900  1.0000
  Mn  Mn2       1.0  0.69600  0.60800  0.60900  1.0000
  O   O1        1.0  0.16200  0.67500  0.06160  1.0000
  O   O2        1.0  0.10500  0.31700  0.21300  1.0000
  O   O3        1.0  0.57900  0.31700  0.21300  1.0000
  O   O4        1.0  0.63600  0.72800  0.41600  1.0000
  O   O5        1.0  0.83800  0.32500  0.56200  1.0000
  O   O6        1.0  0.42100  0.68300  0.71300  1.0000
  O   O7        1.0  0.89500  0.68300  0.71300  1.0000
  O   O8        1.0  0.36400  0.27200  0.91600  1.0000
