data_image0
_chemical_formula_structural       Cu2K4Se8Ta2
_chemical_formula_sum              "Cu2 K4 Se8 Ta2"
_cell_length_a       5.78015
_cell_length_b       7.38168
_cell_length_c       12.4024
_cell_angle_alpha    95.2346
_cell_angle_beta     103.475
_cell_angle_gamma    66.9509

_space_group_name_H-M_alt    "P 1"
_space_group_IT_number       1

loop_
  _space_group_symop_operation_xyz
  'x, y, z'

loop_
  _atom_site_type_symbol
  _atom_site_label
  _atom_site_symmetry_multiplicity
  _atom_site_fract_x
  _atom_site_fract_y
  _atom_site_fract_z
  _atom_site_occupancy
  Cu  Cu1       1.0  0.37500  0.75000  0.25000  1.0000
  Cu  Cu2       1.0  0.62500  0.25000  0.75000  1.0000
  K   K1        1.0  0.30500  0.25000  0.10900  1.0000
  K   K2        1.0  0.94500  0.25000  0.39100  1.0000
  K   K3        1.0  0.05460  0.75000  0.60900  1.0000
  K   K4        1.0  0.69500  0.75000  0.89100  1.0000
  Se  Se1       1.0  0.67900  0.54200  0.13500  1.0000
  Se  Se2       1.0  0.95600  0.95800  0.13500  1.0000
  Se  Se3       1.0  0.27800  0.54200  0.36500  1.0000
  Se  Se4       1.0  0.58700  0.95800  0.36500  1.0000
  Se  Se5       1.0  0.41300  0.04250  0.63500  1.0000
  Se  Se6       1.0  0.72200  0.45800  0.63500  1.0000
  Se  Se7       1.0  0.04450  0.04250  0.86500  1.0000
  Se  Se8       1.0  0.32100  0.45800  0.86500  1.0000
  Ta  Ta1       1.0  0.87500  0.75000  0.25000  1.0000
  Ta  Ta2       1.0  0.12500  0.25000  0.75000  1.0000
