data_image0
_chemical_formula_structural       Si6W10
_chemical_formula_sum              "Si6 W10"
_cell_length_a       4.97965
_cell_length_b       7.28008
_cell_length_c       7.28008
_cell_angle_alpha    96.7171
_cell_angle_beta     109.999
_cell_angle_gamma    70.0009

_space_group_name_H-M_alt    "P 1"
_space_group_IT_number       1

loop_
  _space_group_symop_operation_xyz
  'x, y, z'

loop_
  _atom_site_type_symbol
  _atom_site_label
  _atom_site_symmetry_multiplicity
  _atom_site_fract_x
  _atom_site_fract_y
  _atom_site_fract_z
  _atom_site_occupancy
  Si  Si1       1.0  0.25000  0.00000  0.00000  1.0000
  Si  Si2       1.0  0.75000  0.00000  0.00000  1.0000
  Si  Si3       1.0  0.33200  0.50000  0.16400  1.0000
  Si  Si4       1.0  0.83200  0.83600  0.50000  1.0000
  Si  Si5       1.0  0.16800  0.16400  0.50000  1.0000
  Si  Si6       1.0  0.66800  0.50000  0.83600  1.0000
  W   W1        1.0  0.92500  0.29900  0.14900  1.0000
  W   W2        1.0  0.72400  0.70100  0.14900  1.0000
  W   W3        1.0  0.57500  0.14900  0.29900  1.0000
  W   W4        1.0  0.22400  0.85100  0.29900  1.0000
  W   W5        1.0  0.25000  0.50000  0.50000  1.0000
  W   W6        1.0  0.75000  0.50000  0.50000  1.0000
  W   W7        1.0  0.77600  0.14900  0.70100  1.0000
  W   W8        1.0  0.42500  0.85100  0.70100  1.0000
  W   W9        1.0  0.07520  0.70100  0.85100  1.0000
  W   W10       1.0  0.27600  0.29900  0.85100  1.0000
