data_image0
_chemical_formula_structural       Ge6Tb10
_chemical_formula_sum              "Ge6 Tb10"
_cell_length_a       8.55087
_cell_length_b       8.55087
_cell_length_c       6.46034
_cell_angle_alpha    90
_cell_angle_beta     90
_cell_angle_gamma    120

_space_group_name_H-M_alt    "P 1"
_space_group_IT_number       1

loop_
  _space_group_symop_operation_xyz
  'x, y, z'

loop_
  _atom_site_type_symbol
  _atom_site_label
  _atom_site_symmetry_multiplicity
  _atom_site_fract_x
  _atom_site_fract_y
  _atom_site_fract_z
  _atom_site_occupancy
  Ge  Ge1       1.0  0.60600  0.00000  0.25000  1.0000
  Ge  Ge2       1.0  0.00000  0.60600  0.25000  1.0000
  Ge  Ge3       1.0  0.39400  0.39400  0.25000  1.0000
  Ge  Ge4       1.0  0.39400  0.00000  0.75000  1.0000
  Ge  Ge5       1.0  0.00000  0.39400  0.75000  1.0000
  Ge  Ge6       1.0  0.60600  0.60600  0.75000  1.0000
  Tb  Tb1       1.0  0.66700  0.33300  0.00000  1.0000
  Tb  Tb2       1.0  0.33300  0.66700  0.00000  1.0000
  Tb  Tb3       1.0  0.75800  0.75800  0.25000  1.0000
  Tb  Tb4       1.0  0.24200  1.00000  0.25000  1.0000
  Tb  Tb5       1.0  0.00000  0.24200  0.25000  1.0000
  Tb  Tb6       1.0  0.66700  0.33300  0.50000  1.0000
  Tb  Tb7       1.0  0.33300  0.66700  0.50000  1.0000
  Tb  Tb8       1.0  0.24200  0.24200  0.75000  1.0000
  Tb  Tb9       1.0  0.75800  0.00000  0.75000  1.0000
  Tb  Tb10      1.0  0.00000  0.75800  0.75000  1.0000
