data_image0
_chemical_formula_structural       Cu4K2Nb2Se8
_chemical_formula_sum              "Cu4 K2 Nb2 Se8"
_cell_length_a       9.87949
_cell_length_b       5.70259
_cell_length_c       7.69522
_cell_angle_alpha    90
_cell_angle_beta     90
_cell_angle_gamma    106.775

_space_group_name_H-M_alt    "P 1"
_space_group_IT_number       1

loop_
  _space_group_symop_operation_xyz
  'x, y, z'

loop_
  _atom_site_type_symbol
  _atom_site_label
  _atom_site_symmetry_multiplicity
  _atom_site_fract_x
  _atom_site_fract_y
  _atom_site_fract_z
  _atom_site_occupancy
  Cu  Cu1       1.0  0.00000  0.52100  0.00000  1.0000
  Cu  Cu2       1.0  0.78400  0.89200  0.25000  1.0000
  Cu  Cu3       1.0  0.00000  0.52100  0.50000  1.0000
  Cu  Cu4       1.0  0.21600  0.10800  0.75000  1.0000
  K   K1        1.0  0.36600  0.43700  0.25000  1.0000
  K   K2        1.0  0.63400  0.07080  0.75000  1.0000
  Nb  Nb1       1.0  0.77800  0.39000  0.25000  1.0000
  Nb  Nb2       1.0  0.22200  0.61100  0.75000  1.0000
  Se  Se1       1.0  0.21800  0.85900  0.00857  1.0000
  Se  Se2       1.0  0.57200  0.03460  0.25000  1.0000
  Se  Se3       1.0  0.99300  0.25000  0.25000  1.0000
  Se  Se4       1.0  0.21800  0.85900  0.49100  1.0000
  Se  Se5       1.0  0.78200  0.64100  0.50900  1.0000
  Se  Se6       1.0  0.00652  0.25600  0.75000  1.0000
  Se  Se7       1.0  0.42800  0.46300  0.75000  1.0000
  Se  Se8       1.0  0.78200  0.64100  0.99100  1.0000
