data_image0
_chemical_formula_structural       Fe2O10Ti4
_chemical_formula_sum              "Fe2 O10 Ti4"
_cell_length_a       3.75353
_cell_length_b       5.2499
_cell_length_c       10.0871
_cell_angle_alpha    90
_cell_angle_beta     90
_cell_angle_gamma    69.0541

_space_group_name_H-M_alt    "P 1"
_space_group_IT_number       1

loop_
  _space_group_symop_operation_xyz
  'x, y, z'

loop_
  _atom_site_type_symbol
  _atom_site_label
  _atom_site_symmetry_multiplicity
  _atom_site_fract_x
  _atom_site_fract_y
  _atom_site_fract_z
  _atom_site_occupancy
  Fe  Fe1       1.0  0.80600  0.38800  0.25000  1.0000
  Fe  Fe2       1.0  0.19400  0.61200  0.75000  1.0000
  O   O1        1.0  0.68600  0.62800  0.05820  1.0000
  O   O2        1.0  0.95300  0.09340  0.11300  1.0000
  O   O3        1.0  0.20700  0.58500  0.25000  1.0000
  O   O4        1.0  0.95300  0.09340  0.38700  1.0000
  O   O5        1.0  0.68600  0.62800  0.44200  1.0000
  O   O6        1.0  0.31400  0.37200  0.55800  1.0000
  O   O7        1.0  0.04670  0.90700  0.61300  1.0000
  O   O8        1.0  0.79300  0.41500  0.75000  1.0000
  O   O9        1.0  0.04670  0.90700  0.88700  1.0000
  O   O10       1.0  0.31400  0.37200  0.94200  1.0000
  Ti  Ti1       1.0  0.13500  0.73100  0.06570  1.0000
  Ti  Ti2       1.0  0.13500  0.73100  0.43400  1.0000
  Ti  Ti3       1.0  0.86500  0.26900  0.56600  1.0000
  Ti  Ti4       1.0  0.86500  0.26900  0.93400  1.0000
