data_image0
_chemical_formula_structural       C8U4W4
_chemical_formula_sum              "C8 U4 W4"
_cell_length_a       5.63216
_cell_length_b       3.22378
_cell_length_c       11.0662
_cell_angle_alpha    90
_cell_angle_beta     90
_cell_angle_gamma    90

_space_group_name_H-M_alt    "P 1"
_space_group_IT_number       1

loop_
  _space_group_symop_operation_xyz
  'x, y, z'

loop_
  _atom_site_type_symbol
  _atom_site_label
  _atom_site_symmetry_multiplicity
  _atom_site_fract_x
  _atom_site_fract_y
  _atom_site_fract_z
  _atom_site_occupancy
  C   C1        1.0  0.75000  0.25000  0.00734  1.0000
  C   C2        1.0  0.83700  0.75000  0.24500  1.0000
  C   C3        1.0  0.33700  0.75000  0.25500  1.0000
  C   C4        1.0  0.25000  0.25000  0.49300  1.0000
  C   C5        1.0  0.75000  0.75000  0.50700  1.0000
  C   C6        1.0  0.66300  0.25000  0.74500  1.0000
  C   C7        1.0  0.16300  0.25000  0.75500  1.0000
  C   C8        1.0  0.25000  0.75000  0.99300  1.0000
  U   U1        1.0  0.08010  0.25000  0.14200  1.0000
  U   U2        1.0  0.58000  0.25000  0.35800  1.0000
  U   U3        1.0  0.42000  0.75000  0.64200  1.0000
  U   U4        1.0  0.92000  0.75000  0.85800  1.0000
  W   W1        1.0  0.58000  0.75000  0.10200  1.0000
  W   W2        1.0  0.07950  0.75000  0.39800  1.0000
  W   W3        1.0  0.92000  0.25000  0.60200  1.0000
  W   W4        1.0  0.42000  0.25000  0.89800  1.0000
