data_image0
_chemical_formula_structural       Bi12Ni4
_chemical_formula_sum              "Bi12 Ni4"
_cell_length_a       8.94126
_cell_length_b       4.15445
_cell_length_c       11.4821
_cell_angle_alpha    90
_cell_angle_beta     90
_cell_angle_gamma    90

_space_group_name_H-M_alt    "P 1"
_space_group_IT_number       1

loop_
  _space_group_symop_operation_xyz
  'x, y, z'

loop_
  _atom_site_type_symbol
  _atom_site_label
  _atom_site_symmetry_multiplicity
  _atom_site_fract_x
  _atom_site_fract_y
  _atom_site_fract_z
  _atom_site_occupancy
  Bi  Bi1       1.0  0.11900  0.75000  0.08920  1.0000
  Bi  Bi2       1.0  0.70100  0.75000  0.11000  1.0000
  Bi  Bi3       1.0  0.41200  0.25000  0.17800  1.0000
  Bi  Bi4       1.0  0.91200  0.25000  0.32200  1.0000
  Bi  Bi5       1.0  0.20100  0.75000  0.39000  1.0000
  Bi  Bi6       1.0  0.61900  0.75000  0.41100  1.0000
  Bi  Bi7       1.0  0.38100  0.25000  0.58900  1.0000
  Bi  Bi8       1.0  0.79900  0.25000  0.61000  1.0000
  Bi  Bi9       1.0  0.08820  0.75000  0.67800  1.0000
  Bi  Bi10      1.0  0.58800  0.75000  0.82200  1.0000
  Bi  Bi11      1.0  0.29900  0.25000  0.89000  1.0000
  Bi  Bi12      1.0  0.88100  0.25000  0.91100  1.0000
  Ni  Ni1       1.0  0.41100  0.75000  0.01930  1.0000
  Ni  Ni2       1.0  0.91100  0.75000  0.48100  1.0000
  Ni  Ni3       1.0  0.08870  0.25000  0.51900  1.0000
  Ni  Ni4       1.0  0.58900  0.25000  0.98100  1.0000
