data_image0
_chemical_formula_structural       Cu2Mn2O6S2Sr4
_chemical_formula_sum              "Cu2 Mn2 O6 S2 Sr4"
_cell_length_a       3.86571
_cell_length_b       3.86571
_cell_length_c       15.8324
_cell_angle_alpha    90
_cell_angle_beta     90
_cell_angle_gamma    90

_space_group_name_H-M_alt    "P 1"
_space_group_IT_number       1

loop_
  _space_group_symop_operation_xyz
  'x, y, z'

loop_
  _atom_site_type_symbol
  _atom_site_label
  _atom_site_symmetry_multiplicity
  _atom_site_fract_x
  _atom_site_fract_y
  _atom_site_fract_z
  _atom_site_occupancy
  Cu  Cu1       1.0  0.75000  0.25000  0.00000  1.0000
  Cu  Cu2       1.0  0.25000  0.75000  0.00000  1.0000
  Mn  Mn1       1.0  0.25000  0.25000  0.30400  1.0000
  Mn  Mn2       1.0  0.75000  0.75000  0.69600  1.0000
  O   O1        1.0  0.75000  0.25000  0.28500  1.0000
  O   O2        1.0  0.25000  0.75000  0.28500  1.0000
  O   O3        1.0  0.25000  0.25000  0.43100  1.0000
  O   O4        1.0  0.75000  0.75000  0.56900  1.0000
  O   O5        1.0  0.75000  0.25000  0.71500  1.0000
  O   O6        1.0  0.25000  0.75000  0.71500  1.0000
  S   S1        1.0  0.25000  0.25000  0.08890  1.0000
  S   S2        1.0  0.75000  0.75000  0.91100  1.0000
  Sr  Sr1       1.0  0.75000  0.75000  0.18200  1.0000
  Sr  Sr2       1.0  0.75000  0.75000  0.41600  1.0000
  Sr  Sr3       1.0  0.25000  0.25000  0.58400  1.0000
  Sr  Sr4       1.0  0.25000  0.25000  0.81800  1.0000
