data_image0
_chemical_formula_structural       Ba3Dy4O9
_chemical_formula_sum              "Ba3 Dy4 O9"
_cell_length_a       6.10036
_cell_length_b       6.10036
_cell_length_c       9.15757
_cell_angle_alpha    70.5443
_cell_angle_beta     90
_cell_angle_gamma    120

_space_group_name_H-M_alt    "P 1"
_space_group_IT_number       1

loop_
  _space_group_symop_operation_xyz
  'x, y, z'

loop_
  _atom_site_type_symbol
  _atom_site_label
  _atom_site_symmetry_multiplicity
  _atom_site_fract_x
  _atom_site_fract_y
  _atom_site_fract_z
  _atom_site_occupancy
  Ba  Ba1       1.0  0.00189  0.00377  0.99400  1.0000
  Ba  Ba2       1.0  0.83700  0.67400  0.48800  1.0000
  Ba  Ba3       1.0  0.42500  0.85000  0.72600  1.0000
  Dy  Dy1       1.0  0.26300  0.52600  0.21200  1.0000
  Dy  Dy2       1.0  0.57600  0.15200  0.27200  1.0000
  Dy  Dy3       1.0  0.13700  0.27400  0.58900  1.0000
  Dy  Dy4       1.0  0.70100  0.40200  0.89600  1.0000
  O   O1        1.0  0.41700  0.37600  0.07650  1.0000
  O   O2        1.0  0.95900  0.50700  0.07650  1.0000
  O   O3        1.0  0.54700  0.96400  0.07650  1.0000
  O   O4        1.0  0.29600  0.16900  0.41400  1.0000
  O   O5        1.0  0.87400  0.29000  0.41400  1.0000
  O   O6        1.0  0.41700  0.71300  0.41400  1.0000
  O   O7        1.0  0.42000  0.27400  0.74300  1.0000
  O   O8        1.0  0.98300  0.40300  0.74300  1.0000
  O   O9        1.0  0.85400  0.83700  0.74300  1.0000
