data_image0
_chemical_formula_structural       Fe4O10P2
_chemical_formula_sum              "Fe4 O10 P2"
_cell_length_a       5.36069
_cell_length_b       5.36069
_cell_length_c       7.25726
_cell_angle_alpha    111.511
_cell_angle_beta     68.4886
_cell_angle_gamma    90.0278

_space_group_name_H-M_alt    "P 1"
_space_group_IT_number       1

loop_
  _space_group_symop_operation_xyz
  'x, y, z'

loop_
  _atom_site_type_symbol
  _atom_site_label
  _atom_site_symmetry_multiplicity
  _atom_site_fract_x
  _atom_site_fract_y
  _atom_site_fract_z
  _atom_site_occupancy
  Fe  Fe1       1.0  0.50000  0.00000  1.00000  1.0000
  Fe  Fe2       1.0  0.50000  0.50000  0.00000  1.0000
  Fe  Fe3       1.0  0.50000  0.00000  0.50000  1.0000
  Fe  Fe4       1.0  0.00000  0.00000  0.50000  1.0000
  O   O1        1.0  0.71600  0.29500  0.10300  1.0000
  O   O2        1.0  0.18300  0.30500  0.12300  1.0000
  O   O3        1.0  0.38700  0.88700  0.25000  1.0000
  O   O4        1.0  0.80500  0.68300  0.37700  1.0000
  O   O5        1.0  0.79500  0.21600  0.39700  1.0000
  O   O6        1.0  0.20500  0.78400  0.60300  1.0000
  O   O7        1.0  0.19500  0.31700  0.62300  1.0000
  O   O8        1.0  0.61300  0.11300  0.75000  1.0000
  O   O9        1.0  0.81700  0.69500  0.87700  1.0000
  O   O10       1.0  0.28400  0.70500  0.89700  1.0000
  P   P1        1.0  0.87400  0.37400  0.25000  1.0000
  P   P2        1.0  0.12600  0.62600  0.75000  1.0000
