data_image0
_chemical_formula_structural       K2P2S10Ti2
_chemical_formula_sum              "K2 P2 S10 Ti2"
_cell_length_a       6.46878
_cell_length_b       7.12009
_cell_length_c       9.59252
_cell_angle_alpha    111.785
_cell_angle_beta     97.7576
_cell_angle_gamma    90

_space_group_name_H-M_alt    "P 1"
_space_group_IT_number       1

loop_
  _space_group_symop_operation_xyz
  'x, y, z'

loop_
  _atom_site_type_symbol
  _atom_site_label
  _atom_site_symmetry_multiplicity
  _atom_site_fract_x
  _atom_site_fract_y
  _atom_site_fract_z
  _atom_site_occupancy
  K   K1        1.0  0.73500  0.23100  0.46200  1.0000
  K   K2        1.0  0.26500  0.76900  0.53800  1.0000
  P   P1        1.0  0.71000  0.63300  0.26500  1.0000
  P   P2        1.0  0.29000  0.36700  0.73500  1.0000
  S   S1        1.0  0.32700  0.06090  0.12200  1.0000
  S   S2        1.0  0.39600  0.58500  0.16900  1.0000
  S   S3        1.0  0.82800  0.35200  0.17000  1.0000
  S   S4        1.0  0.82800  0.81800  0.17000  1.0000
  S   S5        1.0  0.75500  0.74600  0.49200  1.0000
  S   S6        1.0  0.24500  0.25400  0.50800  1.0000
  S   S7        1.0  0.17200  0.18200  0.83000  1.0000
  S   S8        1.0  0.17200  0.64800  0.83000  1.0000
  S   S9        1.0  0.60400  0.41500  0.83100  1.0000
  S   S10       1.0  0.67300  0.93900  0.87800  1.0000
  Ti  Ti1       1.0  0.50000  0.22300  0.00000  1.0000
  Ti  Ti2       1.0  0.50000  0.77700  0.00000  1.0000
