data_image0
_chemical_formula_structural       Au4Na4Se8
_chemical_formula_sum              "Au4 Na4 Se8"
_cell_length_a       7.07987
_cell_length_b       8.46414
_cell_length_c       6.81422
_cell_angle_alpha    90
_cell_angle_beta     105.44
_cell_angle_gamma    90

_space_group_name_H-M_alt    "P 1"
_space_group_IT_number       1

loop_
  _space_group_symop_operation_xyz
  'x, y, z'

loop_
  _atom_site_type_symbol
  _atom_site_label
  _atom_site_symmetry_multiplicity
  _atom_site_fract_x
  _atom_site_fract_y
  _atom_site_fract_z
  _atom_site_occupancy
  Au  Au1       1.0  0.21800  0.63100  0.00876  1.0000
  Au  Au2       1.0  0.78200  0.13100  0.49100  1.0000
  Au  Au3       1.0  0.21800  0.86900  0.50900  1.0000
  Au  Au4       1.0  0.78200  0.36900  0.99100  1.0000
  Na  Na1       1.0  0.72900  0.86800  0.01360  1.0000
  Na  Na2       1.0  0.27100  0.36800  0.48600  1.0000
  Na  Na3       1.0  0.72900  0.63200  0.51400  1.0000
  Na  Na4       1.0  0.27100  0.13200  0.98600  1.0000
  Se  Se1       1.0  0.98200  0.57700  0.21500  1.0000
  Se  Se2       1.0  0.58500  0.33400  0.25000  1.0000
  Se  Se3       1.0  0.41500  0.83400  0.25000  1.0000
  Se  Se4       1.0  0.01820  0.07710  0.28500  1.0000
  Se  Se5       1.0  0.98200  0.92300  0.71500  1.0000
  Se  Se6       1.0  0.58500  0.16600  0.75000  1.0000
  Se  Se7       1.0  0.41500  0.66600  0.75000  1.0000
  Se  Se8       1.0  0.01820  0.42300  0.78500  1.0000
