data_image0
_chemical_formula_structural       Ba2C2F4Mn2O6
_chemical_formula_sum              "Ba2 C2 F4 Mn2 O6"
_cell_length_a       4.88136
_cell_length_b       4.88161
_cell_length_c       9.72232
_cell_angle_alpha    90
_cell_angle_beta     90
_cell_angle_gamma    120

_space_group_name_H-M_alt    "P 1"
_space_group_IT_number       1

loop_
  _space_group_symop_operation_xyz
  'x, y, z'

loop_
  _atom_site_type_symbol
  _atom_site_label
  _atom_site_symmetry_multiplicity
  _atom_site_fract_x
  _atom_site_fract_y
  _atom_site_fract_z
  _atom_site_occupancy
  Ba  Ba1       1.0  0.00000  0.00000  0.00000  1.0000
  Ba  Ba2       1.0  0.00000  0.00000  0.50000  1.0000
  C   C1        1.0  0.66700  0.33300  0.25000  1.0000
  C   C2        1.0  0.33300  0.66700  0.75000  1.0000
  F   F1        1.0  0.33300  0.66700  0.03910  1.0000
  F   F2        1.0  0.33300  0.66700  0.46100  1.0000
  F   F3        1.0  0.66700  0.33300  0.53900  1.0000
  F   F4        1.0  0.66700  0.33300  0.96100  1.0000
  Mn  Mn1       1.0  0.33300  0.66700  0.25000  1.0000
  Mn  Mn2       1.0  0.66700  0.33300  0.75000  1.0000
  O   O1        1.0  0.76200  0.13000  0.25000  1.0000
  O   O2        1.0  0.36800  0.23700  0.25000  1.0000
  O   O3        1.0  0.87000  0.63200  0.25000  1.0000
  O   O4        1.0  0.13000  0.36800  0.75000  1.0000
  O   O5        1.0  0.63200  0.76300  0.75000  1.0000
  O   O6        1.0  0.23800  0.87000  0.75000  1.0000
