data_image0
_chemical_formula_structural       Dy10Ni4Sb2
_chemical_formula_sum              "Dy10 Ni4 Sb2"
_cell_length_a       7.6434
_cell_length_b       7.6434
_cell_length_c       8.56736
_cell_angle_alpha    116.492
_cell_angle_beta     116.492
_cell_angle_gamma    90

_space_group_name_H-M_alt    "P 1"
_space_group_IT_number       1

loop_
  _space_group_symop_operation_xyz
  'x, y, z'

loop_
  _atom_site_type_symbol
  _atom_site_label
  _atom_site_symmetry_multiplicity
  _atom_site_fract_x
  _atom_site_fract_y
  _atom_site_fract_z
  _atom_site_occupancy
  Dy  Dy1       1.0  0.00000  0.00000  0.00000  1.0000
  Dy  Dy2       1.0  0.50000  0.50000  0.00000  1.0000
  Dy  Dy3       1.0  0.48000  0.29500  0.27400  1.0000
  Dy  Dy4       1.0  0.98000  0.48000  0.27400  1.0000
  Dy  Dy5       1.0  0.29500  0.79500  0.27400  1.0000
  Dy  Dy6       1.0  0.79500  0.98000  0.27400  1.0000
  Dy  Dy7       1.0  0.20500  0.02020  0.72600  1.0000
  Dy  Dy8       1.0  0.70500  0.20500  0.72600  1.0000
  Dy  Dy9       1.0  0.02020  0.52000  0.72600  1.0000
  Dy  Dy10      1.0  0.52000  0.70500  0.72600  1.0000
  Ni  Ni1       1.0  0.63000  0.13000  0.00000  1.0000
  Ni  Ni2       1.0  0.13000  0.37000  0.00000  1.0000
  Ni  Ni3       1.0  0.87000  0.63000  0.00000  1.0000
  Ni  Ni4       1.0  0.37000  0.87000  0.00000  1.0000
  Sb  Sb1       1.0  0.25000  0.25000  0.50000  1.0000
  Sb  Sb2       1.0  0.75000  0.75000  0.50000  1.0000
