data_image0
_chemical_formula_structural       Cs2Cu2Se8Sm4
_chemical_formula_sum              "Cs2 Cu2 Se8 Sm4"
_cell_length_a       4.22652
_cell_length_b       7.70224
_cell_length_c       14.6772
_cell_angle_alpha    90
_cell_angle_beta     90
_cell_angle_gamma    74.0756

_space_group_name_H-M_alt    "P 1"
_space_group_IT_number       1

loop_
  _space_group_symop_operation_xyz
  'x, y, z'

loop_
  _atom_site_type_symbol
  _atom_site_label
  _atom_site_symmetry_multiplicity
  _atom_site_fract_x
  _atom_site_fract_y
  _atom_site_fract_z
  _atom_site_occupancy
  Cs  Cs1       1.0  0.89300  0.21400  0.25000  1.0000
  Cs  Cs2       1.0  0.10700  0.78600  0.75000  1.0000
  Cu  Cu1       1.0  0.16600  0.66800  0.25000  1.0000
  Cu  Cu2       1.0  0.83400  0.33200  0.75000  1.0000
  Se  Se1       1.0  0.00000  0.00000  0.00000  1.0000
  Se  Se2       1.0  0.25900  0.48100  0.10900  1.0000
  Se  Se3       1.0  0.57800  0.84400  0.25000  1.0000
  Se  Se4       1.0  0.25900  0.48100  0.39100  1.0000
  Se  Se5       1.0  0.00000  0.00000  0.50000  1.0000
  Se  Se6       1.0  0.74100  0.51900  0.60900  1.0000
  Se  Se7       1.0  0.42200  0.15600  0.75000  1.0000
  Se  Se8       1.0  0.74100  0.51900  0.89100  1.0000
  Sm  Sm1       1.0  0.63400  0.73100  0.06200  1.0000
  Sm  Sm2       1.0  0.63400  0.73100  0.43800  1.0000
  Sm  Sm3       1.0  0.36600  0.26900  0.56200  1.0000
  Sm  Sm4       1.0  0.36600  0.26900  0.93800  1.0000
