data_image0
_chemical_formula_structural       Fe4Sc6Si6
_chemical_formula_sum              "Fe4 Sc6 Si6"
_cell_length_a       3.93602
_cell_length_b       5.32385
_cell_length_c       12.8473
_cell_angle_alpha    90
_cell_angle_beta     90
_cell_angle_gamma    68.3054

_space_group_name_H-M_alt    "P 1"
_space_group_IT_number       1

loop_
  _space_group_symop_operation_xyz
  'x, y, z'

loop_
  _atom_site_type_symbol
  _atom_site_label
  _atom_site_symmetry_multiplicity
  _atom_site_fract_x
  _atom_site_fract_y
  _atom_site_fract_z
  _atom_site_occupancy
  Fe  Fe1       1.0  0.21400  0.57100  0.08250  1.0000
  Fe  Fe2       1.0  0.21400  0.57100  0.41800  1.0000
  Fe  Fe3       1.0  0.78600  0.42900  0.58200  1.0000
  Fe  Fe4       1.0  0.78600  0.42900  0.91800  1.0000
  Sc  Sc1       1.0  0.92000  0.15900  0.11300  1.0000
  Sc  Sc2       1.0  0.64000  0.72000  0.25000  1.0000
  Sc  Sc3       1.0  0.92000  0.15900  0.38700  1.0000
  Sc  Sc4       1.0  0.07960  0.84100  0.61300  1.0000
  Sc  Sc5       1.0  0.36000  0.28000  0.75000  1.0000
  Sc  Sc6       1.0  0.07960  0.84100  0.88700  1.0000
  Si  Si1       1.0  0.61700  0.76600  0.04070  1.0000
  Si  Si2       1.0  0.33000  0.34100  0.25000  1.0000
  Si  Si3       1.0  0.61700  0.76600  0.45900  1.0000
  Si  Si4       1.0  0.38300  0.23400  0.54100  1.0000
  Si  Si5       1.0  0.67000  0.65900  0.75000  1.0000
  Si  Si6       1.0  0.38300  0.23400  0.95900  1.0000
