data_image0
_chemical_formula_structural       Cu2Nb2Rb4S8
_chemical_formula_sum              "Cu2 Nb2 Rb4 S8"
_cell_length_a       5.59443
_cell_length_b       7.35522
_cell_length_c       12.3147
_cell_angle_alpha    94.9556
_cell_angle_beta     103.129
_cell_angle_gamma    67.6475

_space_group_name_H-M_alt    "P 1"
_space_group_IT_number       1

loop_
  _space_group_symop_operation_xyz
  'x, y, z'

loop_
  _atom_site_type_symbol
  _atom_site_label
  _atom_site_symmetry_multiplicity
  _atom_site_fract_x
  _atom_site_fract_y
  _atom_site_fract_z
  _atom_site_occupancy
  Cu  Cu1       1.0  0.37500  0.75000  0.25000  1.0000
  Cu  Cu2       1.0  0.62500  0.25000  0.75000  1.0000
  Nb  Nb1       1.0  0.87500  0.75000  0.25000  1.0000
  Nb  Nb2       1.0  0.12500  0.25000  0.75000  1.0000
  Rb  Rb1       1.0  0.30300  0.25000  0.10600  1.0000
  Rb  Rb2       1.0  0.94700  0.25000  0.39400  1.0000
  Rb  Rb3       1.0  0.05280  0.75000  0.60600  1.0000
  Rb  Rb4       1.0  0.69700  0.75000  0.89400  1.0000
  S   S1        1.0  0.67300  0.55600  0.14200  1.0000
  S   S2        1.0  0.96800  0.94400  0.14200  1.0000
  S   S3        1.0  0.27100  0.55600  0.35800  1.0000
  S   S4        1.0  0.58800  0.94400  0.35800  1.0000
  S   S5        1.0  0.41200  0.05580  0.64200  1.0000
  S   S6        1.0  0.72900  0.44400  0.64200  1.0000
  S   S7        1.0  0.03180  0.05580  0.85800  1.0000
  S   S8        1.0  0.32700  0.44400  0.85800  1.0000
