data_image0
_chemical_formula_structural       Fe2Sb4Ti10
_chemical_formula_sum              "Fe2 Sb4 Ti10"
_cell_length_a       5.1098
_cell_length_b       7.80893
_cell_length_c       7.80893
_cell_angle_alpha    96.145
_cell_angle_beta     70.9025
_cell_angle_gamma    109.097

_space_group_name_H-M_alt    "P 1"
_space_group_IT_number       1

loop_
  _space_group_symop_operation_xyz
  'x, y, z'

loop_
  _atom_site_type_symbol
  _atom_site_label
  _atom_site_symmetry_multiplicity
  _atom_site_fract_x
  _atom_site_fract_y
  _atom_site_fract_z
  _atom_site_occupancy
  Fe  Fe1       1.0  0.25000  0.00000  0.00000  1.0000
  Fe  Fe2       1.0  0.75000  0.00000  0.00000  1.0000
  Sb  Sb1       1.0  0.16400  0.50000  0.17100  1.0000
  Sb  Sb2       1.0  0.33600  0.17100  0.50000  1.0000
  Sb  Sb3       1.0  0.66400  0.82900  0.50000  1.0000
  Sb  Sb4       1.0  0.83600  0.50000  0.82900  1.0000
  Ti  Ti1       1.0  0.56900  0.26700  0.12900  1.0000
  Ti  Ti2       1.0  0.80200  0.73300  0.12900  1.0000
  Ti  Ti3       1.0  0.93100  0.12900  0.26700  1.0000
  Ti  Ti4       1.0  0.30200  0.87100  0.26700  1.0000
  Ti  Ti5       1.0  0.25000  0.50000  0.50000  1.0000
  Ti  Ti6       1.0  0.75000  0.50000  0.50000  1.0000
  Ti  Ti7       1.0  0.06860  0.87100  0.73300  1.0000
  Ti  Ti8       1.0  0.69800  0.12900  0.73300  1.0000
  Ti  Ti9       1.0  0.43100  0.73300  0.87100  1.0000
  Ti  Ti10      1.0  0.19800  0.26700  0.87100  1.0000
