data_image0
_chemical_formula_structural       Ge2Na4O8Zn2
_chemical_formula_sum              "Ge2 Na4 O8 Zn2"
_cell_length_a       7.16758
_cell_length_b       5.54851
_cell_length_c       5.31093
_cell_angle_alpha    90
_cell_angle_beta     89.9763
_cell_angle_gamma    90

_space_group_name_H-M_alt    "P 1"
_space_group_IT_number       1

loop_
  _space_group_symop_operation_xyz
  'x, y, z'

loop_
  _atom_site_type_symbol
  _atom_site_label
  _atom_site_symmetry_multiplicity
  _atom_site_fract_x
  _atom_site_fract_y
  _atom_site_fract_z
  _atom_site_occupancy
  Ge  Ge1       1.0  0.25000  0.68300  0.00548  1.0000
  Ge  Ge2       1.0  0.75000  0.31700  0.50500  1.0000
  Na  Na1       1.0  0.25100  0.31300  0.48800  1.0000
  Na  Na2       1.0  0.99700  0.81700  0.49200  1.0000
  Na  Na3       1.0  0.75100  0.68700  0.98800  1.0000
  Na  Na4       1.0  0.49700  0.18300  0.99200  1.0000
  O   O1        1.0  0.27200  0.70100  0.33800  1.0000
  O   O2        1.0  0.95700  0.20300  0.36800  1.0000
  O   O3        1.0  0.54500  0.15800  0.41700  1.0000
  O   O4        1.0  0.72600  0.62500  0.41700  1.0000
  O   O5        1.0  0.77200  0.29900  0.83800  1.0000
  O   O6        1.0  0.45700  0.79700  0.86800  1.0000
  O   O7        1.0  0.04480  0.84200  0.91700  1.0000
  O   O8        1.0  0.22600  0.37500  0.91700  1.0000
  Zn  Zn1       1.0  0.00163  0.18700  0.00011  1.0000
  Zn  Zn2       1.0  0.50200  0.81300  0.50000  1.0000
