data_image0
_chemical_formula_structural       Cu2K4S8V2
_chemical_formula_sum              "Cu2 K4 S8 V2"
_cell_length_a       5.40983
_cell_length_b       7.02051
_cell_length_c       11.6969
_cell_angle_alpha    95.1117
_cell_angle_beta     103.371
_cell_angle_gamma    67.3384

_space_group_name_H-M_alt    "P 1"
_space_group_IT_number       1

loop_
  _space_group_symop_operation_xyz
  'x, y, z'

loop_
  _atom_site_type_symbol
  _atom_site_label
  _atom_site_symmetry_multiplicity
  _atom_site_fract_x
  _atom_site_fract_y
  _atom_site_fract_z
  _atom_site_occupancy
  Cu  Cu1       1.0  0.87500  0.25000  0.25000  1.0000
  Cu  Cu2       1.0  0.12500  0.75000  0.75000  1.0000
  K   K1        1.0  0.80400  0.75000  0.10800  1.0000
  K   K2        1.0  0.44600  0.75000  0.39200  1.0000
  K   K3        1.0  0.55400  0.25000  0.60800  1.0000
  K   K4        1.0  0.19600  0.25000  0.89200  1.0000
  S   S1        1.0  0.18700  0.05410  0.14000  1.0000
  S   S2        1.0  0.45300  0.44600  0.14000  1.0000
  S   S3        1.0  0.75900  0.05410  0.36000  1.0000
  S   S4        1.0  0.10100  0.44600  0.36000  1.0000
  S   S5        1.0  0.89900  0.55400  0.64000  1.0000
  S   S6        1.0  0.24100  0.94600  0.64000  1.0000
  S   S7        1.0  0.54700  0.55400  0.86000  1.0000
  S   S8        1.0  0.81300  0.94600  0.86000  1.0000
  V   V1        1.0  0.37500  0.25000  0.25000  1.0000
  V   V2        1.0  0.62500  0.75000  0.75000  1.0000
