data_image0
_chemical_formula_structural       Mo2N2Na6O6
_chemical_formula_sum              "Mo2 N2 Na6 O6"
_cell_length_a       7.23118
_cell_length_b       6.2178
_cell_length_c       5.53601
_cell_angle_alpha    90
_cell_angle_beta     90
_cell_angle_gamma    90

_space_group_name_H-M_alt    "P 1"
_space_group_IT_number       1

loop_
  _space_group_symop_operation_xyz
  'x, y, z'

loop_
  _atom_site_type_symbol
  _atom_site_label
  _atom_site_symmetry_multiplicity
  _atom_site_fract_x
  _atom_site_fract_y
  _atom_site_fract_z
  _atom_site_occupancy
  Mo  Mo1       1.0  0.00000  0.82700  0.99700  1.0000
  Mo  Mo2       1.0  0.50000  0.17300  0.49700  1.0000
  N   N1        1.0  0.00000  0.82400  0.31300  1.0000
  N   N2        1.0  0.50000  0.17600  0.81300  1.0000
  Na  Na1       1.0  0.00000  0.16700  0.48400  1.0000
  Na  Na2       1.0  0.25700  0.67000  0.48600  1.0000
  Na  Na3       1.0  0.74300  0.67000  0.48600  1.0000
  Na  Na4       1.0  0.50000  0.83300  0.98400  1.0000
  Na  Na5       1.0  0.24300  0.33000  0.98600  1.0000
  Na  Na6       1.0  0.75700  0.33000  0.98600  1.0000
  O   O1        1.0  0.28800  0.31500  0.39800  1.0000
  O   O2        1.0  0.71200  0.31500  0.39800  1.0000
  O   O3        1.0  0.50000  0.88900  0.39900  1.0000
  O   O4        1.0  0.21200  0.68500  0.89800  1.0000
  O   O5        1.0  0.78800  0.68500  0.89800  1.0000
  O   O6        1.0  0.00000  0.11100  0.89900  1.0000
