data_image0
_chemical_formula_structural       Lu10Pd4Sb2
_chemical_formula_sum              "Lu10 Pd4 Sb2"
_cell_length_a       7.59581
_cell_length_b       7.59581
_cell_length_c       8.60338
_cell_angle_alpha    116.196
_cell_angle_beta     116.196
_cell_angle_gamma    90

_space_group_name_H-M_alt    "P 1"
_space_group_IT_number       1

loop_
  _space_group_symop_operation_xyz
  'x, y, z'

loop_
  _atom_site_type_symbol
  _atom_site_label
  _atom_site_symmetry_multiplicity
  _atom_site_fract_x
  _atom_site_fract_y
  _atom_site_fract_z
  _atom_site_occupancy
  Lu  Lu1       1.0  0.00000  0.00000  0.00000  1.0000
  Lu  Lu2       1.0  0.50000  0.50000  0.00000  1.0000
  Lu  Lu3       1.0  0.79900  0.29900  0.28700  1.0000
  Lu  Lu4       1.0  0.29900  0.48800  0.28700  1.0000
  Lu  Lu5       1.0  0.98800  0.79900  0.28700  1.0000
  Lu  Lu6       1.0  0.48800  0.98800  0.28700  1.0000
  Lu  Lu7       1.0  0.51200  0.01190  0.71300  1.0000
  Lu  Lu8       1.0  0.01190  0.20100  0.71300  1.0000
  Lu  Lu9       1.0  0.70100  0.51200  0.71300  1.0000
  Lu  Lu10      1.0  0.20100  0.70100  0.71300  1.0000
  Pd  Pd1       1.0  0.36100  0.13900  0.00000  1.0000
  Pd  Pd2       1.0  0.86100  0.36100  0.00000  1.0000
  Pd  Pd3       1.0  0.13900  0.63900  0.00000  1.0000
  Pd  Pd4       1.0  0.63900  0.86100  0.00000  1.0000
  Sb  Sb1       1.0  0.25000  0.25000  0.50000  1.0000
  Sb  Sb2       1.0  0.75000  0.75000  0.50000  1.0000
