data_image0
_chemical_formula_structural       Cd2O10Se4
_chemical_formula_sum              "Cd2 O10 Se4"
_cell_length_a       5.9031
_cell_length_b       6.95029
_cell_length_c       6.95029
_cell_angle_alpha    109.395
_cell_angle_beta     106.523
_cell_angle_gamma    106.523

_space_group_name_H-M_alt    "P 1"
_space_group_IT_number       1

loop_
  _space_group_symop_operation_xyz
  'x, y, z'

loop_
  _atom_site_type_symbol
  _atom_site_label
  _atom_site_symmetry_multiplicity
  _atom_site_fract_x
  _atom_site_fract_y
  _atom_site_fract_z
  _atom_site_occupancy
  Cd  Cd1       1.0  0.25000  0.59300  0.40700  1.0000
  Cd  Cd2       1.0  0.75000  0.40700  0.59300  1.0000
  O   O1        1.0  0.27500  0.51100  0.07200  1.0000
  O   O2        1.0  0.25000  0.91500  0.08480  1.0000
  O   O3        1.0  0.80500  0.40500  0.27700  1.0000
  O   O4        1.0  0.30500  0.27700  0.40500  1.0000
  O   O5        1.0  0.22500  0.92800  0.48900  1.0000
  O   O6        1.0  0.77500  0.07200  0.51100  1.0000
  O   O7        1.0  0.69500  0.72300  0.59500  1.0000
  O   O8        1.0  0.19500  0.59500  0.72300  1.0000
  O   O9        1.0  0.75000  0.08480  0.91500  1.0000
  O   O10       1.0  0.72500  0.48900  0.92800  1.0000
  Se  Se1       1.0  0.39600  0.71500  0.99900  1.0000
  Se  Se2       1.0  0.60400  0.28500  0.00067  1.0000
  Se  Se3       1.0  0.10400  0.00067  0.28500  1.0000
  Se  Se4       1.0  0.89600  0.99900  0.71500  1.0000
