data_image0
_chemical_formula_structural       Ag4O8Si2Zn2
_chemical_formula_sum              "Ag4 O8 Si2 Zn2"
_cell_length_a       6.99068
_cell_length_b       5.49044
_cell_length_c       5.45006
_cell_angle_alpha    90
_cell_angle_beta     89.2453
_cell_angle_gamma    90

_space_group_name_H-M_alt    "P 1"
_space_group_IT_number       1

loop_
  _space_group_symop_operation_xyz
  'x, y, z'

loop_
  _atom_site_type_symbol
  _atom_site_label
  _atom_site_symmetry_multiplicity
  _atom_site_fract_x
  _atom_site_fract_y
  _atom_site_fract_z
  _atom_site_occupancy
  Ag  Ag1       1.0  0.75300  0.70600  0.99700  1.0000
  Ag  Ag2       1.0  0.50400  0.20300  0.01380  1.0000
  Ag  Ag3       1.0  0.25300  0.29400  0.49700  1.0000
  Ag  Ag4       1.0  0.00361  0.79700  0.51400  1.0000
  O   O1        1.0  0.28700  0.71000  0.30400  1.0000
  O   O2        1.0  0.94500  0.20700  0.36000  1.0000
  O   O3        1.0  0.71900  0.59500  0.42500  1.0000
  O   O4        1.0  0.56500  0.14800  0.43400  1.0000
  O   O5        1.0  0.78700  0.29000  0.80400  1.0000
  O   O6        1.0  0.44500  0.79300  0.86000  1.0000
  O   O7        1.0  0.21900  0.40500  0.92500  1.0000
  O   O8        1.0  0.06460  0.85200  0.93400  1.0000
  Si  Si1       1.0  0.25500  0.69000  0.00702  1.0000
  Si  Si2       1.0  0.75500  0.31000  0.50700  1.0000
  Zn  Zn1       1.0  0.00201  0.19400  0.00710  1.0000
  Zn  Zn2       1.0  0.50200  0.80600  0.50700  1.0000
