data_image0
_chemical_formula_structural       Ge8Ir4La2Tm2
_chemical_formula_sum              "Ge8 Ir4 La2 Tm2"
_cell_length_a       4.35504
_cell_length_b       8.91101
_cell_length_c       9.51958
_cell_angle_alpha    117.907
_cell_angle_beta     103.223
_cell_angle_gamma    90

_space_group_name_H-M_alt    "P 1"
_space_group_IT_number       1

loop_
  _space_group_symop_operation_xyz
  'x, y, z'

loop_
  _atom_site_type_symbol
  _atom_site_label
  _atom_site_symmetry_multiplicity
  _atom_site_fract_x
  _atom_site_fract_y
  _atom_site_fract_z
  _atom_site_occupancy
  Ge  Ge1       1.0  0.57900  0.07900  0.15800  1.0000
  Ge  Ge2       1.0  0.58000  0.58000  0.16000  1.0000
  Ge  Ge3       1.0  0.20100  0.04960  0.40200  1.0000
  Ge  Ge4       1.0  0.20100  0.35200  0.40200  1.0000
  Ge  Ge5       1.0  0.79900  0.64800  0.59800  1.0000
  Ge  Ge6       1.0  0.79900  0.95000  0.59800  1.0000
  Ge  Ge7       1.0  0.42000  0.42000  0.84000  1.0000
  Ge  Ge8       1.0  0.42100  0.92100  0.84200  1.0000
  Ir  Ir1       1.0  0.64900  0.39700  0.29800  1.0000
  Ir  Ir2       1.0  0.64900  0.90000  0.29800  1.0000
  Ir  Ir3       1.0  0.35100  0.09950  0.70200  1.0000
  Ir  Ir4       1.0  0.35100  0.60300  0.70200  1.0000
  La  La1       1.0  0.00000  0.26100  0.00000  1.0000
  La  La2       1.0  0.00000  0.73900  0.00000  1.0000
  Tm  Tm1       1.0  0.20700  0.70700  0.41300  1.0000
  Tm  Tm2       1.0  0.79300  0.29300  0.58700  1.0000
