data_image0
_chemical_formula_structural       O10P2V4
_chemical_formula_sum              "O10 P2 V4"
_cell_length_a       5.42764
_cell_length_b       5.42764
_cell_length_c       7.28061
_cell_angle_alpha    111.885
_cell_angle_beta     111.885
_cell_angle_gamma    90

_space_group_name_H-M_alt    "P 1"
_space_group_IT_number       1

loop_
  _space_group_symop_operation_xyz
  'x, y, z'

loop_
  _atom_site_type_symbol
  _atom_site_label
  _atom_site_symmetry_multiplicity
  _atom_site_fract_x
  _atom_site_fract_y
  _atom_site_fract_z
  _atom_site_occupancy
  O   O1        1.0  0.29500  0.80700  0.11500  1.0000
  O   O2        1.0  0.82000  0.80700  0.11500  1.0000
  O   O3        1.0  0.62500  0.37500  0.25000  1.0000
  O   O4        1.0  0.19300  0.18000  0.38500  1.0000
  O   O5        1.0  0.19300  0.70500  0.38500  1.0000
  O   O6        1.0  0.80700  0.29500  0.61500  1.0000
  O   O7        1.0  0.80700  0.82000  0.61500  1.0000
  O   O8        1.0  0.37500  0.62500  0.75000  1.0000
  O   O9        1.0  0.18000  0.19300  0.88500  1.0000
  O   O10       1.0  0.70500  0.19300  0.88500  1.0000
  P   P1        1.0  0.12500  0.87500  0.25000  1.0000
  P   P2        1.0  0.87500  0.12500  0.75000  1.0000
  V   V1        1.0  0.50000  0.00000  0.00000  1.0000
  V   V2        1.0  0.50000  0.50000  0.00000  1.0000
  V   V3        1.0  0.00000  0.50000  0.50000  1.0000
  V   V4        1.0  0.50000  0.50000  0.50000  1.0000
