data_image0
_chemical_formula_structural       Cd6Sb6Tl4
_chemical_formula_sum              "Cd6 Sb6 Tl4"
_cell_length_a       4.94667
_cell_length_b       9.059
_cell_length_c       11.9901
_cell_angle_alpha    111.334
_cell_angle_beta     90
_cell_angle_gamma    105.844

_space_group_name_H-M_alt    "P 1"
_space_group_IT_number       1

loop_
  _space_group_symop_operation_xyz
  'x, y, z'

loop_
  _atom_site_type_symbol
  _atom_site_label
  _atom_site_symmetry_multiplicity
  _atom_site_fract_x
  _atom_site_fract_y
  _atom_site_fract_z
  _atom_site_occupancy
  Cd  Cd1       1.0  0.60600  0.21200  0.07170  1.0000
  Cd  Cd2       1.0  0.05450  0.10900  0.27200  1.0000
  Cd  Cd3       1.0  0.36700  0.73400  0.34100  1.0000
  Cd  Cd4       1.0  0.63300  0.26600  0.65900  1.0000
  Cd  Cd5       1.0  0.94500  0.89100  0.72800  1.0000
  Cd  Cd6       1.0  0.39400  0.78800  0.92800  1.0000
  Sb  Sb1       1.0  0.19200  0.38500  0.18400  1.0000
  Sb  Sb2       1.0  0.46700  0.93400  0.18600  1.0000
  Sb  Sb3       1.0  0.91200  0.82500  0.47200  1.0000
  Sb  Sb4       1.0  0.08750  0.17500  0.52800  1.0000
  Sb  Sb5       1.0  0.53300  0.06590  0.81400  1.0000
  Sb  Sb6       1.0  0.80800  0.61500  0.81600  1.0000
  Tl  Tl1       1.0  0.82200  0.64400  0.11100  1.0000
  Tl  Tl2       1.0  0.68800  0.37700  0.38900  1.0000
  Tl  Tl3       1.0  0.31200  0.62300  0.61100  1.0000
  Tl  Tl4       1.0  0.17800  0.35600  0.88900  1.0000
