data_image0
_chemical_formula_structural       Cu2Gd4Rb2Se8
_chemical_formula_sum              "Cu2 Gd4 Rb2 Se8"
_cell_length_a       4.16112
_cell_length_b       7.48413
_cell_length_c       14.497
_cell_angle_alpha    90
_cell_angle_beta     90
_cell_angle_gamma    73.8593

_space_group_name_H-M_alt    "P 1"
_space_group_IT_number       1

loop_
  _space_group_symop_operation_xyz
  'x, y, z'

loop_
  _atom_site_type_symbol
  _atom_site_label
  _atom_site_symmetry_multiplicity
  _atom_site_fract_x
  _atom_site_fract_y
  _atom_site_fract_z
  _atom_site_occupancy
  Cu  Cu1       1.0  0.16300  0.67500  0.25000  1.0000
  Cu  Cu2       1.0  0.83700  0.32500  0.75000  1.0000
  Gd  Gd1       1.0  0.63500  0.73100  0.06370  1.0000
  Gd  Gd2       1.0  0.63500  0.73100  0.43600  1.0000
  Gd  Gd3       1.0  0.36500  0.26900  0.56400  1.0000
  Gd  Gd4       1.0  0.36500  0.26900  0.93600  1.0000
  Rb  Rb1       1.0  0.89000  0.22000  0.25000  1.0000
  Rb  Rb2       1.0  0.11000  0.78000  0.75000  1.0000
  Se  Se1       1.0  0.00000  0.00000  0.00000  1.0000
  Se  Se2       1.0  0.26300  0.47400  0.11100  1.0000
  Se  Se3       1.0  0.57000  0.86000  0.25000  1.0000
  Se  Se4       1.0  0.26300  0.47400  0.38900  1.0000
  Se  Se5       1.0  0.00000  0.00000  0.50000  1.0000
  Se  Se6       1.0  0.73700  0.52600  0.61100  1.0000
  Se  Se7       1.0  0.43000  0.14000  0.75000  1.0000
  Se  Se8       1.0  0.73700  0.52600  0.88900  1.0000
