data_image0
_chemical_formula_structural       Ge6Lu6Ni4
_chemical_formula_sum              "Ge6 Lu6 Ni4"
_cell_length_a       5.46048
_cell_length_b       4.15562
_cell_length_c       13.8338
_cell_angle_alpha    90
_cell_angle_beta     90
_cell_angle_gamma    112.366

_space_group_name_H-M_alt    "P 1"
_space_group_IT_number       1

loop_
  _space_group_symop_operation_xyz
  'x, y, z'

loop_
  _atom_site_type_symbol
  _atom_site_label
  _atom_site_symmetry_multiplicity
  _atom_site_fract_x
  _atom_site_fract_y
  _atom_site_fract_z
  _atom_site_occupancy
  Ge  Ge1       1.0  0.24300  0.12100  0.03870  1.0000
  Ge  Ge2       1.0  0.67900  0.84000  0.25000  1.0000
  Ge  Ge3       1.0  0.24300  0.12100  0.46100  1.0000
  Ge  Ge4       1.0  0.75700  0.87900  0.53900  1.0000
  Ge  Ge5       1.0  0.32100  0.16000  0.75000  1.0000
  Ge  Ge6       1.0  0.75700  0.87900  0.96100  1.0000
  Lu  Lu1       1.0  0.82700  0.41300  0.10900  1.0000
  Lu  Lu2       1.0  0.27200  0.13600  0.25000  1.0000
  Lu  Lu3       1.0  0.82700  0.41300  0.39100  1.0000
  Lu  Lu4       1.0  0.17300  0.58700  0.60900  1.0000
  Lu  Lu5       1.0  0.72800  0.86400  0.75000  1.0000
  Lu  Lu6       1.0  0.17300  0.58700  0.89100  1.0000
  Ni  Ni1       1.0  0.40500  0.70300  0.10000  1.0000
  Ni  Ni2       1.0  0.40500  0.70300  0.40000  1.0000
  Ni  Ni3       1.0  0.59500  0.29700  0.60000  1.0000
  Ni  Ni4       1.0  0.59500  0.29700  0.90000  1.0000
