data_image0
_chemical_formula_structural       Bi2Br6
_chemical_formula_sum              "Bi2 Br6"
_cell_length_a       7.03145
_cell_length_b       7.28366
_cell_length_c       7.28366
_cell_angle_alpha    119.925
_cell_angle_beta     100.204
_cell_angle_gamma    100.204

_space_group_name_H-M_alt    "P 1"
_space_group_IT_number       1

loop_
  _space_group_symop_operation_xyz
  'x, y, z'

loop_
  _atom_site_type_symbol
  _atom_site_label
  _atom_site_symmetry_multiplicity
  _atom_site_fract_x
  _atom_site_fract_y
  _atom_site_fract_z
  _atom_site_occupancy
  Bi  Bi1       1.0  0.00000  0.83300  0.16700  1.0000
  Bi  Bi2       1.0  0.00000  0.16700  0.83300  1.0000
  Br  Br1       1.0  0.74600  0.41400  0.06100  1.0000
  Br  Br2       1.0  0.24800  0.24400  0.24400  1.0000
  Br  Br3       1.0  0.74600  0.06100  0.41400  1.0000
  Br  Br4       1.0  0.25400  0.93900  0.58600  1.0000
  Br  Br5       1.0  0.75200  0.75600  0.75600  1.0000
  Br  Br6       1.0  0.25400  0.58600  0.93900  1.0000
