data_image0
_chemical_formula_structural       Dy6Fe4Si6
_chemical_formula_sum              "Dy6 Fe4 Si6"
_cell_length_a       4.07301
_cell_length_b       5.64065
_cell_length_c       13.5857
_cell_angle_alpha    90
_cell_angle_beta     90
_cell_angle_gamma    68.8359

_space_group_name_H-M_alt    "P 1"
_space_group_IT_number       1

loop_
  _space_group_symop_operation_xyz
  'x, y, z'

loop_
  _atom_site_type_symbol
  _atom_site_label
  _atom_site_symmetry_multiplicity
  _atom_site_fract_x
  _atom_site_fract_y
  _atom_site_fract_z
  _atom_site_occupancy
  Dy  Dy1       1.0  0.42000  0.16000  0.11200  1.0000
  Dy  Dy2       1.0  0.13500  0.72900  0.25000  1.0000
  Dy  Dy3       1.0  0.42000  0.16000  0.38800  1.0000
  Dy  Dy4       1.0  0.58000  0.84000  0.61200  1.0000
  Dy  Dy5       1.0  0.86500  0.27100  0.75000  1.0000
  Dy  Dy6       1.0  0.58000  0.84000  0.88800  1.0000
  Fe  Fe1       1.0  0.71600  0.56900  0.08040  1.0000
  Fe  Fe2       1.0  0.71600  0.56900  0.42000  1.0000
  Fe  Fe3       1.0  0.28400  0.43100  0.58000  1.0000
  Fe  Fe4       1.0  0.28400  0.43100  0.92000  1.0000
  Si  Si1       1.0  0.12600  0.74800  0.03980  1.0000
  Si  Si2       1.0  0.82400  0.35200  0.25000  1.0000
  Si  Si3       1.0  0.12600  0.74800  0.46000  1.0000
  Si  Si4       1.0  0.87400  0.25200  0.54000  1.0000
  Si  Si5       1.0  0.17600  0.64800  0.75000  1.0000
  Si  Si6       1.0  0.87400  0.25200  0.96000  1.0000
