data_image0
_chemical_formula_structural       N10Ta6
_chemical_formula_sum              "N10 Ta6"
_cell_length_a       3.89335
_cell_length_b       5.48978
_cell_length_c       10.2881
_cell_angle_alpha    90
_cell_angle_beta     90
_cell_angle_gamma    69.2311

_space_group_name_H-M_alt    "P 1"
_space_group_IT_number       1

loop_
  _space_group_symop_operation_xyz
  'x, y, z'

loop_
  _atom_site_type_symbol
  _atom_site_label
  _atom_site_symmetry_multiplicity
  _atom_site_fract_x
  _atom_site_fract_y
  _atom_site_fract_z
  _atom_site_occupancy
  N   N1        1.0  0.69100  0.61900  0.07330  1.0000
  N   N2        1.0  0.95300  0.09400  0.12000  1.0000
  N   N3        1.0  0.23600  0.52900  0.25000  1.0000
  N   N4        1.0  0.95300  0.09400  0.38000  1.0000
  N   N5        1.0  0.69100  0.61900  0.42700  1.0000
  N   N6        1.0  0.30900  0.38100  0.57300  1.0000
  N   N7        1.0  0.04700  0.90600  0.62000  1.0000
  N   N8        1.0  0.76400  0.47100  0.75000  1.0000
  N   N9        1.0  0.04700  0.90600  0.88000  1.0000
  N   N10       1.0  0.30900  0.38100  0.92700  1.0000
  Ta  Ta1       1.0  0.13300  0.73300  0.05940  1.0000
  Ta  Ta2       1.0  0.80100  0.39700  0.25000  1.0000
  Ta  Ta3       1.0  0.13300  0.73300  0.44100  1.0000
  Ta  Ta4       1.0  0.86700  0.26700  0.55900  1.0000
  Ta  Ta5       1.0  0.19900  0.60300  0.75000  1.0000
  Ta  Ta6       1.0  0.86700  0.26700  0.94100  1.0000
