data_image0
_chemical_formula_structural       Ba2Br12Th2
_chemical_formula_sum              "Ba2 Br12 Th2"
_cell_length_a       9.59685
_cell_length_b       4.53243
_cell_length_c       12.413
_cell_angle_alpha    90
_cell_angle_beta     90
_cell_angle_gamma    90

_space_group_name_H-M_alt    "P 1"
_space_group_IT_number       1

loop_
  _space_group_symop_operation_xyz
  'x, y, z'

loop_
  _atom_site_type_symbol
  _atom_site_label
  _atom_site_symmetry_multiplicity
  _atom_site_fract_x
  _atom_site_fract_y
  _atom_site_fract_z
  _atom_site_occupancy
  Ba  Ba1       1.0  0.75000  0.50000  0.26800  1.0000
  Ba  Ba2       1.0  0.25000  0.50000  0.73200  1.0000
  Br  Br1       1.0  0.25000  0.50000  0.11500  1.0000
  Br  Br2       1.0  0.53500  0.00000  0.16300  1.0000
  Br  Br3       1.0  0.96500  0.00000  0.16300  1.0000
  Br  Br4       1.0  0.07380  0.50000  0.36800  1.0000
  Br  Br5       1.0  0.42600  0.50000  0.36800  1.0000
  Br  Br6       1.0  0.75000  0.00000  0.46200  1.0000
  Br  Br7       1.0  0.25000  0.00000  0.53800  1.0000
  Br  Br8       1.0  0.57400  0.50000  0.63200  1.0000
  Br  Br9       1.0  0.92600  0.50000  0.63200  1.0000
  Br  Br10      1.0  0.03540  0.00000  0.83700  1.0000
  Br  Br11      1.0  0.46500  0.00000  0.83700  1.0000
  Br  Br12      1.0  0.75000  0.50000  0.88500  1.0000
  Th  Th1       1.0  0.25000  0.00000  0.27600  1.0000
  Th  Th2       1.0  0.75000  0.00000  0.72400  1.0000
