data_image0
_chemical_formula_structural       Ag2Cs4Nb2S8
_chemical_formula_sum              "Ag2 Cs4 Nb2 S8"
_cell_length_a       5.99407
_cell_length_b       7.77621
_cell_length_c       12.8234
_cell_angle_alpha    95.168
_cell_angle_beta     103.516
_cell_angle_gamma    67.3307

_space_group_name_H-M_alt    "P 1"
_space_group_IT_number       1

loop_
  _space_group_symop_operation_xyz
  'x, y, z'

loop_
  _atom_site_type_symbol
  _atom_site_label
  _atom_site_symmetry_multiplicity
  _atom_site_fract_x
  _atom_site_fract_y
  _atom_site_fract_z
  _atom_site_occupancy
  Ag  Ag1       1.0  0.37500  0.75000  0.25000  1.0000
  Ag  Ag2       1.0  0.62500  0.25000  0.75000  1.0000
  Cs  Cs1       1.0  0.30400  0.25000  0.10700  1.0000
  Cs  Cs2       1.0  0.94600  0.25000  0.39300  1.0000
  Cs  Cs3       1.0  0.05360  0.75000  0.60700  1.0000
  Cs  Cs4       1.0  0.69600  0.75000  0.89300  1.0000
  Nb  Nb1       1.0  0.87500  0.75000  0.25000  1.0000
  Nb  Nb2       1.0  0.12500  0.25000  0.75000  1.0000
  S   S1        1.0  0.70100  0.56000  0.14200  1.0000
  S   S2        1.0  0.94100  0.94000  0.14200  1.0000
  S   S3        1.0  0.23900  0.56000  0.35800  1.0000
  S   S4        1.0  0.61800  0.94000  0.35800  1.0000
  S   S5        1.0  0.38200  0.05970  0.64200  1.0000
  S   S6        1.0  0.76100  0.44000  0.64200  1.0000
  S   S7        1.0  0.05850  0.05970  0.85800  1.0000
  S   S8        1.0  0.29900  0.44000  0.85800  1.0000
