data_image0
_chemical_formula_structural       Ag2Rb4S8Ta2
_chemical_formula_sum              "Ag2 Rb4 S8 Ta2"
_cell_length_a       5.9891
_cell_length_b       7.49478
_cell_length_c       12.2546
_cell_angle_alpha    95.603
_cell_angle_beta     104.144
_cell_angle_gamma    66.4499

_space_group_name_H-M_alt    "P 1"
_space_group_IT_number       1

loop_
  _space_group_symop_operation_xyz
  'x, y, z'

loop_
  _atom_site_type_symbol
  _atom_site_label
  _atom_site_symmetry_multiplicity
  _atom_site_fract_x
  _atom_site_fract_y
  _atom_site_fract_z
  _atom_site_occupancy
  Ag  Ag1       1.0  0.37500  0.75000  0.25000  1.0000
  Ag  Ag2       1.0  0.62500  0.25000  0.75000  1.0000
  Rb  Rb1       1.0  0.30500  0.25000  0.11000  1.0000
  Rb  Rb2       1.0  0.94500  0.25000  0.39000  1.0000
  Rb  Rb3       1.0  0.05480  0.75000  0.61000  1.0000
  Rb  Rb4       1.0  0.69500  0.75000  0.89000  1.0000
  S   S1        1.0  0.70500  0.55100  0.13800  1.0000
  S   S2        1.0  0.93300  0.94900  0.13800  1.0000
  S   S3        1.0  0.24400  0.55100  0.36200  1.0000
  S   S4        1.0  0.61800  0.94900  0.36200  1.0000
  S   S5        1.0  0.38200  0.05080  0.63800  1.0000
  S   S6        1.0  0.75600  0.44900  0.63800  1.0000
  S   S7        1.0  0.06750  0.05080  0.86200  1.0000
  S   S8        1.0  0.29500  0.44900  0.86200  1.0000
  Ta  Ta1       1.0  0.87500  0.75000  0.25000  1.0000
  Ta  Ta2       1.0  0.12500  0.25000  0.75000  1.0000
