data_image0
_chemical_formula_structural       Al4O10Si2
_chemical_formula_sum              "Al4 O10 Si2"
_cell_length_a       3.50684
_cell_length_b       4.94011
_cell_length_c       9.11861
_cell_angle_alpha    90
_cell_angle_beta     90
_cell_angle_gamma    69.2105

_space_group_name_H-M_alt    "P 1"
_space_group_IT_number       1

loop_
  _space_group_symop_operation_xyz
  'x, y, z'

loop_
  _atom_site_type_symbol
  _atom_site_label
  _atom_site_symmetry_multiplicity
  _atom_site_fract_x
  _atom_site_fract_y
  _atom_site_fract_z
  _atom_site_occupancy
  Al  Al1       1.0  0.13500  0.73000  0.06710  1.0000
  Al  Al2       1.0  0.13500  0.73000  0.43300  1.0000
  Al  Al3       1.0  0.86500  0.27000  0.56700  1.0000
  Al  Al4       1.0  0.86500  0.27000  0.93300  1.0000
  O   O1        1.0  0.68700  0.62500  0.08970  1.0000
  O   O2        1.0  0.94600  0.10900  0.11800  1.0000
  O   O3        1.0  0.26100  0.47700  0.25000  1.0000
  O   O4        1.0  0.94600  0.10900  0.38200  1.0000
  O   O5        1.0  0.68700  0.62500  0.41000  1.0000
  O   O6        1.0  0.31300  0.37500  0.59000  1.0000
  O   O7        1.0  0.05450  0.89100  0.61800  1.0000
  O   O8        1.0  0.73900  0.52300  0.75000  1.0000
  O   O9        1.0  0.05450  0.89100  0.88200  1.0000
  O   O10       1.0  0.31300  0.37500  0.91000  1.0000
  Si  Si1       1.0  0.81700  0.36600  0.25000  1.0000
  Si  Si2       1.0  0.18300  0.63400  0.75000  1.0000
