data_image0
_chemical_formula_structural       Cu4S8Sm4
_chemical_formula_sum              "Cu4 S8 Sm4"
_cell_length_a       6.45248
_cell_length_b       7.12854
_cell_length_c       6.81661
_cell_angle_alpha    90
_cell_angle_beta     97.5994
_cell_angle_gamma    90

_space_group_name_H-M_alt    "P 1"
_space_group_IT_number       1

loop_
  _space_group_symop_operation_xyz
  'x, y, z'

loop_
  _atom_site_type_symbol
  _atom_site_label
  _atom_site_symmetry_multiplicity
  _atom_site_fract_x
  _atom_site_fract_y
  _atom_site_fract_z
  _atom_site_occupancy
  Cu  Cu1       1.0  0.57800  0.33800  0.05160  1.0000
  Cu  Cu2       1.0  0.42200  0.83800  0.44800  1.0000
  Cu  Cu3       1.0  0.57800  0.16200  0.55200  1.0000
  Cu  Cu4       1.0  0.42200  0.66200  0.94800  1.0000
  S   S1        1.0  0.92000  0.27400  0.00129  1.0000
  S   S2        1.0  0.40900  0.11400  0.22100  1.0000
  S   S3        1.0  0.59100  0.61400  0.27900  1.0000
  S   S4        1.0  0.08040  0.77400  0.49900  1.0000
  S   S5        1.0  0.92000  0.22600  0.50100  1.0000
  S   S6        1.0  0.40900  0.38600  0.72100  1.0000
  S   S7        1.0  0.59100  0.88600  0.77900  1.0000
  S   S8        1.0  0.08040  0.72600  0.99900  1.0000
  Sm  Sm1       1.0  0.80800  0.95000  0.19900  1.0000
  Sm  Sm2       1.0  0.19200  0.45000  0.30100  1.0000
  Sm  Sm3       1.0  0.80800  0.55000  0.69900  1.0000
  Sm  Sm4       1.0  0.19200  0.04970  0.80100  1.0000
