data_image0
_chemical_formula_structural       Ag2Cd4Ga2S8
_chemical_formula_sum              "Ag2 Cd4 Ga2 S8"
_cell_length_a       8.2064
_cell_length_b       6.97252
_cell_length_c       6.67436
_cell_angle_alpha    90
_cell_angle_beta     90
_cell_angle_gamma    90

_space_group_name_H-M_alt    "P 1"
_space_group_IT_number       1

loop_
  _space_group_symop_operation_xyz
  'x, y, z'

loop_
  _atom_site_type_symbol
  _atom_site_label
  _atom_site_symmetry_multiplicity
  _atom_site_fract_x
  _atom_site_fract_y
  _atom_site_fract_z
  _atom_site_occupancy
  Ag  Ag1       1.0  0.00000  0.66000  0.49000  1.0000
  Ag  Ag2       1.0  0.50000  0.34000  0.99000  1.0000
  Cd  Cd1       1.0  0.25300  0.17800  0.48700  1.0000
  Cd  Cd2       1.0  0.74700  0.17800  0.48700  1.0000
  Cd  Cd3       1.0  0.24700  0.82200  0.98700  1.0000
  Cd  Cd4       1.0  0.75300  0.82200  0.98700  1.0000
  Ga  Ga1       1.0  0.00000  0.32000  0.99100  1.0000
  Ga  Ga2       1.0  0.50000  0.68000  0.49100  1.0000
  S   S1        1.0  0.23400  0.17300  0.10300  1.0000
  S   S2        1.0  0.76600  0.17300  0.10300  1.0000
  S   S3        1.0  0.00000  0.63200  0.10700  1.0000
  S   S4        1.0  0.50000  0.67700  0.14600  1.0000
  S   S5        1.0  0.26600  0.82700  0.60300  1.0000
  S   S6        1.0  0.73400  0.82700  0.60300  1.0000
  S   S7        1.0  0.50000  0.36800  0.60700  1.0000
  S   S8        1.0  0.00000  0.32300  0.64600  1.0000
