data_image0
_chemical_formula_structural       Ge6Ho6Ir4
_chemical_formula_sum              "Ge6 Ho6 Ir4"
_cell_length_a       5.64852
_cell_length_b       4.31555
_cell_length_c       14.2486
_cell_angle_alpha    90
_cell_angle_beta     90
_cell_angle_gamma    112.458

_space_group_name_H-M_alt    "P 1"
_space_group_IT_number       1

loop_
  _space_group_symop_operation_xyz
  'x, y, z'

loop_
  _atom_site_type_symbol
  _atom_site_label
  _atom_site_symmetry_multiplicity
  _atom_site_fract_x
  _atom_site_fract_y
  _atom_site_fract_z
  _atom_site_occupancy
  Ge  Ge1       1.0  0.75500  0.37700  0.03550  1.0000
  Ge  Ge2       1.0  0.31100  0.65600  0.25000  1.0000
  Ge  Ge3       1.0  0.75500  0.37700  0.46500  1.0000
  Ge  Ge4       1.0  0.24500  0.62300  0.53500  1.0000
  Ge  Ge5       1.0  0.68900  0.34400  0.75000  1.0000
  Ge  Ge6       1.0  0.24500  0.62300  0.96500  1.0000
  Ho  Ho1       1.0  0.16900  0.08440  0.11000  1.0000
  Ho  Ho2       1.0  0.71500  0.35800  0.25000  1.0000
  Ho  Ho3       1.0  0.16900  0.08440  0.39000  1.0000
  Ho  Ho4       1.0  0.83100  0.91600  0.61000  1.0000
  Ho  Ho5       1.0  0.28500  0.64200  0.75000  1.0000
  Ho  Ho6       1.0  0.83100  0.91600  0.89000  1.0000
  Ir  Ir1       1.0  0.60000  0.80000  0.10200  1.0000
  Ir  Ir2       1.0  0.60000  0.80000  0.39800  1.0000
  Ir  Ir3       1.0  0.40000  0.20000  0.60200  1.0000
  Ir  Ir4       1.0  0.40000  0.20000  0.89800  1.0000
