data_image0
_chemical_formula_structural       Ag4Ge2O8Zn2
_chemical_formula_sum              "Ag4 Ge2 O8 Zn2"
_cell_length_a       7.14885
_cell_length_b       5.58534
_cell_length_c       5.54952
_cell_angle_alpha    90
_cell_angle_beta     89.4298
_cell_angle_gamma    90

_space_group_name_H-M_alt    "P 1"
_space_group_IT_number       1

loop_
  _space_group_symop_operation_xyz
  'x, y, z'

loop_
  _atom_site_type_symbol
  _atom_site_label
  _atom_site_symmetry_multiplicity
  _atom_site_fract_x
  _atom_site_fract_y
  _atom_site_fract_z
  _atom_site_occupancy
  Ag  Ag1       1.0  0.74200  0.70900  0.99100  1.0000
  Ag  Ag2       1.0  0.50600  0.19700  0.00796  1.0000
  Ag  Ag3       1.0  0.24200  0.29100  0.49100  1.0000
  Ag  Ag4       1.0  0.00552  0.80300  0.50800  1.0000
  Ge  Ge1       1.0  0.24900  0.68400  0.00188  1.0000
  Ge  Ge2       1.0  0.74900  0.31600  0.50200  1.0000
  O   O1        1.0  0.28300  0.70000  0.31700  1.0000
  O   O2        1.0  0.94800  0.20200  0.34800  1.0000
  O   O3        1.0  0.71900  0.61900  0.41400  1.0000
  O   O4        1.0  0.54500  0.15100  0.42600  1.0000
  O   O5        1.0  0.78300  0.30000  0.81700  1.0000
  O   O6        1.0  0.44800  0.79800  0.84800  1.0000
  O   O7        1.0  0.21900  0.38100  0.91400  1.0000
  O   O8        1.0  0.04550  0.84900  0.92600  1.0000
  Zn  Zn1       1.0  0.99900  0.19000  0.99900  1.0000
  Zn  Zn2       1.0  0.49900  0.81000  0.49900  1.0000
