data_image0
_chemical_formula_structural       Pt6Si2
_chemical_formula_sum              "Pt6 Si2"
_cell_length_a       5.43704
_cell_length_b       5.536
_cell_length_c       5.536
_cell_angle_alpha    90.7987
_cell_angle_beta     118.85
_cell_angle_gamma    118.85

_space_group_name_H-M_alt    "P 1"
_space_group_IT_number       1

loop_
  _space_group_symop_operation_xyz
  'x, y, z'

loop_
  _atom_site_type_symbol
  _atom_site_label
  _atom_site_symmetry_multiplicity
  _atom_site_fract_x
  _atom_site_fract_y
  _atom_site_fract_z
  _atom_site_occupancy
  Pt  Pt1       1.0  0.00000  0.81500  0.18500  1.0000
  Pt  Pt2       1.0  0.50000  0.72600  0.27400  1.0000
  Pt  Pt3       1.0  0.63600  0.28400  0.28400  1.0000
  Pt  Pt4       1.0  0.36400  0.71600  0.71600  1.0000
  Pt  Pt5       1.0  0.50000  0.27400  0.72600  1.0000
  Pt  Pt6       1.0  0.00000  0.18500  0.81500  1.0000
  Si  Si1       1.0  0.06970  0.28300  0.28300  1.0000
  Si  Si2       1.0  0.93000  0.71700  0.71700  1.0000
