data_image0
_chemical_formula_structural       Al4Fe6Si6
_chemical_formula_sum              "Al4 Fe6 Si6"
_cell_length_a       4.60397
_cell_length_b       6.31482
_cell_length_c       7.4465
_cell_angle_alpha    101.698
_cell_angle_beta     106.668
_cell_angle_gamma    100.787

_space_group_name_H-M_alt    "P 1"
_space_group_IT_number       1

loop_
  _space_group_symop_operation_xyz
  'x, y, z'

loop_
  _atom_site_type_symbol
  _atom_site_label
  _atom_site_symmetry_multiplicity
  _atom_site_fract_x
  _atom_site_fract_y
  _atom_site_fract_z
  _atom_site_occupancy
  Al  Al1       1.0  0.40900  0.67500  0.04270  1.0000
  Al  Al2       1.0  0.05900  0.64900  0.27400  1.0000
  Al  Al3       1.0  0.94100  0.35100  0.72600  1.0000
  Al  Al4       1.0  0.59100  0.32500  0.95700  1.0000
  Fe  Fe1       1.0  0.13600  0.31900  0.05760  1.0000
  Fe  Fe2       1.0  0.36600  0.02790  0.23200  1.0000
  Fe  Fe3       1.0  0.03950  0.29300  0.41500  1.0000
  Fe  Fe4       1.0  0.96100  0.70700  0.58500  1.0000
  Fe  Fe5       1.0  0.63400  0.97200  0.76800  1.0000
  Fe  Fe6       1.0  0.86400  0.68100  0.94200  1.0000
  Si  Si1       1.0  0.82300  0.02200  0.11500  1.0000
  Si  Si2       1.0  0.54400  0.41400  0.34800  1.0000
  Si  Si3       1.0  0.72300  0.95400  0.46500  1.0000
  Si  Si4       1.0  0.27700  0.04590  0.53500  1.0000
  Si  Si5       1.0  0.45600  0.58600  0.65200  1.0000
  Si  Si6       1.0  0.17700  0.97800  0.88500  1.0000
