data_image0
_chemical_formula_structural       Cs4Cu2Nb2Se8
_chemical_formula_sum              "Cs4 Cu2 Nb2 Se8"
_cell_length_a       5.84303
_cell_length_b       7.93428
_cell_length_c       13.2494
_cell_angle_alpha    94.6571
_cell_angle_beta     102.738
_cell_angle_gamma    68.3945

_space_group_name_H-M_alt    "P 1"
_space_group_IT_number       1

loop_
  _space_group_symop_operation_xyz
  'x, y, z'

loop_
  _atom_site_type_symbol
  _atom_site_label
  _atom_site_symmetry_multiplicity
  _atom_site_fract_x
  _atom_site_fract_y
  _atom_site_fract_z
  _atom_site_occupancy
  Cs  Cs1       1.0  0.30300  0.25000  0.10600  1.0000
  Cs  Cs2       1.0  0.94700  0.25000  0.39400  1.0000
  Cs  Cs3       1.0  0.05320  0.75000  0.60600  1.0000
  Cs  Cs4       1.0  0.69700  0.75000  0.89400  1.0000
  Cu  Cu1       1.0  0.37500  0.75000  0.25000  1.0000
  Cu  Cu2       1.0  0.62500  0.25000  0.75000  1.0000
  Nb  Nb1       1.0  0.87500  0.75000  0.25000  1.0000
  Nb  Nb2       1.0  0.12500  0.25000  0.75000  1.0000
  Se  Se1       1.0  0.67000  0.56100  0.14300  1.0000
  Se  Se2       1.0  0.97200  0.93900  0.14300  1.0000
  Se  Se3       1.0  0.26800  0.56100  0.35700  1.0000
  Se  Se4       1.0  0.58900  0.93900  0.35700  1.0000
  Se  Se5       1.0  0.41100  0.06120  0.64300  1.0000
  Se  Se6       1.0  0.73200  0.43900  0.64300  1.0000
  Se  Se7       1.0  0.02790  0.06120  0.85700  1.0000
  Se  Se8       1.0  0.33000  0.43900  0.85700  1.0000
