data_image0
_chemical_formula_structural       CsO10Sr2Ta3
_chemical_formula_sum              "Cs1 O10 Sr2 Ta3"
_cell_length_a       3.93464
_cell_length_b       3.93464
_cell_length_c       15.3824
_cell_angle_alpha    90
_cell_angle_beta     90
_cell_angle_gamma    90

_space_group_name_H-M_alt    "P 1"
_space_group_IT_number       1

loop_
  _space_group_symop_operation_xyz
  'x, y, z'

loop_
  _atom_site_type_symbol
  _atom_site_label
  _atom_site_symmetry_multiplicity
  _atom_site_fract_x
  _atom_site_fract_y
  _atom_site_fract_z
  _atom_site_occupancy
  Cs  Cs1       1.0  0.50000  0.50000  0.50000  1.0000
  O   O1        1.0  0.50000  0.00000  0.00000  1.0000
  O   O2        1.0  0.00000  0.50000  0.00000  1.0000
  O   O3        1.0  0.00000  0.00000  0.12800  1.0000
  O   O4        1.0  0.50000  0.00000  0.25600  1.0000
  O   O5        1.0  0.00000  0.50000  0.25600  1.0000
  O   O6        1.0  0.00000  0.00000  0.39900  1.0000
  O   O7        1.0  0.00000  0.00000  0.60100  1.0000
  O   O8        1.0  0.50000  0.00000  0.74400  1.0000
  O   O9        1.0  0.00000  0.50000  0.74400  1.0000
  O   O10       1.0  0.00000  0.00000  0.87200  1.0000
  Sr  Sr1       1.0  0.50000  0.50000  0.14500  1.0000
  Sr  Sr2       1.0  0.50000  0.50000  0.85500  1.0000
  Ta  Ta1       1.0  0.00000  0.00000  0.00000  1.0000
  Ta  Ta2       1.0  0.00000  0.00000  0.28300  1.0000
  Ta  Ta3       1.0  0.00000  0.00000  0.71700  1.0000
