data_image0
_chemical_formula_structural       Cu2K2Nd4S8
_chemical_formula_sum              "Cu2 K2 Nd4 S8"
_cell_length_a       4.065
_cell_length_b       7.22288
_cell_length_c       14.02
_cell_angle_alpha    90
_cell_angle_beta     90
_cell_angle_gamma    73.6564

_space_group_name_H-M_alt    "P 1"
_space_group_IT_number       1

loop_
  _space_group_symop_operation_xyz
  'x, y, z'

loop_
  _atom_site_type_symbol
  _atom_site_label
  _atom_site_symmetry_multiplicity
  _atom_site_fract_x
  _atom_site_fract_y
  _atom_site_fract_z
  _atom_site_occupancy
  Cu  Cu1       1.0  0.16200  0.67500  0.25000  1.0000
  Cu  Cu2       1.0  0.83800  0.32500  0.75000  1.0000
  K   K1        1.0  0.89200  0.21600  0.25000  1.0000
  K   K2        1.0  0.10800  0.78400  0.75000  1.0000
  Nd  Nd1       1.0  0.63500  0.73100  0.06280  1.0000
  Nd  Nd2       1.0  0.63500  0.73100  0.43700  1.0000
  Nd  Nd3       1.0  0.36500  0.26900  0.56300  1.0000
  Nd  Nd4       1.0  0.36500  0.26900  0.93700  1.0000
  S   S1        1.0  0.00000  0.00000  0.00000  1.0000
  S   S2        1.0  0.26300  0.47300  0.11500  1.0000
  S   S3        1.0  0.56900  0.86200  0.25000  1.0000
  S   S4        1.0  0.26300  0.47300  0.38500  1.0000
  S   S5        1.0  0.00000  0.00000  0.50000  1.0000
  S   S6        1.0  0.73700  0.52700  0.61500  1.0000
  S   S7        1.0  0.43100  0.13800  0.75000  1.0000
  S   S8        1.0  0.73700  0.52700  0.88500  1.0000
