data_image0
_chemical_formula_structural       Cu2K4Se8V2
_chemical_formula_sum              "Cu2 K4 Se8 V2"
_cell_length_a       5.6449
_cell_length_b       7.23402
_cell_length_c       12.1137
_cell_angle_alpha    95.2158
_cell_angle_beta     103.474
_cell_angle_gamma    67.0353

_space_group_name_H-M_alt    "P 1"
_space_group_IT_number       1

loop_
  _space_group_symop_operation_xyz
  'x, y, z'

loop_
  _atom_site_type_symbol
  _atom_site_label
  _atom_site_symmetry_multiplicity
  _atom_site_fract_x
  _atom_site_fract_y
  _atom_site_fract_z
  _atom_site_occupancy
  Cu  Cu1       1.0  0.62500  0.75000  0.25000  1.0000
  Cu  Cu2       1.0  0.37500  0.25000  0.75000  1.0000
  K   K1        1.0  0.05500  0.25000  0.11000  1.0000
  K   K2        1.0  0.69500  0.25000  0.39000  1.0000
  K   K3        1.0  0.30500  0.75000  0.61000  1.0000
  K   K4        1.0  0.94500  0.75000  0.89000  1.0000
  Se  Se1       1.0  0.40200  0.54800  0.13600  1.0000
  Se  Se2       1.0  0.73400  0.95200  0.13600  1.0000
  Se  Se3       1.0  0.05030  0.54800  0.36400  1.0000
  Se  Se4       1.0  0.31400  0.95200  0.36400  1.0000
  Se  Se5       1.0  0.68600  0.04770  0.63600  1.0000
  Se  Se6       1.0  0.95000  0.45200  0.63600  1.0000
  Se  Se7       1.0  0.26600  0.04770  0.86400  1.0000
  Se  Se8       1.0  0.59800  0.45200  0.86400  1.0000
  V   V1        1.0  0.12500  0.75000  0.25000  1.0000
  V   V2        1.0  0.87500  0.25000  0.75000  1.0000
