data_image0
_chemical_formula_structural       In10Th6
_chemical_formula_sum              "In10 Th6"
_cell_length_a       6.61747
_cell_length_b       6.61747
_cell_length_c       10.4409
_cell_angle_alpha    90
_cell_angle_beta     90
_cell_angle_gamma    77.7434

_space_group_name_H-M_alt    "P 1"
_space_group_IT_number       1

loop_
  _space_group_symop_operation_xyz
  'x, y, z'

loop_
  _atom_site_type_symbol
  _atom_site_label
  _atom_site_symmetry_multiplicity
  _atom_site_fract_x
  _atom_site_fract_y
  _atom_site_fract_z
  _atom_site_occupancy
  In  In1       1.0  0.69300  0.30700  0.04970  1.0000
  In  In2       1.0  0.98500  0.01480  0.25000  1.0000
  In  In3       1.0  0.50500  0.07430  0.25000  1.0000
  In  In4       1.0  0.92600  0.49500  0.25000  1.0000
  In  In5       1.0  0.69300  0.30700  0.45000  1.0000
  In  In6       1.0  0.30700  0.69300  0.55000  1.0000
  In  In7       1.0  0.07430  0.50500  0.75000  1.0000
  In  In8       1.0  0.49500  0.92600  0.75000  1.0000
  In  In9       1.0  0.01480  0.98500  0.75000  1.0000
  In  In10      1.0  0.30700  0.69300  0.95000  1.0000
  Th  Th1       1.0  0.20700  0.20700  0.00000  1.0000
  Th  Th2       1.0  0.79300  0.79300  0.00000  1.0000
  Th  Th3       1.0  0.37200  0.62800  0.25000  1.0000
  Th  Th4       1.0  0.20700  0.20700  0.50000  1.0000
  Th  Th5       1.0  0.79300  0.79300  0.50000  1.0000
  Th  Th6       1.0  0.62800  0.37200  0.75000  1.0000
