data_image0
_chemical_formula_structural       Br2Se4Tl10
_chemical_formula_sum              "Br2 Se4 Tl10"
_cell_length_a       8.65957
_cell_length_b       8.65957
_cell_length_c       8.90419
_cell_angle_alpha    119.095
_cell_angle_beta     119.095
_cell_angle_gamma    90

_space_group_name_H-M_alt    "P 1"
_space_group_IT_number       1

loop_
  _space_group_symop_operation_xyz
  'x, y, z'

loop_
  _atom_site_type_symbol
  _atom_site_label
  _atom_site_symmetry_multiplicity
  _atom_site_fract_x
  _atom_site_fract_y
  _atom_site_fract_z
  _atom_site_occupancy
  Br  Br1       1.0  0.25000  0.25000  0.50000  1.0000
  Br  Br2       1.0  0.75000  0.75000  0.50000  1.0000
  Se  Se1       1.0  0.34300  0.15700  0.00000  1.0000
  Se  Se2       1.0  0.84300  0.34300  0.00000  1.0000
  Se  Se3       1.0  0.15700  0.65700  0.00000  1.0000
  Se  Se4       1.0  0.65700  0.84300  0.00000  1.0000
  Tl  Tl1       1.0  0.00000  0.00000  0.00000  1.0000
  Tl  Tl2       1.0  0.50000  0.50000  0.00000  1.0000
  Tl  Tl3       1.0  0.49900  0.99900  0.29300  1.0000
  Tl  Tl4       1.0  0.79300  0.29300  0.29300  1.0000
  Tl  Tl5       1.0  0.29300  0.49900  0.29300  1.0000
  Tl  Tl6       1.0  0.99900  0.79300  0.29300  1.0000
  Tl  Tl7       1.0  0.50100  0.00065  0.70700  1.0000
  Tl  Tl8       1.0  0.00065  0.20700  0.70700  1.0000
  Tl  Tl9       1.0  0.70700  0.50100  0.70700  1.0000
  Tl  Tl10      1.0  0.20700  0.70700  0.70700  1.0000
