data_image0
_chemical_formula_structural       Cu2K2S8Sm4
_chemical_formula_sum              "Cu2 K2 S8 Sm4"
_cell_length_a       4.02196
_cell_length_b       7.14834
_cell_length_c       13.9088
_cell_angle_alpha    90
_cell_angle_beta     90
_cell_angle_gamma    73.6609

_space_group_name_H-M_alt    "P 1"
_space_group_IT_number       1

loop_
  _space_group_symop_operation_xyz
  'x, y, z'

loop_
  _atom_site_type_symbol
  _atom_site_label
  _atom_site_symmetry_multiplicity
  _atom_site_fract_x
  _atom_site_fract_y
  _atom_site_fract_z
  _atom_site_occupancy
  Cu  Cu1       1.0  0.16200  0.67600  0.25000  1.0000
  Cu  Cu2       1.0  0.83800  0.32400  0.75000  1.0000
  K   K1        1.0  0.89100  0.21700  0.25000  1.0000
  K   K2        1.0  0.10900  0.78300  0.75000  1.0000
  S   S1        1.0  0.00000  0.00000  0.00000  1.0000
  S   S2        1.0  0.26300  0.47300  0.11400  1.0000
  S   S3        1.0  0.56900  0.86300  0.25000  1.0000
  S   S4        1.0  0.26300  0.47300  0.38600  1.0000
  S   S5        1.0  0.00000  0.00000  0.50000  1.0000
  S   S6        1.0  0.73700  0.52700  0.61400  1.0000
  S   S7        1.0  0.43100  0.13700  0.75000  1.0000
  S   S8        1.0  0.73700  0.52700  0.88600  1.0000
  Sm  Sm1       1.0  0.63400  0.73100  0.06290  1.0000
  Sm  Sm2       1.0  0.63400  0.73100  0.43700  1.0000
  Sm  Sm3       1.0  0.36600  0.26900  0.56300  1.0000
  Sm  Sm4       1.0  0.36600  0.26900  0.93700  1.0000
