data_image0
_chemical_formula_structural       As2Bi2Ni2O10
_chemical_formula_sum              "As2 Bi2 Ni2 O10"
_cell_length_a       6.70056
_cell_length_b       6.80486
_cell_length_c       5.21592
_cell_angle_alpha    107.914
_cell_angle_beta     95.0561
_cell_angle_gamma    111.199

_space_group_name_H-M_alt    "P 1"
_space_group_IT_number       1

loop_
  _space_group_symop_operation_xyz
  'x, y, z'

loop_
  _atom_site_type_symbol
  _atom_site_label
  _atom_site_symmetry_multiplicity
  _atom_site_fract_x
  _atom_site_fract_y
  _atom_site_fract_z
  _atom_site_occupancy
  As  As1       1.0  0.18600  0.38600  0.15500  1.0000
  As  As2       1.0  0.81400  0.61400  0.84500  1.0000
  Bi  Bi1       1.0  0.23400  0.97300  0.41700  1.0000
  Bi  Bi2       1.0  0.76600  0.02680  0.58300  1.0000
  Ni  Ni1       1.0  0.63800  0.26300  0.17000  1.0000
  Ni  Ni2       1.0  0.36200  0.73700  0.83000  1.0000
  O   O1        1.0  0.91500  0.19300  0.08340  1.0000
  O   O2        1.0  0.76300  0.57800  0.14600  1.0000
  O   O3        1.0  0.50000  0.94800  0.22700  1.0000
  O   O4        1.0  0.35500  0.27800  0.27400  1.0000
  O   O5        1.0  0.21800  0.62800  0.42000  1.0000
  O   O6        1.0  0.78200  0.37200  0.58000  1.0000
  O   O7        1.0  0.64500  0.72200  0.72600  1.0000
  O   O8        1.0  0.50000  0.05180  0.77300  1.0000
  O   O9        1.0  0.23700  0.42200  0.85400  1.0000
  O   O10       1.0  0.08520  0.80700  0.91700  1.0000
