data_image0
_chemical_formula_structural       Cu2Nb2Rb4Se8
_chemical_formula_sum              "Cu2 Nb2 Rb4 Se8"
_cell_length_a       5.79869
_cell_length_b       7.61641
_cell_length_c       12.7863
_cell_angle_alpha    94.9518
_cell_angle_beta     103.106
_cell_angle_gamma    67.6248

_space_group_name_H-M_alt    "P 1"
_space_group_IT_number       1

loop_
  _space_group_symop_operation_xyz
  'x, y, z'

loop_
  _atom_site_type_symbol
  _atom_site_label
  _atom_site_symmetry_multiplicity
  _atom_site_fract_x
  _atom_site_fract_y
  _atom_site_fract_z
  _atom_site_occupancy
  Cu  Cu1       1.0  0.37500  0.75000  0.25000  1.0000
  Cu  Cu2       1.0  0.62500  0.25000  0.75000  1.0000
  Nb  Nb1       1.0  0.87500  0.75000  0.25000  1.0000
  Nb  Nb2       1.0  0.12500  0.25000  0.75000  1.0000
  Rb  Rb1       1.0  0.30400  0.25000  0.10800  1.0000
  Rb  Rb2       1.0  0.94600  0.25000  0.39200  1.0000
  Rb  Rb3       1.0  0.05380  0.75000  0.60800  1.0000
  Rb  Rb4       1.0  0.69600  0.75000  0.89200  1.0000
  Se  Se1       1.0  0.67300  0.55100  0.13800  1.0000
  Se  Se2       1.0  0.96600  0.94900  0.13800  1.0000
  Se  Se3       1.0  0.27600  0.55100  0.36200  1.0000
  Se  Se4       1.0  0.58500  0.94900  0.36200  1.0000
  Se  Se5       1.0  0.41500  0.05100  0.63800  1.0000
  Se  Se6       1.0  0.72400  0.44900  0.63800  1.0000
  Se  Se7       1.0  0.03420  0.05100  0.86200  1.0000
  Se  Se8       1.0  0.32700  0.44900  0.86200  1.0000
