data_image0
_chemical_formula_structural       Ag2K4Nb2S8
_chemical_formula_sum              "Ag2 K4 Nb2 S8"
_cell_length_a       5.95088
_cell_length_b       7.27979
_cell_length_c       11.7749
_cell_angle_alpha    95.9282
_cell_angle_beta     104.637
_cell_angle_gamma    65.8752

_space_group_name_H-M_alt    "P 1"
_space_group_IT_number       1

loop_
  _space_group_symop_operation_xyz
  'x, y, z'

loop_
  _atom_site_type_symbol
  _atom_site_label
  _atom_site_symmetry_multiplicity
  _atom_site_fract_x
  _atom_site_fract_y
  _atom_site_fract_z
  _atom_site_occupancy
  Ag  Ag1       1.0  0.37500  0.75000  0.25000  1.0000
  Ag  Ag2       1.0  0.62500  0.25000  0.75000  1.0000
  K   K1        1.0  0.30600  0.25000  0.11100  1.0000
  K   K2        1.0  0.94400  0.25000  0.38900  1.0000
  K   K3        1.0  0.05560  0.75000  0.61100  1.0000
  K   K4        1.0  0.69400  0.75000  0.88900  1.0000
  Nb  Nb1       1.0  0.87500  0.75000  0.25000  1.0000
  Nb  Nb2       1.0  0.12500  0.25000  0.75000  1.0000
  S   S1        1.0  0.70600  0.54200  0.13300  1.0000
  S   S2        1.0  0.92700  0.95800  0.13300  1.0000
  S   S3        1.0  0.25200  0.54200  0.36700  1.0000
  S   S4        1.0  0.61500  0.95800  0.36700  1.0000
  S   S5        1.0  0.38500  0.04190  0.63300  1.0000
  S   S6        1.0  0.74800  0.45800  0.63300  1.0000
  S   S7        1.0  0.07340  0.04190  0.86700  1.0000
  S   S8        1.0  0.29400  0.45800  0.86700  1.0000
