data_image0
_chemical_formula_structural       Ag2Cs4S8Ta2
_chemical_formula_sum              "Ag2 Cs4 S8 Ta2"
_cell_length_a       6.01079
_cell_length_b       7.77846
_cell_length_c       12.8334
_cell_angle_alpha    95.1914
_cell_angle_beta     103.544
_cell_angle_gamma    67.2709

_space_group_name_H-M_alt    "P 1"
_space_group_IT_number       1

loop_
  _space_group_symop_operation_xyz
  'x, y, z'

loop_
  _atom_site_type_symbol
  _atom_site_label
  _atom_site_symmetry_multiplicity
  _atom_site_fract_x
  _atom_site_fract_y
  _atom_site_fract_z
  _atom_site_occupancy
  Ag  Ag1       1.0  0.37500  0.75000  0.25000  1.0000
  Ag  Ag2       1.0  0.62500  0.25000  0.75000  1.0000
  Cs  Cs1       1.0  0.30400  0.25000  0.10700  1.0000
  Cs  Cs2       1.0  0.94600  0.25000  0.39300  1.0000
  Cs  Cs3       1.0  0.05370  0.75000  0.60700  1.0000
  Cs  Cs4       1.0  0.69600  0.75000  0.89300  1.0000
  S   S1        1.0  0.70200  0.56000  0.14300  1.0000
  S   S2        1.0  0.94000  0.94000  0.14300  1.0000
  S   S3        1.0  0.23700  0.56000  0.35700  1.0000
  S   S4        1.0  0.62000  0.94000  0.35700  1.0000
  S   S5        1.0  0.38000  0.06010  0.64300  1.0000
  S   S6        1.0  0.76300  0.44000  0.64300  1.0000
  S   S7        1.0  0.05990  0.06010  0.85700  1.0000
  S   S8        1.0  0.29800  0.44000  0.85700  1.0000
  Ta  Ta1       1.0  0.87500  0.75000  0.25000  1.0000
  Ta  Ta2       1.0  0.12500  0.25000  0.75000  1.0000
