data_image0
_chemical_formula_structural       Cu2Rb4S8V2
_chemical_formula_sum              "Cu2 Rb4 S8 V2"
_cell_length_a       5.46
_cell_length_b       7.21765
_cell_length_c       12.0708
_cell_angle_alpha    94.9073
_cell_angle_beta     103.071
_cell_angle_gamma    67.7753

_space_group_name_H-M_alt    "P 1"
_space_group_IT_number       1

loop_
  _space_group_symop_operation_xyz
  'x, y, z'

loop_
  _atom_site_type_symbol
  _atom_site_label
  _atom_site_symmetry_multiplicity
  _atom_site_fract_x
  _atom_site_fract_y
  _atom_site_fract_z
  _atom_site_occupancy
  Cu  Cu1       1.0  0.62500  0.75000  0.25000  1.0000
  Cu  Cu2       1.0  0.37500  0.25000  0.75000  1.0000
  Rb  Rb1       1.0  0.05310  0.25000  0.10600  1.0000
  Rb  Rb2       1.0  0.69700  0.25000  0.39400  1.0000
  Rb  Rb3       1.0  0.30300  0.75000  0.60600  1.0000
  Rb  Rb4       1.0  0.94700  0.75000  0.89400  1.0000
  S   S1        1.0  0.39700  0.56000  0.14300  1.0000
  S   S2        1.0  0.74600  0.94000  0.14300  1.0000
  S   S3        1.0  0.04270  0.56000  0.35700  1.0000
  S   S4        1.0  0.31400  0.94000  0.35700  1.0000
  S   S5        1.0  0.68600  0.06040  0.64300  1.0000
  S   S6        1.0  0.95700  0.44000  0.64300  1.0000
  S   S7        1.0  0.25400  0.06040  0.85700  1.0000
  S   S8        1.0  0.60300  0.44000  0.85700  1.0000
  V   V1        1.0  0.12500  0.75000  0.25000  1.0000
  V   V2        1.0  0.87500  0.25000  0.75000  1.0000
