data_image0
_chemical_formula_structural       B4Cl2O8Pr2
_chemical_formula_sum              "B4 Cl2 O8 Pr2"
_cell_length_a       4.21718
_cell_length_b       6.54918
_cell_length_c       8.00241
_cell_angle_alpha    82.4051
_cell_angle_beta     89.1414
_cell_angle_gamma    72.1071

_space_group_name_H-M_alt    "P 1"
_space_group_IT_number       1

loop_
  _space_group_symop_operation_xyz
  'x, y, z'

loop_
  _atom_site_type_symbol
  _atom_site_label
  _atom_site_symmetry_multiplicity
  _atom_site_fract_x
  _atom_site_fract_y
  _atom_site_fract_z
  _atom_site_occupancy
  B   B1        1.0  0.83000  0.65200  0.14900  1.0000
  B   B2        1.0  0.43400  0.43700  0.19600  1.0000
  B   B3        1.0  0.56600  0.56300  0.80400  1.0000
  B   B4        1.0  0.17000  0.34800  0.85100  1.0000
  Cl  Cl1       1.0  0.85500  0.79700  0.45800  1.0000
  Cl  Cl2       1.0  0.14500  0.20300  0.54200  1.0000
  O   O1        1.0  0.83800  0.84900  0.07850  1.0000
  O   O2        1.0  0.09400  0.46300  0.17900  1.0000
  O   O3        1.0  0.51500  0.62900  0.18500  1.0000
  O   O4        1.0  0.63300  0.23400  0.21100  1.0000
  O   O5        1.0  0.36700  0.76600  0.78900  1.0000
  O   O6        1.0  0.48500  0.37100  0.81500  1.0000
  O   O7        1.0  0.90600  0.53700  0.82100  1.0000
  O   O8        1.0  0.16200  0.15100  0.92200  1.0000
  Pr  Pr1       1.0  0.21100  0.03150  0.22300  1.0000
  Pr  Pr2       1.0  0.78900  0.96800  0.77700  1.0000
