data_image0
_chemical_formula_structural       Rh10Ti6
_chemical_formula_sum              "Rh10 Ti6"
_cell_length_a       5.38942
_cell_length_b       10.4382
_cell_length_c       4.11566
_cell_angle_alpha    90
_cell_angle_beta     90
_cell_angle_gamma    90

_space_group_name_H-M_alt    "P 1"
_space_group_IT_number       1

loop_
  _space_group_symop_operation_xyz
  'x, y, z'

loop_
  _atom_site_type_symbol
  _atom_site_label
  _atom_site_symmetry_multiplicity
  _atom_site_fract_x
  _atom_site_fract_y
  _atom_site_fract_z
  _atom_site_occupancy
  Rh  Rh1       1.0  0.50000  0.00000  0.00000  1.0000
  Rh  Rh2       1.0  0.11000  0.23400  0.00000  1.0000
  Rh  Rh3       1.0  0.61000  0.26600  0.00000  1.0000
  Rh  Rh4       1.0  0.00000  0.50000  0.00000  1.0000
  Rh  Rh5       1.0  0.39000  0.73400  0.00000  1.0000
  Rh  Rh6       1.0  0.89000  0.76600  0.00000  1.0000
  Rh  Rh7       1.0  0.81600  0.10700  0.50000  1.0000
  Rh  Rh8       1.0  0.31600  0.39300  0.50000  1.0000
  Rh  Rh9       1.0  0.68400  0.60700  0.50000  1.0000
  Rh  Rh10      1.0  0.18400  0.89300  0.50000  1.0000
  Ti  Ti1       1.0  0.00000  0.00000  0.00000  1.0000
  Ti  Ti2       1.0  0.50000  0.50000  0.00000  1.0000
  Ti  Ti3       1.0  0.34300  0.14400  0.50000  1.0000
  Ti  Ti4       1.0  0.84300  0.35600  0.50000  1.0000
  Ti  Ti5       1.0  0.15700  0.64400  0.50000  1.0000
  Ti  Ti6       1.0  0.65700  0.85600  0.50000  1.0000
