data_image0
_chemical_formula_structural       Ca10Hg6
_chemical_formula_sum              "Ca10 Hg6"
_cell_length_a       8.19621
_cell_length_b       8.19621
_cell_length_c       9.34045
_cell_angle_alpha    116.024
_cell_angle_beta     116.024
_cell_angle_gamma    90

_space_group_name_H-M_alt    "P 1"
_space_group_IT_number       1

loop_
  _space_group_symop_operation_xyz
  'x, y, z'

loop_
  _atom_site_type_symbol
  _atom_site_label
  _atom_site_symmetry_multiplicity
  _atom_site_fract_x
  _atom_site_fract_y
  _atom_site_fract_z
  _atom_site_occupancy
  Ca  Ca1       1.0  0.00000  0.00000  0.00000  1.0000
  Ca  Ca2       1.0  0.50000  0.50000  0.00000  1.0000
  Ca  Ca3       1.0  0.48400  0.31200  0.29600  1.0000
  Ca  Ca4       1.0  0.98400  0.48400  0.29600  1.0000
  Ca  Ca5       1.0  0.31200  0.81200  0.29600  1.0000
  Ca  Ca6       1.0  0.81200  0.98400  0.29600  1.0000
  Ca  Ca7       1.0  0.18800  0.01640  0.70400  1.0000
  Ca  Ca8       1.0  0.68800  0.18800  0.70400  1.0000
  Ca  Ca9       1.0  0.01640  0.51600  0.70400  1.0000
  Ca  Ca10      1.0  0.51600  0.68800  0.70400  1.0000
  Hg  Hg1       1.0  0.63500  0.13500  0.00000  1.0000
  Hg  Hg2       1.0  0.13500  0.36500  0.00000  1.0000
  Hg  Hg3       1.0  0.86500  0.63500  0.00000  1.0000
  Hg  Hg4       1.0  0.36500  0.86500  0.00000  1.0000
  Hg  Hg5       1.0  0.25000  0.25000  0.50000  1.0000
  Hg  Hg6       1.0  0.75000  0.75000  0.50000  1.0000
