data_image0
_chemical_formula_structural       Ag2K4S8Ta2
_chemical_formula_sum              "Ag2 K4 S8 Ta2"
_cell_length_a       5.97046
_cell_length_b       7.28384
_cell_length_c       11.7797
_cell_angle_alpha    95.9616
_cell_angle_beta     104.68
_cell_angle_gamma    65.8051

_space_group_name_H-M_alt    "P 1"
_space_group_IT_number       1

loop_
  _space_group_symop_operation_xyz
  'x, y, z'

loop_
  _atom_site_type_symbol
  _atom_site_label
  _atom_site_symmetry_multiplicity
  _atom_site_fract_x
  _atom_site_fract_y
  _atom_site_fract_z
  _atom_site_occupancy
  Ag  Ag1       1.0  0.37500  0.75000  0.25000  1.0000
  Ag  Ag2       1.0  0.62500  0.25000  0.75000  1.0000
  K   K1        1.0  0.30600  0.25000  0.11200  1.0000
  K   K2        1.0  0.94400  0.25000  0.38800  1.0000
  K   K3        1.0  0.05590  0.75000  0.61200  1.0000
  K   K4        1.0  0.69400  0.75000  0.88800  1.0000
  S   S1        1.0  0.70800  0.54200  0.13300  1.0000
  S   S2        1.0  0.92400  0.95800  0.13300  1.0000
  S   S3        1.0  0.24900  0.54200  0.36700  1.0000
  S   S4        1.0  0.61800  0.95800  0.36700  1.0000
  S   S5        1.0  0.38200  0.04220  0.63300  1.0000
  S   S6        1.0  0.75100  0.45800  0.63300  1.0000
  S   S7        1.0  0.07570  0.04220  0.86700  1.0000
  S   S8        1.0  0.29200  0.45800  0.86700  1.0000
  Ta  Ta1       1.0  0.87500  0.75000  0.25000  1.0000
  Ta  Ta2       1.0  0.12500  0.25000  0.75000  1.0000
