data_image0
_chemical_formula_structural       Cu2Ga2O6S2Sr4
_chemical_formula_sum              "Cu2 Ga2 O6 S2 Sr4"
_cell_length_a       3.87321
_cell_length_b       3.87321
_cell_length_c       15.6725
_cell_angle_alpha    90
_cell_angle_beta     90
_cell_angle_gamma    90

_space_group_name_H-M_alt    "P 1"
_space_group_IT_number       1

loop_
  _space_group_symop_operation_xyz
  'x, y, z'

loop_
  _atom_site_type_symbol
  _atom_site_label
  _atom_site_symmetry_multiplicity
  _atom_site_fract_x
  _atom_site_fract_y
  _atom_site_fract_z
  _atom_site_occupancy
  Cu  Cu1       1.0  0.75000  0.25000  0.00000  1.0000
  Cu  Cu2       1.0  0.25000  0.75000  0.00000  1.0000
  Ga  Ga1       1.0  0.25000  0.25000  0.31100  1.0000
  Ga  Ga2       1.0  0.75000  0.75000  0.68900  1.0000
  O   O1        1.0  0.75000  0.25000  0.28700  1.0000
  O   O2        1.0  0.25000  0.75000  0.28700  1.0000
  O   O3        1.0  0.25000  0.25000  0.43100  1.0000
  O   O4        1.0  0.75000  0.75000  0.56900  1.0000
  O   O5        1.0  0.75000  0.25000  0.71300  1.0000
  O   O6        1.0  0.25000  0.75000  0.71300  1.0000
  S   S1        1.0  0.25000  0.25000  0.09000  1.0000
  S   S2        1.0  0.75000  0.75000  0.91000  1.0000
  Sr  Sr1       1.0  0.75000  0.75000  0.18200  1.0000
  Sr  Sr2       1.0  0.75000  0.75000  0.41300  1.0000
  Sr  Sr3       1.0  0.25000  0.25000  0.58700  1.0000
  Sr  Sr4       1.0  0.25000  0.25000  0.81800  1.0000
