data_image0
_chemical_formula_structural       Br12Sr2Th2
_chemical_formula_sum              "Br12 Sr2 Th2"
_cell_length_a       9.36847
_cell_length_b       4.31589
_cell_length_c       12.7579
_cell_angle_alpha    90
_cell_angle_beta     90
_cell_angle_gamma    90

_space_group_name_H-M_alt    "P 1"
_space_group_IT_number       1

loop_
  _space_group_symop_operation_xyz
  'x, y, z'

loop_
  _atom_site_type_symbol
  _atom_site_label
  _atom_site_symmetry_multiplicity
  _atom_site_fract_x
  _atom_site_fract_y
  _atom_site_fract_z
  _atom_site_occupancy
  Br  Br1       1.0  0.25000  0.50000  0.09590  1.0000
  Br  Br2       1.0  0.54600  0.00000  0.15500  1.0000
  Br  Br3       1.0  0.95400  0.00000  0.15500  1.0000
  Br  Br4       1.0  0.07440  0.50000  0.35900  1.0000
  Br  Br5       1.0  0.42600  0.50000  0.35900  1.0000
  Br  Br6       1.0  0.75000  0.00000  0.43400  1.0000
  Br  Br7       1.0  0.25000  0.00000  0.56600  1.0000
  Br  Br8       1.0  0.57400  0.50000  0.64100  1.0000
  Br  Br9       1.0  0.92600  0.50000  0.64100  1.0000
  Br  Br10      1.0  0.04590  0.00000  0.84500  1.0000
  Br  Br11      1.0  0.45400  0.00000  0.84500  1.0000
  Br  Br12      1.0  0.75000  0.50000  0.90400  1.0000
  Sr  Sr1       1.0  0.75000  0.50000  0.26800  1.0000
  Sr  Sr2       1.0  0.25000  0.50000  0.73200  1.0000
  Th  Th1       1.0  0.25000  0.00000  0.25500  1.0000
  Th  Th2       1.0  0.75000  0.00000  0.74500  1.0000
