data_image0
_chemical_formula_structural       Cr10Ge6
_chemical_formula_sum              "Cr10 Ge6"
_cell_length_a       4.69778
_cell_length_b       6.98396
_cell_length_c       6.98396
_cell_angle_alpha    96.4949
_cell_angle_beta     70.3468
_cell_angle_gamma    109.653

_space_group_name_H-M_alt    "P 1"
_space_group_IT_number       1

loop_
  _space_group_symop_operation_xyz
  'x, y, z'

loop_
  _atom_site_type_symbol
  _atom_site_label
  _atom_site_symmetry_multiplicity
  _atom_site_fract_x
  _atom_site_fract_y
  _atom_site_fract_z
  _atom_site_occupancy
  Cr  Cr1       1.0  0.76400  0.68500  0.15700  1.0000
  Cr  Cr2       1.0  0.57900  0.31500  0.15700  1.0000
  Cr  Cr3       1.0  0.26400  0.84300  0.31500  1.0000
  Cr  Cr4       1.0  0.92100  0.15700  0.31500  1.0000
  Cr  Cr5       1.0  0.25000  0.50000  0.50000  1.0000
  Cr  Cr6       1.0  0.75000  0.50000  0.50000  1.0000
  Cr  Cr7       1.0  0.07880  0.84300  0.68500  1.0000
  Cr  Cr8       1.0  0.73600  0.15700  0.68500  1.0000
  Cr  Cr9       1.0  0.42100  0.68500  0.84300  1.0000
  Cr  Cr10      1.0  0.23600  0.31500  0.84300  1.0000
  Ge  Ge1       1.0  0.25000  0.00000  0.00000  1.0000
  Ge  Ge2       1.0  0.75000  0.00000  0.00000  1.0000
  Ge  Ge3       1.0  0.16600  0.50000  0.16700  1.0000
  Ge  Ge4       1.0  0.66600  0.83300  0.50000  1.0000
  Ge  Ge5       1.0  0.33400  0.16700  0.50000  1.0000
  Ge  Ge6       1.0  0.83400  0.50000  0.83300  1.0000
