data_image0
_chemical_formula_structural       B2Ba6O6P2
_chemical_formula_sum              "B2 Ba6 O6 P2"
_cell_length_a       5.53481
_cell_length_b       5.53487
_cell_length_c       13.418
_cell_angle_alpha    90
_cell_angle_beta     90
_cell_angle_gamma    120

_space_group_name_H-M_alt    "P 1"
_space_group_IT_number       1

loop_
  _space_group_symop_operation_xyz
  'x, y, z'

loop_
  _atom_site_type_symbol
  _atom_site_label
  _atom_site_symmetry_multiplicity
  _atom_site_fract_x
  _atom_site_fract_y
  _atom_site_fract_z
  _atom_site_occupancy
  B   B1        1.0  0.66700  0.33300  0.25000  1.0000
  B   B2        1.0  0.33300  0.66700  0.75000  1.0000
  Ba  Ba1       1.0  0.33300  0.66700  0.09610  1.0000
  Ba  Ba2       1.0  0.00000  0.00000  0.25000  1.0000
  Ba  Ba3       1.0  0.33300  0.66700  0.40400  1.0000
  Ba  Ba4       1.0  0.66700  0.33300  0.59600  1.0000
  Ba  Ba5       1.0  0.00000  0.00001  0.75000  1.0000
  Ba  Ba6       1.0  0.66700  0.33300  0.90400  1.0000
  O   O1        1.0  0.52100  0.04230  0.25000  1.0000
  O   O2        1.0  0.52100  0.47900  0.25000  1.0000
  O   O3        1.0  0.95800  0.47900  0.25000  1.0000
  O   O4        1.0  0.04240  0.52100  0.75000  1.0000
  O   O5        1.0  0.47900  0.52100  0.75000  1.0000
  O   O6        1.0  0.47900  0.95800  0.75000  1.0000
  P   P1        1.0  0.00000  0.00000  0.00000  1.0000
  P   P2        1.0  0.00000  0.00000  0.50000  1.0000
