data_image0
_chemical_formula_structural       Cd2Ge2Li4S8
_chemical_formula_sum              "Cd2 Ge2 Li4 S8"
_cell_length_a       7.7771
_cell_length_b       6.87567
_cell_length_c       6.4288
_cell_angle_alpha    90
_cell_angle_beta     90
_cell_angle_gamma    90

_space_group_name_H-M_alt    "P 1"
_space_group_IT_number       1

loop_
  _space_group_symop_operation_xyz
  'x, y, z'

loop_
  _atom_site_type_symbol
  _atom_site_label
  _atom_site_symmetry_multiplicity
  _atom_site_fract_x
  _atom_site_fract_y
  _atom_site_fract_z
  _atom_site_occupancy
  Cd  Cd1       1.0  0.00000  0.85300  0.37300  1.0000
  Cd  Cd2       1.0  0.50000  0.14700  0.87300  1.0000
  Ge  Ge1       1.0  0.50000  0.82600  0.37500  1.0000
  Ge  Ge2       1.0  0.00000  0.17400  0.87500  1.0000
  Li  Li1       1.0  0.25400  0.33100  0.37600  1.0000
  Li  Li2       1.0  0.74600  0.33100  0.37600  1.0000
  Li  Li3       1.0  0.24600  0.66900  0.87600  1.0000
  Li  Li4       1.0  0.75400  0.66900  0.87600  1.0000
  S   S1        1.0  0.00000  0.19500  0.22300  1.0000
  S   S2        1.0  0.27100  0.66600  0.25300  1.0000
  S   S3        1.0  0.72900  0.66600  0.25300  1.0000
  S   S4        1.0  0.50000  0.13700  0.27300  1.0000
  S   S5        1.0  0.50000  0.80500  0.72300  1.0000
  S   S6        1.0  0.22900  0.33400  0.75300  1.0000
  S   S7        1.0  0.77100  0.33400  0.75300  1.0000
  S   S8        1.0  0.00000  0.86300  0.77300  1.0000
