data_image0
_chemical_formula_structural       C6Cs2FeN6Ni
_chemical_formula_sum              "C6 Cs2 Fe1 N6 Ni1"
_cell_length_a       7.1883
_cell_length_b       7.1883
_cell_length_c       7.1883
_cell_angle_alpha    120
_cell_angle_beta     90
_cell_angle_gamma    120

_space_group_name_H-M_alt    "P 1"
_space_group_IT_number       1

loop_
  _space_group_symop_operation_xyz
  'x, y, z'

loop_
  _atom_site_type_symbol
  _atom_site_label
  _atom_site_symmetry_multiplicity
  _atom_site_fract_x
  _atom_site_fract_y
  _atom_site_fract_z
  _atom_site_occupancy
  C   C1        1.0  0.18400  0.00000  0.18400  1.0000
  C   C2        1.0  0.18400  0.36800  0.18400  1.0000
  C   C3        1.0  0.81600  0.00000  0.18400  1.0000
  C   C4        1.0  0.81600  0.00000  0.81600  1.0000
  C   C5        1.0  0.18400  0.00000  0.81600  1.0000
  C   C6        1.0  0.81600  0.63200  0.81600  1.0000
  Cs  Cs1       1.0  0.75000  0.50000  0.25000  1.0000
  Cs  Cs2       1.0  0.25000  0.50000  0.75000  1.0000
  Fe  Fe1       1.0  0.00000  0.00000  0.00000  1.0000
  N   N1        1.0  0.30000  0.00000  0.30000  1.0000
  N   N2        1.0  0.30000  0.60000  0.30000  1.0000
  N   N3        1.0  0.70000  0.00000  0.30000  1.0000
  N   N4        1.0  0.70000  0.00000  0.70000  1.0000
  N   N5        1.0  0.30000  0.00000  0.70000  1.0000
  N   N6        1.0  0.70000  0.40000  0.70000  1.0000
  Ni  Ni1       1.0  0.50000  0.00000  0.50000  1.0000
