data_image0
_chemical_formula_structural       C4O8Rb4
_chemical_formula_sum              "C4 O8 Rb4"
_cell_length_a       11.2211
_cell_length_b       6.2827
_cell_length_c       3.55223
_cell_angle_alpha    90
_cell_angle_beta     90
_cell_angle_gamma    90

_space_group_name_H-M_alt    "P 1"
_space_group_IT_number       1

loop_
  _space_group_symop_operation_xyz
  'x, y, z'

loop_
  _atom_site_type_symbol
  _atom_site_label
  _atom_site_symmetry_multiplicity
  _atom_site_fract_x
  _atom_site_fract_y
  _atom_site_fract_z
  _atom_site_occupancy
  C   C1        1.0  0.44100  0.06730  0.00000  1.0000
  C   C2        1.0  0.94100  0.43300  0.00000  1.0000
  C   C3        1.0  0.05920  0.56700  0.00000  1.0000
  C   C4        1.0  0.55900  0.93300  0.00000  1.0000
  O   O1        1.0  0.65700  0.03490  0.00000  1.0000
  O   O2        1.0  0.95100  0.23200  0.00000  1.0000
  O   O3        1.0  0.45100  0.26800  0.00000  1.0000
  O   O4        1.0  0.15700  0.46500  0.00000  1.0000
  O   O5        1.0  0.84300  0.53500  0.00000  1.0000
  O   O6        1.0  0.54900  0.73200  0.00000  1.0000
  O   O7        1.0  0.04870  0.76800  0.00000  1.0000
  O   O8        1.0  0.34300  0.96500  0.00000  1.0000
  Rb  Rb1       1.0  0.15200  0.09320  0.50000  1.0000
  Rb  Rb2       1.0  0.65200  0.40700  0.50000  1.0000
  Rb  Rb3       1.0  0.34800  0.59300  0.50000  1.0000
  Rb  Rb4       1.0  0.84800  0.90700  0.50000  1.0000
