data_image0
_chemical_formula_structural       CrGa7P8
_chemical_formula_sum              "Cr1 Ga7 P8"
_cell_length_a       5.48602
_cell_length_b       5.48602
_cell_length_c       10.9547
_cell_angle_alpha    90
_cell_angle_beta     90
_cell_angle_gamma    90

_space_group_name_H-M_alt    "P 1"
_space_group_IT_number       1

loop_
  _space_group_symop_operation_xyz
  'x, y, z'

loop_
  _atom_site_type_symbol
  _atom_site_label
  _atom_site_symmetry_multiplicity
  _atom_site_fract_x
  _atom_site_fract_y
  _atom_site_fract_z
  _atom_site_occupancy
  Cr  Cr1       1.0  0.00000  0.00000  0.00000  1.0000
  Ga  Ga1       1.0  0.50000  0.50000  0.00000  1.0000
  Ga  Ga2       1.0  0.50000  0.00000  0.24900  1.0000
  Ga  Ga3       1.0  0.00000  0.50000  0.24900  1.0000
  Ga  Ga4       1.0  0.00000  0.00000  0.50000  1.0000
  Ga  Ga5       1.0  0.50000  0.50000  0.50000  1.0000
  Ga  Ga6       1.0  0.50000  0.00000  0.75100  1.0000
  Ga  Ga7       1.0  0.00000  0.50000  0.75100  1.0000
  P   P1        1.0  0.24600  0.24600  0.12300  1.0000
  P   P2        1.0  0.75400  0.75400  0.12300  1.0000
  P   P3        1.0  0.75000  0.25000  0.37500  1.0000
  P   P4        1.0  0.25000  0.75000  0.37500  1.0000
  P   P5        1.0  0.25000  0.25000  0.62500  1.0000
  P   P6        1.0  0.75000  0.75000  0.62500  1.0000
  P   P7        1.0  0.75400  0.24600  0.87700  1.0000
  P   P8        1.0  0.24600  0.75400  0.87700  1.0000
