data_image0
_chemical_formula_structural       Cu4Lu4S8
_chemical_formula_sum              "Cu4 Lu4 S8"
_cell_length_a       13.1565
_cell_length_b       3.8901
_cell_length_c       6.20761
_cell_angle_alpha    90
_cell_angle_beta     90
_cell_angle_gamma    90

_space_group_name_H-M_alt    "P 1"
_space_group_IT_number       1

loop_
  _space_group_symop_operation_xyz
  'x, y, z'

loop_
  _atom_site_type_symbol
  _atom_site_label
  _atom_site_symmetry_multiplicity
  _atom_site_fract_x
  _atom_site_fract_y
  _atom_site_fract_z
  _atom_site_occupancy
  Cu  Cu1       1.0  0.94900  0.25000  0.11400  1.0000
  Cu  Cu2       1.0  0.44900  0.25000  0.38600  1.0000
  Cu  Cu3       1.0  0.55100  0.75000  0.61400  1.0000
  Cu  Cu4       1.0  0.05150  0.75000  0.88600  1.0000
  Lu  Lu1       1.0  0.63300  0.25000  0.00076  1.0000
  Lu  Lu2       1.0  0.13300  0.25000  0.49900  1.0000
  Lu  Lu3       1.0  0.86700  0.75000  0.50100  1.0000
  Lu  Lu4       1.0  0.36700  0.75000  0.99900  1.0000
  S   S1        1.0  0.29100  0.25000  0.23000  1.0000
  S   S2        1.0  0.53900  0.75000  0.24000  1.0000
  S   S3        1.0  0.03890  0.75000  0.26000  1.0000
  S   S4        1.0  0.79100  0.25000  0.27000  1.0000
  S   S5        1.0  0.20900  0.75000  0.73000  1.0000
  S   S6        1.0  0.96100  0.25000  0.74000  1.0000
  S   S7        1.0  0.46100  0.25000  0.76000  1.0000
  S   S8        1.0  0.70900  0.75000  0.77000  1.0000
