data_image0
_chemical_formula_structural       Ba2Be2F2O8P2
_chemical_formula_sum              "Ba2 Be2 F2 O8 P2"
_cell_length_a       4.83507
_cell_length_b       4.83534
_cell_length_c       9.01861
_cell_angle_alpha    105.373
_cell_angle_beta     105.365
_cell_angle_gamma    89.996

_space_group_name_H-M_alt    "P 1"
_space_group_IT_number       1

loop_
  _space_group_symop_operation_xyz
  'x, y, z'

loop_
  _atom_site_type_symbol
  _atom_site_label
  _atom_site_symmetry_multiplicity
  _atom_site_fract_x
  _atom_site_fract_y
  _atom_site_fract_z
  _atom_site_occupancy
  Ba  Ba1       1.0  0.99400  0.99300  0.99900  1.0000
  Ba  Ba2       1.0  0.74200  0.24300  0.49900  1.0000
  Be  Be1       1.0  0.58300  0.59800  0.16400  1.0000
  Be  Be2       1.0  0.34800  0.83300  0.66400  1.0000
  F   F1        1.0  0.57400  0.91800  0.15300  1.0000
  F   F2        1.0  0.66800  0.82400  0.65300  1.0000
  O   O1        1.0  0.91200  0.51100  0.19900  1.0000
  O   O2        1.0  0.45100  0.56600  0.30500  1.0000
  O   O3        1.0  0.16500  0.00722  0.34100  1.0000
  O   O4        1.0  0.14200  0.64300  0.49500  1.0000
  O   O5        1.0  0.26100  0.16300  0.69800  1.0000
  O   O6        1.0  0.31600  0.70200  0.80600  1.0000
  O   O7        1.0  0.75700  0.41600  0.84100  1.0000
  O   O8        1.0  0.39300  0.39200  0.99500  1.0000
  P   P1        1.0  0.16700  0.68900  0.33500  1.0000
  P   P2        1.0  0.43900  0.41800  0.83500  1.0000
