data_image0
_chemical_formula_structural       BaNb2O11V2
_chemical_formula_sum              "Ba1 Nb2 O11 V2"
_cell_length_a       5.56932
_cell_length_b       5.56932
_cell_length_c       9.89564
_cell_angle_alpha    73.6561
_cell_angle_beta     106.344
_cell_angle_gamma    120

_space_group_name_H-M_alt    "P 1"
_space_group_IT_number       1

loop_
  _space_group_symop_operation_xyz
  'x, y, z'

loop_
  _atom_site_type_symbol
  _atom_site_label
  _atom_site_symmetry_multiplicity
  _atom_site_fract_x
  _atom_site_fract_y
  _atom_site_fract_z
  _atom_site_occupancy
  Ba  Ba1       1.0  0.00000  0.00000  0.00000  1.0000
  Nb  Nb1       1.0  0.13000  0.87000  0.38900  1.0000
  Nb  Nb2       1.0  0.87000  0.13000  0.61100  1.0000
  O   O1        1.0  0.33600  0.66400  0.00927  1.0000
  O   O2        1.0  0.24300  0.24100  0.24500  1.0000
  O   O3        1.0  0.75900  0.75700  0.24500  1.0000
  O   O4        1.0  0.24300  0.75700  0.24500  1.0000
  O   O5        1.0  0.50000  1.00000  0.50000  1.0000
  O   O6        1.0  0.00000  0.00000  0.50000  1.0000
  O   O7        1.0  0.00000  0.50000  0.50000  1.0000
  O   O8        1.0  0.75700  0.24300  0.75500  1.0000
  O   O9        1.0  0.24100  0.24300  0.75500  1.0000
  O   O10       1.0  0.75700  0.75900  0.75500  1.0000
  O   O11       1.0  0.66400  0.33600  0.99100  1.0000
  V   V1        1.0  0.39600  0.60400  0.18800  1.0000
  V   V2        1.0  0.60400  0.39600  0.81200  1.0000
