data_image0
_chemical_formula_structural       C4N8Zn4
_chemical_formula_sum              "C4 N8 Zn4"
_cell_length_a       5.465
_cell_length_b       6.75567
_cell_length_c       6.75567
_cell_angle_alpha    99.4159
_cell_angle_beta     66.1417
_cell_angle_gamma    113.858

_space_group_name_H-M_alt    "P 1"
_space_group_IT_number       1

loop_
  _space_group_symop_operation_xyz
  'x, y, z'

loop_
  _atom_site_type_symbol
  _atom_site_label
  _atom_site_symmetry_multiplicity
  _atom_site_fract_x
  _atom_site_fract_y
  _atom_site_fract_z
  _atom_site_occupancy
  C   C1        1.0  0.12500  0.68300  0.18300  1.0000
  C   C2        1.0  0.55800  0.18300  0.31700  1.0000
  C   C3        1.0  0.69200  0.81700  0.68300  1.0000
  C   C4        1.0  0.62500  0.31700  0.81700  1.0000
  N   N1        1.0  0.97900  0.73700  0.12000  1.0000
  N   N2        1.0  0.27100  0.62000  0.23700  1.0000
  N   N3        1.0  0.75800  0.12000  0.26300  1.0000
  N   N4        1.0  0.34900  0.23700  0.38000  1.0000
  N   N5        1.0  0.49200  0.76300  0.62000  1.0000
  N   N6        1.0  0.90100  0.88000  0.73700  1.0000
  N   N7        1.0  0.88800  0.38000  0.76300  1.0000
  N   N8        1.0  0.36200  0.26300  0.88000  1.0000
  Zn  Zn1       1.0  0.17100  0.29600  0.20400  1.0000
  Zn  Zn2       1.0  0.62500  0.79600  0.29600  1.0000
  Zn  Zn3       1.0  0.12500  0.20400  0.70400  1.0000
  Zn  Zn4       1.0  0.07900  0.70400  0.79600  1.0000
