data_image0
_chemical_formula_structural       K4P8Te4
_chemical_formula_sum              "K4 P8 Te4"
_cell_length_a       7.09839
_cell_length_b       6.61736
_cell_length_c       10.069
_cell_angle_alpha    90
_cell_angle_beta     90.0396
_cell_angle_gamma    90

_space_group_name_H-M_alt    "P 1"
_space_group_IT_number       1

loop_
  _space_group_symop_operation_xyz
  'x, y, z'

loop_
  _atom_site_type_symbol
  _atom_site_label
  _atom_site_symmetry_multiplicity
  _atom_site_fract_x
  _atom_site_fract_y
  _atom_site_fract_z
  _atom_site_occupancy
  K   K1        1.0  0.22500  0.25000  0.00729  1.0000
  K   K2        1.0  0.02540  0.25000  0.38700  1.0000
  K   K3        1.0  0.97500  0.75000  0.61300  1.0000
  K   K4        1.0  0.77500  0.75000  0.99300  1.0000
  P   P1        1.0  0.50900  0.75000  0.28300  1.0000
  P   P2        1.0  0.49300  0.25000  0.29800  1.0000
  P   P3        1.0  0.60800  0.50500  0.42000  1.0000
  P   P4        1.0  0.60800  0.99500  0.42000  1.0000
  P   P5        1.0  0.39200  0.00523  0.58000  1.0000
  P   P6        1.0  0.39200  0.49500  0.58000  1.0000
  P   P7        1.0  0.50700  0.75000  0.70200  1.0000
  P   P8        1.0  0.49100  0.25000  0.71700  1.0000
  Te  Te1       1.0  0.70600  0.25000  0.09990  1.0000
  Te  Te2       1.0  0.15800  0.75000  0.26400  1.0000
  Te  Te3       1.0  0.84200  0.25000  0.73600  1.0000
  Te  Te4       1.0  0.29400  0.75000  0.90000  1.0000
