data_image0
_chemical_formula_structural       Cu4K2Se8V2
_chemical_formula_sum              "Cu4 K2 Se8 V2"
_cell_length_a       5.59895
_cell_length_b       7.64281
_cell_length_c       9.72125
_cell_angle_alpha    90
_cell_angle_beta     73.2633
_cell_angle_gamma    90

_space_group_name_H-M_alt    "P 1"
_space_group_IT_number       1

loop_
  _space_group_symop_operation_xyz
  'x, y, z'

loop_
  _atom_site_type_symbol
  _atom_site_label
  _atom_site_symmetry_multiplicity
  _atom_site_fract_x
  _atom_site_fract_y
  _atom_site_fract_z
  _atom_site_occupancy
  Cu  Cu1       1.0  0.27000  0.00000  0.00000  1.0000
  Cu  Cu2       1.0  0.27000  0.50000  0.00000  1.0000
  Cu  Cu3       1.0  0.64000  0.25000  0.21900  1.0000
  Cu  Cu4       1.0  0.85900  0.75000  0.78100  1.0000
  K   K1        1.0  0.82600  0.75000  0.36900  1.0000
  K   K2        1.0  0.19500  0.25000  0.63100  1.0000
  Se  Se1       1.0  0.00134  0.25000  0.01010  1.0000
  Se  Se2       1.0  0.37600  0.50100  0.22300  1.0000
  Se  Se3       1.0  0.37600  0.99900  0.22300  1.0000
  Se  Se4       1.0  0.80600  0.25000  0.42100  1.0000
  Se  Se5       1.0  0.22700  0.75000  0.57900  1.0000
  Se  Se6       1.0  0.59900  0.00082  0.77700  1.0000
  Se  Se7       1.0  0.59900  0.49900  0.77700  1.0000
  Se  Se8       1.0  0.01140  0.75000  0.99000  1.0000
  V   V1        1.0  0.14100  0.25000  0.21800  1.0000
  V   V2        1.0  0.35900  0.75000  0.78200  1.0000
