data_image0
_chemical_formula_structural       Ag4Ge2Pb2S8
_chemical_formula_sum              "Ag4 Ge2 Pb2 S8"
_cell_length_a       6.27641
_cell_length_b       6.27641
_cell_length_c       10.2615
_cell_angle_alpha    90
_cell_angle_beta     90
_cell_angle_gamma    66.6887

_space_group_name_H-M_alt    "P 1"
_space_group_IT_number       1

loop_
  _space_group_symop_operation_xyz
  'x, y, z'

loop_
  _atom_site_type_symbol
  _atom_site_label
  _atom_site_symmetry_multiplicity
  _atom_site_fract_x
  _atom_site_fract_y
  _atom_site_fract_z
  _atom_site_occupancy
  Ag  Ag1       1.0  0.35700  0.41000  0.09980  1.0000
  Ag  Ag2       1.0  0.35700  0.41000  0.40000  1.0000
  Ag  Ag3       1.0  0.59000  0.64300  0.60000  1.0000
  Ag  Ag4       1.0  0.59000  0.64300  0.90000  1.0000
  Ge  Ge1       1.0  0.72600  0.67500  0.25000  1.0000
  Ge  Ge2       1.0  0.32500  0.27400  0.75000  1.0000
  Pb  Pb1       1.0  0.98600  0.01380  0.00000  1.0000
  Pb  Pb2       1.0  0.98600  0.01380  0.50000  1.0000
  S   S1        1.0  0.90700  0.48900  0.06870  1.0000
  S   S2        1.0  0.73800  0.02620  0.25000  1.0000
  S   S3        1.0  0.35100  0.72700  0.25000  1.0000
  S   S4        1.0  0.90700  0.48900  0.43100  1.0000
  S   S5        1.0  0.51100  0.09260  0.56900  1.0000
  S   S6        1.0  0.97400  0.26200  0.75000  1.0000
  S   S7        1.0  0.27300  0.64900  0.75000  1.0000
  S   S8        1.0  0.51100  0.09260  0.93100  1.0000
