data_image0
_chemical_formula_structural       Hf6Ni4Si6
_chemical_formula_sum              "Hf6 Ni4 Si6"
_cell_length_a       3.83729
_cell_length_b       5.2844
_cell_length_c       12.9026
_cell_angle_alpha    90
_cell_angle_beta     90
_cell_angle_gamma    68.7107

_space_group_name_H-M_alt    "P 1"
_space_group_IT_number       1

loop_
  _space_group_symop_operation_xyz
  'x, y, z'

loop_
  _atom_site_type_symbol
  _atom_site_label
  _atom_site_symmetry_multiplicity
  _atom_site_fract_x
  _atom_site_fract_y
  _atom_site_fract_z
  _atom_site_occupancy
  Hf  Hf1       1.0  0.42700  0.14600  0.11800  1.0000
  Hf  Hf2       1.0  0.13400  0.73200  0.25000  1.0000
  Hf  Hf3       1.0  0.42700  0.14600  0.38200  1.0000
  Hf  Hf4       1.0  0.57300  0.85400  0.61800  1.0000
  Hf  Hf5       1.0  0.86600  0.26800  0.75000  1.0000
  Hf  Hf6       1.0  0.57300  0.85400  0.88200  1.0000
  Ni  Ni1       1.0  0.71900  0.56200  0.08830  1.0000
  Ni  Ni2       1.0  0.71900  0.56200  0.41200  1.0000
  Ni  Ni3       1.0  0.28100  0.43800  0.58800  1.0000
  Ni  Ni4       1.0  0.28100  0.43800  0.91200  1.0000
  Si  Si1       1.0  0.11100  0.77800  0.04080  1.0000
  Si  Si2       1.0  0.84000  0.32100  0.25000  1.0000
  Si  Si3       1.0  0.11100  0.77800  0.45900  1.0000
  Si  Si4       1.0  0.88900  0.22200  0.54100  1.0000
  Si  Si5       1.0  0.16000  0.67900  0.75000  1.0000
  Si  Si6       1.0  0.88900  0.22200  0.95900  1.0000
