data_image0
_chemical_formula_structural       Pb6Sc10
_chemical_formula_sum              "Pb6 Sc10"
_cell_length_a       8.51787
_cell_length_b       8.51787
_cell_length_c       6.16453
_cell_angle_alpha    90
_cell_angle_beta     90
_cell_angle_gamma    119.994

_space_group_name_H-M_alt    "P 1"
_space_group_IT_number       1

loop_
  _space_group_symop_operation_xyz
  'x, y, z'

loop_
  _atom_site_type_symbol
  _atom_site_label
  _atom_site_symmetry_multiplicity
  _atom_site_fract_x
  _atom_site_fract_y
  _atom_site_fract_z
  _atom_site_occupancy
  Pb  Pb1       1.0  0.60600  0.00000  0.25000  1.0000
  Pb  Pb2       1.0  0.00000  0.60600  0.25000  1.0000
  Pb  Pb3       1.0  0.39400  0.39400  0.25000  1.0000
  Pb  Pb4       1.0  0.39400  0.00000  0.75000  1.0000
  Pb  Pb5       1.0  0.00000  0.39400  0.75000  1.0000
  Pb  Pb6       1.0  0.60600  0.60600  0.75000  1.0000
  Sc  Sc1       1.0  0.66700  0.33300  0.00000  1.0000
  Sc  Sc2       1.0  0.33300  0.66700  0.00000  1.0000
  Sc  Sc3       1.0  0.23500  0.00000  0.25000  1.0000
  Sc  Sc4       1.0  0.00000  0.23500  0.25000  1.0000
  Sc  Sc5       1.0  0.76600  0.76600  0.25000  1.0000
  Sc  Sc6       1.0  0.66700  0.33300  0.50000  1.0000
  Sc  Sc7       1.0  0.33300  0.66700  0.50000  1.0000
  Sc  Sc8       1.0  0.76500  1.00000  0.75000  1.0000
  Sc  Sc9       1.0  0.23400  0.23400  0.75000  1.0000
  Sc  Sc10      1.0  0.00000  0.76500  0.75000  1.0000
