data_image0
_chemical_formula_structural       Sn10Sr6
_chemical_formula_sum              "Sn10 Sr6"
_cell_length_a       6.8693
_cell_length_b       6.8693
_cell_length_c       10.9253
_cell_angle_alpha    90
_cell_angle_beta     90
_cell_angle_gamma    77.6402

_space_group_name_H-M_alt    "P 1"
_space_group_IT_number       1

loop_
  _space_group_symop_operation_xyz
  'x, y, z'

loop_
  _atom_site_type_symbol
  _atom_site_label
  _atom_site_symmetry_multiplicity
  _atom_site_fract_x
  _atom_site_fract_y
  _atom_site_fract_z
  _atom_site_occupancy
  Sn  Sn1       1.0  0.69300  0.30700  0.05320  1.0000
  Sn  Sn2       1.0  0.96300  0.03660  0.25000  1.0000
  Sn  Sn3       1.0  0.51000  0.08550  0.25000  1.0000
  Sn  Sn4       1.0  0.91500  0.49000  0.25000  1.0000
  Sn  Sn5       1.0  0.69300  0.30700  0.44700  1.0000
  Sn  Sn6       1.0  0.30700  0.69300  0.55300  1.0000
  Sn  Sn7       1.0  0.08550  0.51000  0.75000  1.0000
  Sn  Sn8       1.0  0.49000  0.91500  0.75000  1.0000
  Sn  Sn9       1.0  0.03660  0.96300  0.75000  1.0000
  Sn  Sn10      1.0  0.30700  0.69300  0.94700  1.0000
  Sr  Sr1       1.0  0.20500  0.20500  0.00000  1.0000
  Sr  Sr2       1.0  0.79500  0.79500  0.00000  1.0000
  Sr  Sr3       1.0  0.36000  0.64000  0.25000  1.0000
  Sr  Sr4       1.0  0.20500  0.20500  0.50000  1.0000
  Sr  Sr5       1.0  0.79500  0.79500  0.50000  1.0000
  Sr  Sr6       1.0  0.64000  0.36000  0.75000  1.0000
