data_image0
_chemical_formula_structural       Ga2Ge4Na10
_chemical_formula_sum              "Ga2 Ge4 Na10"
_cell_length_a       5.62238
_cell_length_b       9.26998
_cell_length_c       8.28608
_cell_angle_alpha    90
_cell_angle_beta     97.8286
_cell_angle_gamma    90

_space_group_name_H-M_alt    "P 1"
_space_group_IT_number       1

loop_
  _space_group_symop_operation_xyz
  'x, y, z'

loop_
  _atom_site_type_symbol
  _atom_site_label
  _atom_site_symmetry_multiplicity
  _atom_site_fract_x
  _atom_site_fract_y
  _atom_site_fract_z
  _atom_site_occupancy
  Ga  Ga1       1.0  0.31100  0.25000  0.09320  1.0000
  Ga  Ga2       1.0  0.68900  0.75000  0.90700  1.0000
  Ge  Ge1       1.0  0.93400  0.75000  0.16300  1.0000
  Ge  Ge2       1.0  0.54100  0.25000  0.35600  1.0000
  Ge  Ge3       1.0  0.45900  0.75000  0.64400  1.0000
  Ge  Ge4       1.0  0.06570  0.25000  0.83700  1.0000
  Na  Na1       1.0  0.82000  0.07250  0.11600  1.0000
  Na  Na2       1.0  0.82000  0.42700  0.11600  1.0000
  Na  Na3       1.0  0.40600  0.57700  0.31000  1.0000
  Na  Na4       1.0  0.40600  0.92300  0.31000  1.0000
  Na  Na5       1.0  0.06660  0.25000  0.48200  1.0000
  Na  Na6       1.0  0.93300  0.75000  0.51800  1.0000
  Na  Na7       1.0  0.59400  0.07670  0.69000  1.0000
  Na  Na8       1.0  0.59400  0.42300  0.69000  1.0000
  Na  Na9       1.0  0.18000  0.57300  0.88400  1.0000
  Na  Na10      1.0  0.18000  0.92700  0.88400  1.0000
