data_image0
_chemical_formula_structural       Cu2Gd4K2S8
_chemical_formula_sum              "Cu2 Gd4 K2 S8"
_cell_length_a       3.9795
_cell_length_b       7.07385
_cell_length_c       13.8072
_cell_angle_alpha    90
_cell_angle_beta     90
_cell_angle_gamma    73.6633

_space_group_name_H-M_alt    "P 1"
_space_group_IT_number       1

loop_
  _space_group_symop_operation_xyz
  'x, y, z'

loop_
  _atom_site_type_symbol
  _atom_site_label
  _atom_site_symmetry_multiplicity
  _atom_site_fract_x
  _atom_site_fract_y
  _atom_site_fract_z
  _atom_site_occupancy
  Cu  Cu1       1.0  0.66300  0.67500  0.25000  1.0000
  Cu  Cu2       1.0  0.33700  0.32500  0.75000  1.0000
  Gd  Gd1       1.0  0.13400  0.73100  0.06330  1.0000
  Gd  Gd2       1.0  0.13400  0.73100  0.43700  1.0000
  Gd  Gd3       1.0  0.86600  0.26900  0.56300  1.0000
  Gd  Gd4       1.0  0.86600  0.26900  0.93700  1.0000
  K   K1        1.0  0.39100  0.21800  0.25000  1.0000
  K   K2        1.0  0.60900  0.78200  0.75000  1.0000
  S   S1        1.0  0.50000  0.00000  0.00000  1.0000
  S   S2        1.0  0.76300  0.47300  0.11200  1.0000
  S   S3        1.0  0.06870  0.86300  0.25000  1.0000
  S   S4        1.0  0.76300  0.47300  0.38800  1.0000
  S   S5        1.0  0.50000  0.00000  0.50000  1.0000
  S   S6        1.0  0.23700  0.52700  0.61200  1.0000
  S   S7        1.0  0.93100  0.13700  0.75000  1.0000
  S   S8        1.0  0.23700  0.52700  0.88800  1.0000
