data_image0
_chemical_formula_structural       Na6O2P2S6
_chemical_formula_sum              "Na6 O2 P2 S6"
_cell_length_a       5.94764
_cell_length_b       7.50173
_cell_length_c       7.50173
_cell_angle_alpha    78.8968
_cell_angle_beta     90
_cell_angle_gamma    90

_space_group_name_H-M_alt    "P 1"
_space_group_IT_number       1

loop_
  _space_group_symop_operation_xyz
  'x, y, z'

loop_
  _atom_site_type_symbol
  _atom_site_label
  _atom_site_symmetry_multiplicity
  _atom_site_fract_x
  _atom_site_fract_y
  _atom_site_fract_z
  _atom_site_occupancy
  Na  Na1       1.0  0.24900  0.68400  0.08490  1.0000
  Na  Na2       1.0  0.74900  0.91500  0.31600  1.0000
  Na  Na3       1.0  0.79600  0.36900  0.36900  1.0000
  Na  Na4       1.0  0.29600  0.63100  0.63100  1.0000
  Na  Na5       1.0  0.24900  0.08490  0.68400  1.0000
  Na  Na6       1.0  0.74900  0.31600  0.91500  1.0000
  O   O1        1.0  0.61200  0.19600  0.19600  1.0000
  O   O2        1.0  0.11200  0.80400  0.80400  1.0000
  P   P1        1.0  0.35300  0.20600  0.20600  1.0000
  P   P2        1.0  0.85300  0.79400  0.79400  1.0000
  S   S1        1.0  0.72700  0.68800  0.04630  1.0000
  S   S2        1.0  0.22700  0.95400  0.31200  1.0000
  S   S3        1.0  0.27000  0.38100  0.38100  1.0000
  S   S4        1.0  0.77000  0.61900  0.61900  1.0000
  S   S5        1.0  0.72700  0.04630  0.68800  1.0000
  S   S6        1.0  0.22700  0.31200  0.95400  1.0000
