data_image0
_chemical_formula_structural       Cs2Ga14
_chemical_formula_sum              "Cs2 Ga14"
_cell_length_a       6.70307
_cell_length_b       6.70307
_cell_length_c       10.4483
_cell_angle_alpha    71.2904
_cell_angle_beta     108.71
_cell_angle_gamma    120

_space_group_name_H-M_alt    "P 1"
_space_group_IT_number       1

loop_
  _space_group_symop_operation_xyz
  'x, y, z'

loop_
  _atom_site_type_symbol
  _atom_site_label
  _atom_site_symmetry_multiplicity
  _atom_site_fract_x
  _atom_site_fract_y
  _atom_site_fract_z
  _atom_site_occupancy
  Cs  Cs1       1.0  0.80500  0.19500  0.41600  1.0000
  Cs  Cs2       1.0  0.19500  0.80500  0.58400  1.0000
  Ga  Ga1       1.0  0.41900  0.18200  0.05550  1.0000
  Ga  Ga2       1.0  0.81800  0.18200  0.05550  1.0000
  Ga  Ga3       1.0  0.81800  0.58100  0.05550  1.0000
  Ga  Ga4       1.0  0.21600  0.20400  0.22800  1.0000
  Ga  Ga5       1.0  0.21600  0.78400  0.22800  1.0000
  Ga  Ga6       1.0  0.79600  0.78400  0.22800  1.0000
  Ga  Ga7       1.0  0.45500  0.54500  0.36600  1.0000
  Ga  Ga8       1.0  0.54500  0.45500  0.63400  1.0000
  Ga  Ga9       1.0  0.78400  0.21600  0.77200  1.0000
  Ga  Ga10      1.0  0.20400  0.21600  0.77200  1.0000
  Ga  Ga11      1.0  0.78400  0.79600  0.77200  1.0000
  Ga  Ga12      1.0  0.18200  0.41900  0.94500  1.0000
  Ga  Ga13      1.0  0.58100  0.81800  0.94500  1.0000
  Ga  Ga14      1.0  0.18200  0.81800  0.94500  1.0000
