data_image0
_chemical_formula_structural       Ni2O6P2Sc2Sr4
_chemical_formula_sum              "Ni2 O6 P2 Sc2 Sr4"
_cell_length_a       4.04444
_cell_length_b       4.04444
_cell_length_c       15.0745
_cell_angle_alpha    90
_cell_angle_beta     90
_cell_angle_gamma    90

_space_group_name_H-M_alt    "P 1"
_space_group_IT_number       1

loop_
  _space_group_symop_operation_xyz
  'x, y, z'

loop_
  _atom_site_type_symbol
  _atom_site_label
  _atom_site_symmetry_multiplicity
  _atom_site_fract_x
  _atom_site_fract_y
  _atom_site_fract_z
  _atom_site_occupancy
  Ni  Ni1       1.0  0.75000  0.25000  0.00000  1.0000
  Ni  Ni2       1.0  0.25000  0.75000  0.00000  1.0000
  O   O1        1.0  0.75000  0.25000  0.27600  1.0000
  O   O2        1.0  0.25000  0.75000  0.27600  1.0000
  O   O3        1.0  0.25000  0.25000  0.43000  1.0000
  O   O4        1.0  0.75000  0.75000  0.57000  1.0000
  O   O5        1.0  0.75000  0.25000  0.72400  1.0000
  O   O6        1.0  0.25000  0.75000  0.72400  1.0000
  P   P1        1.0  0.25000  0.25000  0.06080  1.0000
  P   P2        1.0  0.75000  0.75000  0.93900  1.0000
  Sc  Sc1       1.0  0.25000  0.25000  0.29800  1.0000
  Sc  Sc2       1.0  0.75000  0.75000  0.70200  1.0000
  Sr  Sr1       1.0  0.75000  0.75000  0.17200  1.0000
  Sr  Sr2       1.0  0.75000  0.75000  0.41000  1.0000
  Sr  Sr3       1.0  0.25000  0.25000  0.59000  1.0000
  Sr  Sr4       1.0  0.25000  0.25000  0.82800  1.0000
