data_image0
_chemical_formula_structural       Cd2Li4S8Sn2
_chemical_formula_sum              "Cd2 Li4 S8 Sn2"
_cell_length_a       8.01278
_cell_length_b       6.98055
_cell_length_c       6.53716
_cell_angle_alpha    90
_cell_angle_beta     90
_cell_angle_gamma    90

_space_group_name_H-M_alt    "P 1"
_space_group_IT_number       1

loop_
  _space_group_symop_operation_xyz
  'x, y, z'

loop_
  _atom_site_type_symbol
  _atom_site_label
  _atom_site_symmetry_multiplicity
  _atom_site_fract_x
  _atom_site_fract_y
  _atom_site_fract_z
  _atom_site_occupancy
  Cd  Cd1       1.0  0.50000  0.84200  0.30500  1.0000
  Cd  Cd2       1.0  0.00000  0.15800  0.80500  1.0000
  Li  Li1       1.0  0.24800  0.33200  0.30500  1.0000
  Li  Li2       1.0  0.75200  0.33200  0.30500  1.0000
  Li  Li3       1.0  0.25200  0.66800  0.80500  1.0000
  Li  Li4       1.0  0.74800  0.66800  0.80500  1.0000
  S   S1        1.0  0.50000  0.18800  0.17800  1.0000
  S   S2        1.0  0.24100  0.66000  0.17800  1.0000
  S   S3        1.0  0.75900  0.66000  0.17800  1.0000
  S   S4        1.0  0.00000  0.15900  0.19800  1.0000
  S   S5        1.0  0.00000  0.81200  0.67800  1.0000
  S   S6        1.0  0.25900  0.34000  0.67800  1.0000
  S   S7        1.0  0.74100  0.34000  0.67800  1.0000
  S   S8        1.0  0.50000  0.84100  0.69800  1.0000
  Sn  Sn1       1.0  0.00000  0.82900  0.30800  1.0000
  Sn  Sn2       1.0  0.50000  0.17100  0.80800  1.0000
