data_image0
_chemical_formula_structural       F2Fe2Li2O8S2
_chemical_formula_sum              "F2 Fe2 Li2 O8 S2"
_cell_length_a       5.11887
_cell_length_b       5.44346
_cell_length_c       7.12245
_cell_angle_alpha    106.429
_cell_angle_beta     107.819
_cell_angle_gamma    98.103

_space_group_name_H-M_alt    "P 1"
_space_group_IT_number       1

loop_
  _space_group_symop_operation_xyz
  'x, y, z'

loop_
  _atom_site_type_symbol
  _atom_site_label
  _atom_site_symmetry_multiplicity
  _atom_site_fract_x
  _atom_site_fract_y
  _atom_site_fract_z
  _atom_site_occupancy
  F   F1        1.0  0.85000  0.06870  0.23300  1.0000
  F   F2        1.0  0.15000  0.93100  0.76700  1.0000
  Fe  Fe1       1.0  0.00000  0.00000  0.00000  1.0000
  Fe  Fe2       1.0  0.00000  0.00000  0.50000  1.0000
  Li  Li1       1.0  0.72700  0.36200  0.20700  1.0000
  Li  Li2       1.0  0.27300  0.63800  0.79300  1.0000
  O   O1        1.0  0.27300  0.75500  0.09380  1.0000
  O   O2        1.0  0.33100  0.35000  0.15900  1.0000
  O   O3        1.0  0.09070  0.63500  0.34200  1.0000
  O   O4        1.0  0.59800  0.76000  0.42800  1.0000
  O   O5        1.0  0.40200  0.24000  0.57200  1.0000
  O   O6        1.0  0.90900  0.36500  0.65800  1.0000
  O   O7        1.0  0.66900  0.65000  0.84100  1.0000
  O   O8        1.0  0.72700  0.24500  0.90600  1.0000
  S   S1        1.0  0.32400  0.62900  0.25700  1.0000
  S   S2        1.0  0.67600  0.37100  0.74300  1.0000
