data_image0
_chemical_formula_structural       N8Si4Sr4
_chemical_formula_sum              "N8 Si4 Sr4"
_cell_length_a       5.95583
_cell_length_b       7.30987
_cell_length_c       5.51547
_cell_angle_alpha    90
_cell_angle_beta     113.396
_cell_angle_gamma    90

_space_group_name_H-M_alt    "P 1"
_space_group_IT_number       1

loop_
  _space_group_symop_operation_xyz
  'x, y, z'

loop_
  _atom_site_type_symbol
  _atom_site_label
  _atom_site_symmetry_multiplicity
  _atom_site_fract_x
  _atom_site_fract_y
  _atom_site_fract_z
  _atom_site_occupancy
  N   N1        1.0  0.21000  0.91100  0.08430  1.0000
  N   N2        1.0  0.78200  0.72300  0.11300  1.0000
  N   N3        1.0  0.21800  0.22300  0.38700  1.0000
  N   N4        1.0  0.79000  0.41100  0.41600  1.0000
  N   N5        1.0  0.21000  0.58900  0.58400  1.0000
  N   N6        1.0  0.78200  0.77700  0.61300  1.0000
  N   N7        1.0  0.21800  0.27700  0.88700  1.0000
  N   N8        1.0  0.79000  0.08910  0.91600  1.0000
  Si  Si1       1.0  0.10700  0.14100  0.06820  1.0000
  Si  Si2       1.0  0.89300  0.64100  0.43200  1.0000
  Si  Si3       1.0  0.10700  0.35900  0.56800  1.0000
  Si  Si4       1.0  0.89300  0.85900  0.93200  1.0000
  Sr  Sr1       1.0  0.33900  0.57300  0.17600  1.0000
  Sr  Sr2       1.0  0.66100  0.07280  0.32400  1.0000
  Sr  Sr3       1.0  0.33900  0.92700  0.67600  1.0000
  Sr  Sr4       1.0  0.66100  0.42700  0.82400  1.0000
