data_image0
_chemical_formula_structural       Cu2K2Pd2Se10
_chemical_formula_sum              "Cu2 K2 Pd2 Se10"
_cell_length_a       6.24405
_cell_length_b       7.37437
_cell_length_c       9.01657
_cell_angle_alpha    90
_cell_angle_beta     103.004
_cell_angle_gamma    90

_space_group_name_H-M_alt    "P 1"
_space_group_IT_number       1

loop_
  _space_group_symop_operation_xyz
  'x, y, z'

loop_
  _atom_site_type_symbol
  _atom_site_label
  _atom_site_symmetry_multiplicity
  _atom_site_fract_x
  _atom_site_fract_y
  _atom_site_fract_z
  _atom_site_occupancy
  Cu  Cu1       1.0  0.87900  0.75000  0.39300  1.0000
  Cu  Cu2       1.0  0.12100  0.25000  0.60700  1.0000
  K   K1        1.0  0.26000  0.25000  0.04570  1.0000
  K   K2        1.0  0.74000  0.75000  0.95400  1.0000
  Pd  Pd1       1.0  0.50000  0.00000  0.50000  1.0000
  Pd  Pd2       1.0  0.50000  0.50000  0.50000  1.0000
  Se  Se1       1.0  0.28600  0.75000  0.10300  1.0000
  Se  Se2       1.0  0.68200  0.01080  0.28100  1.0000
  Se  Se3       1.0  0.68200  0.48900  0.28100  1.0000
  Se  Se4       1.0  0.96100  0.25000  0.33900  1.0000
  Se  Se5       1.0  0.26700  0.75000  0.36400  1.0000
  Se  Se6       1.0  0.73300  0.25000  0.63600  1.0000
  Se  Se7       1.0  0.03850  0.75000  0.66100  1.0000
  Se  Se8       1.0  0.31800  0.51100  0.71900  1.0000
  Se  Se9       1.0  0.31800  0.98900  0.71900  1.0000
  Se  Se10      1.0  0.71400  0.25000  0.89700  1.0000
