data_image0
_chemical_formula_structural       C4Fe8Ni4
_chemical_formula_sum              "C4 Fe8 Ni4"
_cell_length_a       5.05898
_cell_length_b       6.71963
_cell_length_c       4.41395
_cell_angle_alpha    90
_cell_angle_beta     90
_cell_angle_gamma    90

_space_group_name_H-M_alt    "P 1"
_space_group_IT_number       1

loop_
  _space_group_symop_operation_xyz
  'x, y, z'

loop_
  _atom_site_type_symbol
  _atom_site_label
  _atom_site_symmetry_multiplicity
  _atom_site_fract_x
  _atom_site_fract_y
  _atom_site_fract_z
  _atom_site_occupancy
  C   C1        1.0  0.37900  0.25000  0.06040  1.0000
  C   C2        1.0  0.87900  0.25000  0.44000  1.0000
  C   C3        1.0  0.12100  0.75000  0.56000  1.0000
  C   C4        1.0  0.62100  0.75000  0.94000  1.0000
  Fe  Fe1       1.0  0.67700  0.06890  0.17000  1.0000
  Fe  Fe2       1.0  0.67700  0.43100  0.17000  1.0000
  Fe  Fe3       1.0  0.17700  0.06890  0.33000  1.0000
  Fe  Fe4       1.0  0.17700  0.43100  0.33000  1.0000
  Fe  Fe5       1.0  0.82300  0.56900  0.67000  1.0000
  Fe  Fe6       1.0  0.82300  0.93100  0.67000  1.0000
  Fe  Fe7       1.0  0.32300  0.56900  0.83000  1.0000
  Fe  Fe8       1.0  0.32300  0.93100  0.83000  1.0000
  Ni  Ni1       1.0  0.96200  0.75000  0.15900  1.0000
  Ni  Ni2       1.0  0.46200  0.75000  0.34100  1.0000
  Ni  Ni3       1.0  0.53800  0.25000  0.65900  1.0000
  Ni  Ni4       1.0  0.03800  0.25000  0.84100  1.0000
