data_image0
_chemical_formula_structural       C4O8Tl4
_chemical_formula_sum              "C4 O8 Tl4"
_cell_length_a       6.60666
_cell_length_b       5.79539
_cell_length_c       6.54661
_cell_angle_alpha    90
_cell_angle_beta     99.3144
_cell_angle_gamma    90

_space_group_name_H-M_alt    "P 1"
_space_group_IT_number       1

loop_
  _space_group_symop_operation_xyz
  'x, y, z'

loop_
  _atom_site_type_symbol
  _atom_site_label
  _atom_site_symmetry_multiplicity
  _atom_site_fract_x
  _atom_site_fract_y
  _atom_site_fract_z
  _atom_site_occupancy
  C   C1        1.0  0.57200  0.09410  0.05700  1.0000
  C   C2        1.0  0.42800  0.59400  0.44300  1.0000
  C   C3        1.0  0.57200  0.40600  0.55700  1.0000
  C   C4        1.0  0.42800  0.90600  0.94300  1.0000
  O   O1        1.0  0.76400  0.07160  0.06080  1.0000
  O   O2        1.0  0.48700  0.26000  0.13900  1.0000
  O   O3        1.0  0.51300  0.76000  0.36100  1.0000
  O   O4        1.0  0.23600  0.57200  0.43900  1.0000
  O   O5        1.0  0.76400  0.42800  0.56100  1.0000
  O   O6        1.0  0.48700  0.24000  0.63900  1.0000
  O   O7        1.0  0.51300  0.74000  0.86100  1.0000
  O   O8        1.0  0.23600  0.92800  0.93900  1.0000
  Tl  Tl1       1.0  0.82000  0.55900  0.17500  1.0000
  Tl  Tl2       1.0  0.18000  0.05930  0.32500  1.0000
  Tl  Tl3       1.0  0.82000  0.94100  0.67500  1.0000
  Tl  Tl4       1.0  0.18000  0.44100  0.82500  1.0000
