data_image0
_chemical_formula_structural       Ag2Nb2Rb4Se8
_chemical_formula_sum              "Ag2 Nb2 Rb4 Se8"
_cell_length_a       6.12901
_cell_length_b       7.65
_cell_length_c       12.6253
_cell_angle_alpha    95.5799
_cell_angle_beta     104.048
_cell_angle_gamma    66.385

_space_group_name_H-M_alt    "P 1"
_space_group_IT_number       1

loop_
  _space_group_symop_operation_xyz
  'x, y, z'

loop_
  _atom_site_type_symbol
  _atom_site_label
  _atom_site_symmetry_multiplicity
  _atom_site_fract_x
  _atom_site_fract_y
  _atom_site_fract_z
  _atom_site_occupancy
  Ag  Ag1       1.0  0.12500  0.75000  0.25000  1.0000
  Ag  Ag2       1.0  0.87500  0.25000  0.75000  1.0000
  Nb  Nb1       1.0  0.62500  0.75000  0.25000  1.0000
  Nb  Nb2       1.0  0.37500  0.25000  0.75000  1.0000
  Rb  Rb1       1.0  0.55600  0.25000  0.11100  1.0000
  Rb  Rb2       1.0  0.19400  0.25000  0.38900  1.0000
  Rb  Rb3       1.0  0.80600  0.75000  0.61100  1.0000
  Rb  Rb4       1.0  0.44400  0.75000  0.88900  1.0000
  Se  Se1       1.0  0.89000  0.54300  0.13300  1.0000
  Se  Se2       1.0  0.24300  0.95700  0.13300  1.0000
  Se  Se3       1.0  0.56700  0.54300  0.36700  1.0000
  Se  Se4       1.0  0.80000  0.95700  0.36700  1.0000
  Se  Se5       1.0  0.20000  0.04300  0.63300  1.0000
  Se  Se6       1.0  0.43300  0.45700  0.63300  1.0000
  Se  Se7       1.0  0.75700  0.04300  0.86700  1.0000
  Se  Se8       1.0  0.11000  0.45700  0.86700  1.0000
