data_image0
_chemical_formula_structural       Ba4N8Si4
_chemical_formula_sum              "Ba4 N8 Si4"
_cell_length_a       5.62769
_cell_length_b       6.35571
_cell_length_c       7.60991
_cell_angle_alpha    90
_cell_angle_beta     90
_cell_angle_gamma    63.722

_space_group_name_H-M_alt    "P 1"
_space_group_IT_number       1

loop_
  _space_group_symop_operation_xyz
  'x, y, z'

loop_
  _atom_site_type_symbol
  _atom_site_label
  _atom_site_symmetry_multiplicity
  _atom_site_fract_x
  _atom_site_fract_y
  _atom_site_fract_z
  _atom_site_occupancy
  Ba  Ba1       1.0  0.66400  0.67100  0.06530  1.0000
  Ba  Ba2       1.0  0.16400  0.67100  0.43500  1.0000
  Ba  Ba3       1.0  0.83600  0.32900  0.56500  1.0000
  Ba  Ba4       1.0  0.33600  0.32900  0.93500  1.0000
  N   N1        1.0  0.10200  0.79600  0.08080  1.0000
  N   N2        1.0  0.15200  0.19600  0.25000  1.0000
  N   N3        1.0  0.65200  0.19600  0.25000  1.0000
  N   N4        1.0  0.60200  0.79600  0.41900  1.0000
  N   N5        1.0  0.39800  0.20400  0.58100  1.0000
  N   N6        1.0  0.34800  0.80400  0.75000  1.0000
  N   N7        1.0  0.84800  0.80400  0.75000  1.0000
  N   N8        1.0  0.89800  0.20400  0.91900  1.0000
  Si  Si1       1.0  0.95100  0.09870  0.14000  1.0000
  Si  Si2       1.0  0.45100  0.09870  0.36000  1.0000
  Si  Si3       1.0  0.54900  0.90100  0.64000  1.0000
  Si  Si4       1.0  0.04940  0.90100  0.86000  1.0000
