data_image0
_chemical_formula_structural       Ag4C4N4S4
_chemical_formula_sum              "Ag4 C4 N4 S4"
_cell_length_a       5.93217
_cell_length_b       5.93217
_cell_length_c       8.06387
_cell_angle_alpha    92.6478
_cell_angle_beta     92.6478
_cell_angle_gamma    84.1748

_space_group_name_H-M_alt    "P 1"
_space_group_IT_number       1

loop_
  _space_group_symop_operation_xyz
  'x, y, z'

loop_
  _atom_site_type_symbol
  _atom_site_label
  _atom_site_symmetry_multiplicity
  _atom_site_fract_x
  _atom_site_fract_y
  _atom_site_fract_z
  _atom_site_occupancy
  Ag  Ag1       1.0  0.95500  0.74700  0.09680  1.0000
  Ag  Ag2       1.0  0.75300  0.54500  0.40300  1.0000
  Ag  Ag3       1.0  0.24700  0.45500  0.59700  1.0000
  Ag  Ag4       1.0  0.04520  0.25300  0.90300  1.0000
  C   C1        1.0  0.54500  0.24700  0.10700  1.0000
  C   C2        1.0  0.25300  0.95500  0.39300  1.0000
  C   C3        1.0  0.74700  0.04500  0.60700  1.0000
  C   C4        1.0  0.45500  0.75300  0.89300  1.0000
  N   N1        1.0  0.36200  0.25900  0.04330  1.0000
  N   N2        1.0  0.24100  0.13800  0.45700  1.0000
  N   N3        1.0  0.75900  0.86200  0.54300  1.0000
  N   N4        1.0  0.63800  0.74100  0.95700  1.0000
  S   S1        1.0  0.80200  0.22700  0.19400  1.0000
  S   S2        1.0  0.27300  0.69800  0.30600  1.0000
  S   S3        1.0  0.72700  0.30200  0.69400  1.0000
  S   S4        1.0  0.19800  0.77300  0.80600  1.0000
