data_image0
_chemical_formula_structural       Gd4S10Sn2
_chemical_formula_sum              "Gd4 S10 Sn2"
_cell_length_a       7.76849
_cell_length_b       11.3889
_cell_length_c       3.84041
_cell_angle_alpha    90
_cell_angle_beta     90
_cell_angle_gamma    90

_space_group_name_H-M_alt    "P 1"
_space_group_IT_number       1

loop_
  _space_group_symop_operation_xyz
  'x, y, z'

loop_
  _atom_site_type_symbol
  _atom_site_label
  _atom_site_symmetry_multiplicity
  _atom_site_fract_x
  _atom_site_fract_y
  _atom_site_fract_z
  _atom_site_occupancy
  Gd  Gd1       1.0  0.46800  0.17300  0.50000  1.0000
  Gd  Gd2       1.0  0.96800  0.32700  0.50000  1.0000
  Gd  Gd3       1.0  0.03240  0.67300  0.50000  1.0000
  Gd  Gd4       1.0  0.53200  0.82700  0.50000  1.0000
  S   S1        1.0  0.50000  0.00000  0.00000  1.0000
  S   S2        1.0  0.17500  0.19600  0.00000  1.0000
  S   S3        1.0  0.67500  0.30400  0.00000  1.0000
  S   S4        1.0  0.00000  0.50000  0.00000  1.0000
  S   S5        1.0  0.32500  0.69600  0.00000  1.0000
  S   S6        1.0  0.82500  0.80400  0.00000  1.0000
  S   S7        1.0  0.82800  0.09570  0.50000  1.0000
  S   S8        1.0  0.32800  0.40400  0.50000  1.0000
  S   S9        1.0  0.67200  0.59600  0.50000  1.0000
  S   S10       1.0  0.17200  0.90400  0.50000  1.0000
  Sn  Sn1       1.0  0.00000  0.00000  0.00000  1.0000
  Sn  Sn2       1.0  0.50000  0.50000  0.00000  1.0000
