data_image0
_chemical_formula_structural       Cu4Dy4S8
_chemical_formula_sum              "Cu4 Dy4 S8"
_cell_length_a       13.4433
_cell_length_b       3.96274
_cell_length_c       6.25895
_cell_angle_alpha    90
_cell_angle_beta     90
_cell_angle_gamma    90

_space_group_name_H-M_alt    "P 1"
_space_group_IT_number       1

loop_
  _space_group_symop_operation_xyz
  'x, y, z'

loop_
  _atom_site_type_symbol
  _atom_site_label
  _atom_site_symmetry_multiplicity
  _atom_site_fract_x
  _atom_site_fract_y
  _atom_site_fract_z
  _atom_site_occupancy
  Cu  Cu1       1.0  0.95400  0.25000  0.12900  1.0000
  Cu  Cu2       1.0  0.45400  0.25000  0.37100  1.0000
  Cu  Cu3       1.0  0.54600  0.75000  0.62900  1.0000
  Cu  Cu4       1.0  0.04580  0.75000  0.87100  1.0000
  Dy  Dy1       1.0  0.63300  0.25000  0.00093  1.0000
  Dy  Dy2       1.0  0.13300  0.25000  0.49900  1.0000
  Dy  Dy3       1.0  0.86700  0.75000  0.50100  1.0000
  Dy  Dy4       1.0  0.36700  0.75000  0.99900  1.0000
  S   S1        1.0  0.29500  0.25000  0.23700  1.0000
  S   S2        1.0  0.53900  0.75000  0.24800  1.0000
  S   S3        1.0  0.03930  0.75000  0.25200  1.0000
  S   S4        1.0  0.79500  0.25000  0.26300  1.0000
  S   S5        1.0  0.20500  0.75000  0.73700  1.0000
  S   S6        1.0  0.96100  0.25000  0.74800  1.0000
  S   S7        1.0  0.46100  0.25000  0.75200  1.0000
  S   S8        1.0  0.70500  0.75000  0.76300  1.0000
