data_image0
_chemical_formula_structural       Ga10Rh6
_chemical_formula_sum              "Ga10 Rh6"
_cell_length_a       5.00615
_cell_length_b       6.71578
_cell_length_c       7.94618
_cell_angle_alpha    100.749
_cell_angle_beta     104.655
_cell_angle_gamma    101.505

_space_group_name_H-M_alt    "P 1"
_space_group_IT_number       1

loop_
  _space_group_symop_operation_xyz
  'x, y, z'

loop_
  _atom_site_type_symbol
  _atom_site_label
  _atom_site_symmetry_multiplicity
  _atom_site_fract_x
  _atom_site_fract_y
  _atom_site_fract_z
  _atom_site_occupancy
  Ga  Ga1       1.0  0.91400  0.17800  0.04510  1.0000
  Ga  Ga2       1.0  0.31900  0.52500  0.12800  1.0000
  Ga  Ga3       1.0  0.55300  0.14400  0.27500  1.0000
  Ga  Ga4       1.0  0.04160  0.90700  0.34700  1.0000
  Ga  Ga5       1.0  0.22200  0.45000  0.45900  1.0000
  Ga  Ga6       1.0  0.77800  0.55000  0.54100  1.0000
  Ga  Ga7       1.0  0.95800  0.09310  0.65300  1.0000
  Ga  Ga8       1.0  0.44700  0.85600  0.72500  1.0000
  Ga  Ga9       1.0  0.68100  0.47500  0.87200  1.0000
  Ga  Ga10      1.0  0.08610  0.82200  0.95500  1.0000
  Rh  Rh1       1.0  0.63300  0.82700  0.05000  1.0000
  Rh  Rh2       1.0  0.84900  0.51500  0.22400  1.0000
  Rh  Rh3       1.0  0.54300  0.80500  0.42000  1.0000
  Rh  Rh4       1.0  0.45700  0.19500  0.58000  1.0000
  Rh  Rh5       1.0  0.15100  0.48500  0.77600  1.0000
  Rh  Rh6       1.0  0.36700  0.17300  0.95000  1.0000
