data_image0
_chemical_formula_structural       Cu2Gd4K2Se8
_chemical_formula_sum              "Cu2 Gd4 K2 Se8"
_cell_length_a       4.13591
_cell_length_b       7.36253
_cell_length_c       14.4396
_cell_angle_alpha    90
_cell_angle_beta     90
_cell_angle_gamma    73.6875

_space_group_name_H-M_alt    "P 1"
_space_group_IT_number       1

loop_
  _space_group_symop_operation_xyz
  'x, y, z'

loop_
  _atom_site_type_symbol
  _atom_site_label
  _atom_site_symmetry_multiplicity
  _atom_site_fract_x
  _atom_site_fract_y
  _atom_site_fract_z
  _atom_site_occupancy
  Cu  Cu1       1.0  0.34000  0.32000  0.25000  1.0000
  Cu  Cu2       1.0  0.66000  0.68000  0.75000  1.0000
  Gd  Gd1       1.0  0.86500  0.27000  0.06470  1.0000
  Gd  Gd2       1.0  0.86500  0.27000  0.43500  1.0000
  Gd  Gd3       1.0  0.13500  0.73000  0.56500  1.0000
  Gd  Gd4       1.0  0.13500  0.73000  0.93500  1.0000
  K   K1        1.0  0.61100  0.77700  0.25000  1.0000
  K   K2        1.0  0.38900  0.22300  0.75000  1.0000
  Se  Se1       1.0  0.50000  0.00000  0.00000  1.0000
  Se  Se2       1.0  0.23400  0.53200  0.11300  1.0000
  Se  Se3       1.0  0.93600  0.12800  0.25000  1.0000
  Se  Se4       1.0  0.23400  0.53200  0.38700  1.0000
  Se  Se5       1.0  0.50000  0.00000  0.50000  1.0000
  Se  Se6       1.0  0.76600  0.46800  0.61300  1.0000
  Se  Se7       1.0  0.06400  0.87200  0.75000  1.0000
  Se  Se8       1.0  0.76600  0.46800  0.88700  1.0000
