data_image0
_chemical_formula_structural       Cl12Cs2Sb2
_chemical_formula_sum              "Cl12 Cs2 Sb2"
_cell_length_a       6.52495
_cell_length_b       6.98799
_cell_length_c       12.4826
_cell_angle_alpha    101.063
_cell_angle_beta     90
_cell_angle_gamma    117.831

_space_group_name_H-M_alt    "P 1"
_space_group_IT_number       1

loop_
  _space_group_symop_operation_xyz
  'x, y, z'

loop_
  _atom_site_type_symbol
  _atom_site_label
  _atom_site_symmetry_multiplicity
  _atom_site_fract_x
  _atom_site_fract_y
  _atom_site_fract_z
  _atom_site_occupancy
  Cl  Cl1       1.0  0.11400  0.07330  0.08840  1.0000
  Cl  Cl2       1.0  0.20300  0.65400  0.14000  1.0000
  Cl  Cl3       1.0  0.64500  0.19200  0.20700  1.0000
  Cl  Cl4       1.0  0.85400  0.81000  0.29200  1.0000
  Cl  Cl5       1.0  0.29700  0.34700  0.35800  1.0000
  Cl  Cl6       1.0  0.38400  0.92900  0.40900  1.0000
  Cl  Cl7       1.0  0.95900  0.07330  0.58800  1.0000
  Cl  Cl8       1.0  0.45100  0.65400  0.64000  1.0000
  Cl  Cl9       1.0  0.54600  0.19200  0.70700  1.0000
  Cl  Cl10      1.0  0.95600  0.81000  0.79200  1.0000
  Cl  Cl11      1.0  0.05000  0.34700  0.85800  1.0000
  Cl  Cl12      1.0  0.54500  0.92900  0.90900  1.0000
  Cs  Cs1       1.0  0.87100  0.50000  0.50000  1.0000
  Cs  Cs2       1.0  0.62900  0.50000  0.00000  1.0000
  Sb  Sb1       1.0  0.24900  0.00104  0.24900  1.0000
  Sb  Sb2       1.0  0.75200  0.00104  0.74900  1.0000
