data_image0
_chemical_formula_structural       Ba2Cu4Se8Sn2
_chemical_formula_sum              "Ba2 Cu4 Se8 Sn2"
_cell_length_a       6.61146
_cell_length_b       6.61146
_cell_length_c       11.16
_cell_angle_alpha    90
_cell_angle_beta     90
_cell_angle_gamma    118.154

_space_group_name_H-M_alt    "P 1"
_space_group_IT_number       1

loop_
  _space_group_symop_operation_xyz
  'x, y, z'

loop_
  _atom_site_type_symbol
  _atom_site_label
  _atom_site_symmetry_multiplicity
  _atom_site_fract_x
  _atom_site_fract_y
  _atom_site_fract_z
  _atom_site_occupancy
  Ba  Ba1       1.0  0.36200  0.36200  0.00000  1.0000
  Ba  Ba2       1.0  0.36200  0.36200  0.50000  1.0000
  Cu  Cu1       1.0  0.55600  0.99000  0.13000  1.0000
  Cu  Cu2       1.0  0.55600  0.99000  0.37000  1.0000
  Cu  Cu3       1.0  0.99000  0.55600  0.63000  1.0000
  Cu  Cu4       1.0  0.99000  0.55600  0.87000  1.0000
  Se  Se1       1.0  0.86700  0.36000  0.06790  1.0000
  Se  Se2       1.0  0.26000  0.03520  0.25000  1.0000
  Se  Se3       1.0  0.55300  0.67800  0.25000  1.0000
  Se  Se4       1.0  0.86700  0.36000  0.43200  1.0000
  Se  Se5       1.0  0.36000  0.86700  0.56800  1.0000
  Se  Se6       1.0  0.03520  0.26000  0.75000  1.0000
  Se  Se7       1.0  0.67800  0.55300  0.75000  1.0000
  Se  Se8       1.0  0.36000  0.86700  0.93200  1.0000
  Sn  Sn1       1.0  0.92000  0.62500  0.25000  1.0000
  Sn  Sn2       1.0  0.62500  0.92000  0.75000  1.0000
