data_image0
_chemical_formula_structural       Pr4S10Sn2
_chemical_formula_sum              "Pr4 S10 Sn2"
_cell_length_a       7.89247
_cell_length_b       11.3405
_cell_length_c       3.99388
_cell_angle_alpha    90
_cell_angle_beta     90
_cell_angle_gamma    90

_space_group_name_H-M_alt    "P 1"
_space_group_IT_number       1

loop_
  _space_group_symop_operation_xyz
  'x, y, z'

loop_
  _atom_site_type_symbol
  _atom_site_label
  _atom_site_symmetry_multiplicity
  _atom_site_fract_x
  _atom_site_fract_y
  _atom_site_fract_z
  _atom_site_occupancy
  Pr  Pr1       1.0  0.43300  0.17000  0.50000  1.0000
  Pr  Pr2       1.0  0.93300  0.33000  0.50000  1.0000
  Pr  Pr3       1.0  0.06650  0.67000  0.50000  1.0000
  Pr  Pr4       1.0  0.56700  0.83000  0.50000  1.0000
  S   S1        1.0  0.50000  0.00000  0.00000  1.0000
  S   S2        1.0  0.15000  0.20200  0.00000  1.0000
  S   S3        1.0  0.65000  0.29800  0.00000  1.0000
  S   S4        1.0  0.00000  0.50000  0.00000  1.0000
  S   S5        1.0  0.35000  0.70200  0.00000  1.0000
  S   S6        1.0  0.85000  0.79800  0.00000  1.0000
  S   S7        1.0  0.81400  0.07460  0.50000  1.0000
  S   S8        1.0  0.31400  0.42500  0.50000  1.0000
  S   S9        1.0  0.68600  0.57500  0.50000  1.0000
  S   S10       1.0  0.18600  0.92500  0.50000  1.0000
  Sn  Sn1       1.0  0.00000  0.00000  0.00000  1.0000
  Sn  Sn2       1.0  0.50000  0.50000  0.00000  1.0000
