data_image0
_chemical_formula_structural       Fe10Si6
_chemical_formula_sum              "Fe10 Si6"
_cell_length_a       6.68303
_cell_length_b       6.68302
_cell_length_c       4.66791
_cell_angle_alpha    90
_cell_angle_beta     90
_cell_angle_gamma    119.996

_space_group_name_H-M_alt    "P 1"
_space_group_IT_number       1

loop_
  _space_group_symop_operation_xyz
  'x, y, z'

loop_
  _atom_site_type_symbol
  _atom_site_label
  _atom_site_symmetry_multiplicity
  _atom_site_fract_x
  _atom_site_fract_y
  _atom_site_fract_z
  _atom_site_occupancy
  Fe  Fe1       1.0  0.66700  0.33300  0.00000  1.0000
  Fe  Fe2       1.0  0.33300  0.66700  0.00000  1.0000
  Fe  Fe3       1.0  0.76100  0.76100  0.25000  1.0000
  Fe  Fe4       1.0  0.23900  0.00000  0.25000  1.0000
  Fe  Fe5       1.0  0.00000  0.23900  0.25000  1.0000
  Fe  Fe6       1.0  0.66700  0.33300  0.50000  1.0000
  Fe  Fe7       1.0  0.33300  0.66700  0.50000  1.0000
  Fe  Fe8       1.0  0.23900  0.23900  0.75000  1.0000
  Fe  Fe9       1.0  0.76100  0.00000  0.75000  1.0000
  Fe  Fe10      1.0  0.00000  0.76100  0.75000  1.0000
  Si  Si1       1.0  0.60500  0.00000  0.25000  1.0000
  Si  Si2       1.0  0.00000  0.60500  0.25000  1.0000
  Si  Si3       1.0  0.39500  0.39500  0.25000  1.0000
  Si  Si4       1.0  0.39500  0.00001  0.75000  1.0000
  Si  Si5       1.0  0.00001  0.39500  0.75000  1.0000
  Si  Si6       1.0  0.60500  0.60500  0.75000  1.0000
