data_image0
_chemical_formula_structural       Ge4Lu2Ni2
_chemical_formula_sum              "Ge4 Lu2 Ni2"
_cell_length_a       4.125
_cell_length_b       3.99868
_cell_length_c       8.65993
_cell_angle_alpha    76.6516
_cell_angle_beta     90
_cell_angle_gamma    90

_space_group_name_H-M_alt    "P 1"
_space_group_IT_number       1

loop_
  _space_group_symop_operation_xyz
  'x, y, z'

loop_
  _atom_site_type_symbol
  _atom_site_label
  _atom_site_symmetry_multiplicity
  _atom_site_fract_x
  _atom_site_fract_y
  _atom_site_fract_z
  _atom_site_occupancy
  Ge  Ge1       1.0  0.75000  0.46000  0.07980  1.0000
  Ge  Ge2       1.0  0.25000  0.25100  0.49700  1.0000
  Ge  Ge3       1.0  0.75000  0.74900  0.50300  1.0000
  Ge  Ge4       1.0  0.25000  0.54000  0.92000  1.0000
  Lu  Lu1       1.0  0.25000  0.89300  0.21500  1.0000
  Lu  Lu2       1.0  0.75000  0.10700  0.78500  1.0000
  Ni  Ni1       1.0  0.75000  0.32500  0.35000  1.0000
  Ni  Ni2       1.0  0.25000  0.67500  0.65000  1.0000
