data_image0
_chemical_formula_structural       C4K4O8
_chemical_formula_sum              "C4 K4 O8"
_cell_length_a       10.8264
_cell_length_b       6.08524
_cell_length_c       3.36955
_cell_angle_alpha    90
_cell_angle_beta     90
_cell_angle_gamma    90

_space_group_name_H-M_alt    "P 1"
_space_group_IT_number       1

loop_
  _space_group_symop_operation_xyz
  'x, y, z'

loop_
  _atom_site_type_symbol
  _atom_site_label
  _atom_site_symmetry_multiplicity
  _atom_site_fract_x
  _atom_site_fract_y
  _atom_site_fract_z
  _atom_site_occupancy
  C   C1        1.0  0.43800  0.06950  0.00000  1.0000
  C   C2        1.0  0.93800  0.43000  0.00000  1.0000
  C   C3        1.0  0.06150  0.57000  0.00000  1.0000
  C   C4        1.0  0.56200  0.93000  0.00000  1.0000
  K   K1        1.0  0.15100  0.09520  0.50000  1.0000
  K   K2        1.0  0.65100  0.40500  0.50000  1.0000
  K   K3        1.0  0.34900  0.59500  0.50000  1.0000
  K   K4        1.0  0.84900  0.90500  0.50000  1.0000
  O   O1        1.0  0.66200  0.03700  0.00000  1.0000
  O   O2        1.0  0.95000  0.22400  0.00000  1.0000
  O   O3        1.0  0.45000  0.27600  0.00000  1.0000
  O   O4        1.0  0.16200  0.46300  0.00000  1.0000
  O   O5        1.0  0.83800  0.53700  0.00000  1.0000
  O   O6        1.0  0.55000  0.72400  0.00000  1.0000
  O   O7        1.0  0.05010  0.77600  0.00000  1.0000
  O   O8        1.0  0.33800  0.96300  0.00000  1.0000
