data_image0
_chemical_formula_structural       Fe2O6P2Sc2Sr4
_chemical_formula_sum              "Fe2 O6 P2 Sc2 Sr4"
_cell_length_a       4.05112
_cell_length_b       4.05112
_cell_length_c       15.8125
_cell_angle_alpha    90
_cell_angle_beta     90
_cell_angle_gamma    90

_space_group_name_H-M_alt    "P 1"
_space_group_IT_number       1

loop_
  _space_group_symop_operation_xyz
  'x, y, z'

loop_
  _atom_site_type_symbol
  _atom_site_label
  _atom_site_symmetry_multiplicity
  _atom_site_fract_x
  _atom_site_fract_y
  _atom_site_fract_z
  _atom_site_occupancy
  Fe  Fe1       1.0  0.75000  0.25000  0.00000  1.0000
  Fe  Fe2       1.0  0.25000  0.75000  0.00000  1.0000
  O   O1        1.0  0.75000  0.25000  0.28700  1.0000
  O   O2        1.0  0.25000  0.75000  0.28700  1.0000
  O   O3        1.0  0.25000  0.25000  0.43400  1.0000
  O   O4        1.0  0.75000  0.75000  0.56600  1.0000
  O   O5        1.0  0.75000  0.25000  0.71300  1.0000
  O   O6        1.0  0.25000  0.75000  0.71300  1.0000
  P   P1        1.0  0.25000  0.25000  0.09180  1.0000
  P   P2        1.0  0.75000  0.75000  0.90800  1.0000
  Sc  Sc1       1.0  0.25000  0.25000  0.30800  1.0000
  Sc  Sc2       1.0  0.75000  0.75000  0.69200  1.0000
  Sr  Sr1       1.0  0.75000  0.75000  0.19000  1.0000
  Sr  Sr2       1.0  0.75000  0.75000  0.41500  1.0000
  Sr  Sr3       1.0  0.25000  0.25000  0.58500  1.0000
  Sr  Sr4       1.0  0.25000  0.25000  0.81000  1.0000
