data_image0
_chemical_formula_structural       Al2C6V8
_chemical_formula_sum              "Al2 C6 V8"
_cell_length_a       2.91593
_cell_length_b       2.91594
_cell_length_c       22.7465
_cell_angle_alpha    90
_cell_angle_beta     90
_cell_angle_gamma    120

_space_group_name_H-M_alt    "P 1"
_space_group_IT_number       1

loop_
  _space_group_symop_operation_xyz
  'x, y, z'

loop_
  _atom_site_type_symbol
  _atom_site_label
  _atom_site_symmetry_multiplicity
  _atom_site_fract_x
  _atom_site_fract_y
  _atom_site_fract_z
  _atom_site_occupancy
  Al  Al1       1.0  0.33300  0.66700  0.25000  1.0000
  Al  Al2       1.0  0.66700  0.33300  0.75000  1.0000
  C   C1        1.0  0.00000  0.00000  0.00000  1.0000
  C   C2        1.0  0.66700  0.33300  0.10700  1.0000
  C   C3        1.0  0.66700  0.33300  0.39300  1.0000
  C   C4        1.0  0.00000  0.00000  0.50000  1.0000
  C   C5        1.0  0.33300  0.66700  0.60700  1.0000
  C   C6        1.0  0.33300  0.66700  0.89300  1.0000
  V   V1        1.0  0.33300  0.66700  0.05420  1.0000
  V   V2        1.0  0.00001  0.00001  0.15400  1.0000
  V   V3        1.0  0.00001  0.00001  0.34600  1.0000
  V   V4        1.0  0.33300  0.66700  0.44600  1.0000
  V   V5        1.0  0.66700  0.33300  0.55400  1.0000
  V   V6        1.0  0.00000  0.00000  0.65400  1.0000
  V   V7        1.0  0.00000  0.00000  0.84600  1.0000
  V   V8        1.0  0.66700  0.33300  0.94600  1.0000
