data_image0
_chemical_formula_structural       I10In2Pb4
_chemical_formula_sum              "I10 In2 Pb4"
_cell_length_a       8.94793
_cell_length_b       8.94793
_cell_length_c       9.92655
_cell_angle_alpha    116.789
_cell_angle_beta     116.789
_cell_angle_gamma    90

_space_group_name_H-M_alt    "P 1"
_space_group_IT_number       1

loop_
  _space_group_symop_operation_xyz
  'x, y, z'

loop_
  _atom_site_type_symbol
  _atom_site_label
  _atom_site_symmetry_multiplicity
  _atom_site_fract_x
  _atom_site_fract_y
  _atom_site_fract_z
  _atom_site_occupancy
  I   I1        1.0  0.00000  0.00000  0.00000  1.0000
  I   I2        1.0  0.50000  0.50000  0.00000  1.0000
  I   I3        1.0  0.79800  0.29800  0.28300  1.0000
  I   I4        1.0  0.29800  0.48500  0.28300  1.0000
  I   I5        1.0  0.98500  0.79800  0.28300  1.0000
  I   I6        1.0  0.48500  0.98500  0.28300  1.0000
  I   I7        1.0  0.51500  0.01470  0.71700  1.0000
  I   I8        1.0  0.01470  0.20200  0.71700  1.0000
  I   I9        1.0  0.70200  0.51500  0.71700  1.0000
  I   I10       1.0  0.20200  0.70200  0.71700  1.0000
  In  In1       1.0  0.25000  0.25000  0.50000  1.0000
  In  In2       1.0  0.75000  0.75000  0.50000  1.0000
  Pb  Pb1       1.0  0.33800  0.16200  0.00000  1.0000
  Pb  Pb2       1.0  0.83800  0.33800  0.00000  1.0000
  Pb  Pb3       1.0  0.16200  0.66200  0.00000  1.0000
  Pb  Pb4       1.0  0.66200  0.83800  0.00000  1.0000
