data_image0
_chemical_formula_structural       Ba6Pb10
_chemical_formula_sum              "Ba6 Pb10"
_cell_length_a       7.25474
_cell_length_b       7.25474
_cell_length_c       11.4746
_cell_angle_alpha    90
_cell_angle_beta     90
_cell_angle_gamma    78.0813

_space_group_name_H-M_alt    "P 1"
_space_group_IT_number       1

loop_
  _space_group_symop_operation_xyz
  'x, y, z'

loop_
  _atom_site_type_symbol
  _atom_site_label
  _atom_site_symmetry_multiplicity
  _atom_site_fract_x
  _atom_site_fract_y
  _atom_site_fract_z
  _atom_site_occupancy
  Ba  Ba1       1.0  0.20700  0.20700  0.00000  1.0000
  Ba  Ba2       1.0  0.79300  0.79300  0.00000  1.0000
  Ba  Ba3       1.0  0.36400  0.63600  0.25000  1.0000
  Ba  Ba4       1.0  0.20700  0.20700  0.50000  1.0000
  Ba  Ba5       1.0  0.79300  0.79300  0.50000  1.0000
  Ba  Ba6       1.0  0.63600  0.36400  0.75000  1.0000
  Pb  Pb1       1.0  0.69500  0.30500  0.05380  1.0000
  Pb  Pb2       1.0  0.96300  0.03740  0.25000  1.0000
  Pb  Pb3       1.0  0.51400  0.08370  0.25000  1.0000
  Pb  Pb4       1.0  0.91600  0.48600  0.25000  1.0000
  Pb  Pb5       1.0  0.69500  0.30500  0.44600  1.0000
  Pb  Pb6       1.0  0.30500  0.69500  0.55400  1.0000
  Pb  Pb7       1.0  0.08370  0.51400  0.75000  1.0000
  Pb  Pb8       1.0  0.48600  0.91600  0.75000  1.0000
  Pb  Pb9       1.0  0.03740  0.96300  0.75000  1.0000
  Pb  Pb10      1.0  0.30500  0.69500  0.94600  1.0000
