data_image0
_chemical_formula_structural       Mn2Na2O8Rb4
_chemical_formula_sum              "Mn2 Na2 O8 Rb4"
_cell_length_a       5.85956
_cell_length_b       5.92232
_cell_length_c       7.90241
_cell_angle_alpha    90
_cell_angle_beta     92.3657
_cell_angle_gamma    90

_space_group_name_H-M_alt    "P 1"
_space_group_IT_number       1

loop_
  _space_group_symop_operation_xyz
  'x, y, z'

loop_
  _atom_site_type_symbol
  _atom_site_label
  _atom_site_symmetry_multiplicity
  _atom_site_fract_x
  _atom_site_fract_y
  _atom_site_fract_z
  _atom_site_occupancy
  Mn  Mn1       1.0  0.78700  0.25000  0.25700  1.0000
  Mn  Mn2       1.0  0.21300  0.75000  0.74300  1.0000
  Na  Na1       1.0  0.37200  0.25000  0.02680  1.0000
  Na  Na2       1.0  0.62800  0.75000  0.97300  1.0000
  O   O1        1.0  0.05570  0.25000  0.17800  1.0000
  O   O2        1.0  0.63800  0.01730  0.18200  1.0000
  O   O3        1.0  0.63800  0.48300  0.18200  1.0000
  O   O4        1.0  0.79800  0.25000  0.47300  1.0000
  O   O5        1.0  0.20200  0.75000  0.52700  1.0000
  O   O6        1.0  0.36200  0.51700  0.81800  1.0000
  O   O7        1.0  0.36200  0.98300  0.81800  1.0000
  O   O8        1.0  0.94400  0.75000  0.82200  1.0000
  Rb  Rb1       1.0  0.14600  0.75000  0.17800  1.0000
  Rb  Rb2       1.0  0.69900  0.75000  0.49500  1.0000
  Rb  Rb3       1.0  0.30100  0.25000  0.50500  1.0000
  Rb  Rb4       1.0  0.85400  0.25000  0.82200  1.0000
