data_image0
_chemical_formula_structural       Ga10U6
_chemical_formula_sum              "Ga10 U6"
_cell_length_a       5.99491
_cell_length_b       5.99491
_cell_length_c       9.43435
_cell_angle_alpha    90
_cell_angle_beta     90
_cell_angle_gamma    78.7539

_space_group_name_H-M_alt    "P 1"
_space_group_IT_number       1

loop_
  _space_group_symop_operation_xyz
  'x, y, z'

loop_
  _atom_site_type_symbol
  _atom_site_label
  _atom_site_symmetry_multiplicity
  _atom_site_fract_x
  _atom_site_fract_y
  _atom_site_fract_z
  _atom_site_occupancy
  Ga  Ga1       1.0  0.69500  0.30500  0.05470  1.0000
  Ga  Ga2       1.0  0.98000  0.01970  0.25000  1.0000
  Ga  Ga3       1.0  0.51100  0.07610  0.25000  1.0000
  Ga  Ga4       1.0  0.92400  0.48900  0.25000  1.0000
  Ga  Ga5       1.0  0.69500  0.30500  0.44500  1.0000
  Ga  Ga6       1.0  0.30500  0.69500  0.55500  1.0000
  Ga  Ga7       1.0  0.07610  0.51100  0.75000  1.0000
  Ga  Ga8       1.0  0.48900  0.92400  0.75000  1.0000
  Ga  Ga9       1.0  0.01970  0.98000  0.75000  1.0000
  Ga  Ga10      1.0  0.30500  0.69500  0.94500  1.0000
  U   U1        1.0  0.20800  0.20800  0.00000  1.0000
  U   U2        1.0  0.79200  0.79200  0.00000  1.0000
  U   U3        1.0  0.36900  0.63100  0.25000  1.0000
  U   U4        1.0  0.20800  0.20800  0.50000  1.0000
  U   U5        1.0  0.79200  0.79200  0.50000  1.0000
  U   U6        1.0  0.63100  0.36900  0.75000  1.0000
