data_image0
_chemical_formula_structural       Ba6Ge10
_chemical_formula_sum              "Ba6 Ge10"
_cell_length_a       6.78737
_cell_length_b       6.78737
_cell_length_c       10.4579
_cell_angle_alpha    90
_cell_angle_beta     90
_cell_angle_gamma    79.6009

_space_group_name_H-M_alt    "P 1"
_space_group_IT_number       1

loop_
  _space_group_symop_operation_xyz
  'x, y, z'

loop_
  _atom_site_type_symbol
  _atom_site_label
  _atom_site_symmetry_multiplicity
  _atom_site_fract_x
  _atom_site_fract_y
  _atom_site_fract_z
  _atom_site_occupancy
  Ba  Ba1       1.0  0.21000  0.21000  0.00000  1.0000
  Ba  Ba2       1.0  0.79000  0.79000  0.00000  1.0000
  Ba  Ba3       1.0  0.34500  0.65500  0.25000  1.0000
  Ba  Ba4       1.0  0.21000  0.21000  0.50000  1.0000
  Ba  Ba5       1.0  0.79000  0.79000  0.50000  1.0000
  Ba  Ba6       1.0  0.65500  0.34500  0.75000  1.0000
  Ge  Ge1       1.0  0.70400  0.29600  0.07200  1.0000
  Ge  Ge2       1.0  0.93200  0.06830  0.25000  1.0000
  Ge  Ge3       1.0  0.53500  0.10400  0.25000  1.0000
  Ge  Ge4       1.0  0.89600  0.46500  0.25000  1.0000
  Ge  Ge5       1.0  0.70400  0.29600  0.42800  1.0000
  Ge  Ge6       1.0  0.29600  0.70400  0.57200  1.0000
  Ge  Ge7       1.0  0.10400  0.53500  0.75000  1.0000
  Ge  Ge8       1.0  0.46500  0.89600  0.75000  1.0000
  Ge  Ge9       1.0  0.06830  0.93200  0.75000  1.0000
  Ge  Ge10      1.0  0.29600  0.70400  0.92800  1.0000
