data_image0
_chemical_formula_structural       Ge6Yb4Zn6
_chemical_formula_sum              "Ge6 Yb4 Zn6"
_cell_length_a       4.29184
_cell_length_b       8.19594
_cell_length_c       9.5963
_cell_angle_alpha    92.6668
_cell_angle_beta     102.922
_cell_angle_gamma    105.179

_space_group_name_H-M_alt    "P 1"
_space_group_IT_number       1

loop_
  _space_group_symop_operation_xyz
  'x, y, z'

loop_
  _atom_site_type_symbol
  _atom_site_label
  _atom_site_symmetry_multiplicity
  _atom_site_fract_x
  _atom_site_fract_y
  _atom_site_fract_z
  _atom_site_occupancy
  Ge  Ge1       1.0  0.03890  0.95500  0.12300  1.0000
  Ge  Ge2       1.0  0.33100  0.48400  0.17800  1.0000
  Ge  Ge3       1.0  0.84300  0.22300  0.46300  1.0000
  Ge  Ge4       1.0  0.15700  0.77700  0.53700  1.0000
  Ge  Ge5       1.0  0.66900  0.51600  0.82200  1.0000
  Ge  Ge6       1.0  0.96100  0.04530  0.87700  1.0000
  Yb  Yb1       1.0  0.65600  0.22300  0.08980  1.0000
  Yb  Yb2       1.0  0.59400  0.85600  0.33100  1.0000
  Yb  Yb3       1.0  0.40600  0.14400  0.66900  1.0000
  Yb  Yb4       1.0  0.34400  0.77700  0.91000  1.0000
  Zn  Zn1       1.0  0.86700  0.63500  0.09950  1.0000
  Zn  Zn2       1.0  0.26600  0.20400  0.32700  1.0000
  Zn  Zn3       1.0  0.93600  0.51400  0.35800  1.0000
  Zn  Zn4       1.0  0.06410  0.48600  0.64200  1.0000
  Zn  Zn5       1.0  0.73400  0.79600  0.67300  1.0000
  Zn  Zn6       1.0  0.13300  0.36500  0.90100  1.0000
