data_image0
_chemical_formula_structural       Ga4Mn3Ni9
_chemical_formula_sum              "Ga4 Mn3 Ni9"
_cell_length_a       5.76051
_cell_length_b       5.76051
_cell_length_c       5.76051
_cell_angle_alpha    90
_cell_angle_beta     90
_cell_angle_gamma    90

_space_group_name_H-M_alt    "P 1"
_space_group_IT_number       1

loop_
  _space_group_symop_operation_xyz
  'x, y, z'

loop_
  _atom_site_type_symbol
  _atom_site_label
  _atom_site_symmetry_multiplicity
  _atom_site_fract_x
  _atom_site_fract_y
  _atom_site_fract_z
  _atom_site_occupancy
  Ga  Ga1       1.0  0.00000  0.00000  0.00000  1.0000
  Ga  Ga2       1.0  0.50000  0.50000  0.00000  1.0000
  Ga  Ga3       1.0  0.50000  0.00000  0.50000  1.0000
  Ga  Ga4       1.0  0.00000  0.50000  0.50000  1.0000
  Mn  Mn1       1.0  0.50000  0.00000  0.00000  1.0000
  Mn  Mn2       1.0  0.00000  0.50000  0.00000  1.0000
  Mn  Mn3       1.0  0.00000  0.00000  0.50000  1.0000
  Ni  Ni1       1.0  0.25300  0.25300  0.25300  1.0000
  Ni  Ni2       1.0  0.74700  0.25300  0.25300  1.0000
  Ni  Ni3       1.0  0.25300  0.74700  0.25300  1.0000
  Ni  Ni4       1.0  0.74700  0.74700  0.25300  1.0000
  Ni  Ni5       1.0  0.50000  0.50000  0.50000  1.0000
  Ni  Ni6       1.0  0.25300  0.25300  0.74700  1.0000
  Ni  Ni7       1.0  0.74700  0.25300  0.74700  1.0000
  Ni  Ni8       1.0  0.25300  0.74700  0.74700  1.0000
  Ni  Ni9       1.0  0.74700  0.74700  0.74700  1.0000
