data_image0
_chemical_formula_structural       Al2N6Nb8
_chemical_formula_sum              "Al2 N6 Nb8"
_cell_length_a       2.99677
_cell_length_b       2.99678
_cell_length_c       25.6304
_cell_angle_alpha    90
_cell_angle_beta     90
_cell_angle_gamma    120

_space_group_name_H-M_alt    "P 1"
_space_group_IT_number       1

loop_
  _space_group_symop_operation_xyz
  'x, y, z'

loop_
  _atom_site_type_symbol
  _atom_site_label
  _atom_site_symmetry_multiplicity
  _atom_site_fract_x
  _atom_site_fract_y
  _atom_site_fract_z
  _atom_site_occupancy
  Al  Al1       1.0  0.33300  0.66700  0.25000  1.0000
  Al  Al2       1.0  0.66700  0.33300  0.75000  1.0000
  N   N1        1.0  0.00000  0.00000  0.00000  1.0000
  N   N2        1.0  0.00000  0.00000  0.10800  1.0000
  N   N3        1.0  0.00000  0.00000  0.39200  1.0000
  N   N4        1.0  0.00000  0.00000  0.50000  1.0000
  N   N5        1.0  0.00000  0.00000  0.60800  1.0000
  N   N6        1.0  0.00000  0.00000  0.89200  1.0000
  Nb  Nb1       1.0  0.33300  0.66700  0.05500  1.0000
  Nb  Nb2       1.0  0.66700  0.33300  0.16300  1.0000
  Nb  Nb3       1.0  0.66700  0.33300  0.33700  1.0000
  Nb  Nb4       1.0  0.33300  0.66700  0.44500  1.0000
  Nb  Nb5       1.0  0.66700  0.33300  0.55500  1.0000
  Nb  Nb6       1.0  0.33300  0.66700  0.66300  1.0000
  Nb  Nb7       1.0  0.33300  0.66700  0.83700  1.0000
  Nb  Nb8       1.0  0.66700  0.33300  0.94500  1.0000
