data_image0
_chemical_formula_structural       Br10Cs2Hg4
_chemical_formula_sum              "Br10 Cs2 Hg4"
_cell_length_a       8.43563
_cell_length_b       6.35169
_cell_length_c       11.2579
_cell_angle_alpha    90
_cell_angle_beta     106.687
_cell_angle_gamma    90

_space_group_name_H-M_alt    "P 1"
_space_group_IT_number       1

loop_
  _space_group_symop_operation_xyz
  'x, y, z'

loop_
  _atom_site_type_symbol
  _atom_site_label
  _atom_site_symmetry_multiplicity
  _atom_site_fract_x
  _atom_site_fract_y
  _atom_site_fract_z
  _atom_site_occupancy
  Br  Br1       1.0  0.65500  0.25000  0.09820  1.0000
  Br  Br2       1.0  0.24900  0.25000  0.12400  1.0000
  Br  Br3       1.0  0.97900  0.75000  0.20700  1.0000
  Br  Br4       1.0  0.56700  0.25000  0.42800  1.0000
  Br  Br5       1.0  0.10400  0.25000  0.43700  1.0000
  Br  Br6       1.0  0.89600  0.75000  0.56300  1.0000
  Br  Br7       1.0  0.43300  0.75000  0.57200  1.0000
  Br  Br8       1.0  0.02060  0.25000  0.79300  1.0000
  Br  Br9       1.0  0.75100  0.75000  0.87600  1.0000
  Br  Br10      1.0  0.34500  0.75000  0.90200  1.0000
  Cs  Cs1       1.0  0.52900  0.75000  0.25200  1.0000
  Cs  Cs2       1.0  0.47100  0.25000  0.74800  1.0000
  Hg  Hg1       1.0  0.96200  0.25000  0.14300  1.0000
  Hg  Hg2       1.0  0.13300  0.75000  0.44200  1.0000
  Hg  Hg3       1.0  0.86700  0.25000  0.55800  1.0000
  Hg  Hg4       1.0  0.03760  0.75000  0.85700  1.0000
