data_image0
_chemical_formula_structural       Cu3S8Ta2Tl3
_chemical_formula_sum              "Cu3 S8 Ta2 Tl3"
_cell_length_a       5.57289
_cell_length_b       7.34646
_cell_length_c       10.1924
_cell_angle_alpha    96.0891
_cell_angle_beta     105.866
_cell_angle_gamma    90

_space_group_name_H-M_alt    "P 1"
_space_group_IT_number       1

loop_
  _space_group_symop_operation_xyz
  'x, y, z'

loop_
  _atom_site_type_symbol
  _atom_site_label
  _atom_site_symmetry_multiplicity
  _atom_site_fract_x
  _atom_site_fract_y
  _atom_site_fract_z
  _atom_site_occupancy
  Cu  Cu1       1.0  0.26800  0.00000  0.00000  1.0000
  Cu  Cu2       1.0  0.89700  0.18000  0.25200  1.0000
  Cu  Cu3       1.0  0.64500  0.82000  0.74800  1.0000
  S   S1        1.0  0.54200  0.25600  0.07800  1.0000
  S   S2        1.0  0.13400  0.93800  0.18900  1.0000
  S   S3        1.0  0.18000  0.43000  0.33000  1.0000
  S   S4        1.0  0.74000  0.12900  0.43500  1.0000
  S   S5        1.0  0.30600  0.87100  0.56500  1.0000
  S   S6        1.0  0.85000  0.57000  0.67000  1.0000
  S   S7        1.0  0.94500  0.06240  0.81100  1.0000
  S   S8        1.0  0.46400  0.74400  0.92200  1.0000
  Ta  Ta1       1.0  0.40200  0.19100  0.26200  1.0000
  Ta  Ta2       1.0  0.14000  0.80900  0.73800  1.0000
  Tl  Tl1       1.0  0.00642  0.50000  0.00000  1.0000
  Tl  Tl2       1.0  0.67800  0.70900  0.36100  1.0000
  Tl  Tl3       1.0  0.31800  0.29100  0.63900  1.0000
