data_image0
_chemical_formula_structural       Au2Cs6Ge8
_chemical_formula_sum              "Au2 Cs6 Ge8"
_cell_length_a       7.25219
_cell_length_b       13.1388
_cell_length_c       6.22133
_cell_angle_alpha    90
_cell_angle_beta     90
_cell_angle_gamma    90

_space_group_name_H-M_alt    "P 1"
_space_group_IT_number       1

loop_
  _space_group_symop_operation_xyz
  'x, y, z'

loop_
  _atom_site_type_symbol
  _atom_site_label
  _atom_site_symmetry_multiplicity
  _atom_site_fract_x
  _atom_site_fract_y
  _atom_site_fract_z
  _atom_site_occupancy
  Au  Au1       1.0  0.25000  0.75000  0.30000  1.0000
  Au  Au2       1.0  0.75000  0.25000  0.70000  1.0000
  Cs  Cs1       1.0  0.25000  0.01680  0.15700  1.0000
  Cs  Cs2       1.0  0.25000  0.48300  0.15700  1.0000
  Cs  Cs3       1.0  0.75000  0.75000  0.42700  1.0000
  Cs  Cs4       1.0  0.25000  0.25000  0.57300  1.0000
  Cs  Cs5       1.0  0.75000  0.51700  0.84300  1.0000
  Cs  Cs6       1.0  0.75000  0.98300  0.84300  1.0000
  Ge  Ge1       1.0  0.56000  0.25000  0.06750  1.0000
  Ge  Ge2       1.0  0.94000  0.25000  0.06750  1.0000
  Ge  Ge3       1.0  0.75000  0.14400  0.33700  1.0000
  Ge  Ge4       1.0  0.75000  0.35600  0.33700  1.0000
  Ge  Ge5       1.0  0.25000  0.64400  0.66300  1.0000
  Ge  Ge6       1.0  0.25000  0.85600  0.66300  1.0000
  Ge  Ge7       1.0  0.06040  0.75000  0.93300  1.0000
  Ge  Ge8       1.0  0.44000  0.75000  0.93300  1.0000
