data_image0
_chemical_formula_structural       Au2Ge8Rb6
_chemical_formula_sum              "Au2 Ge8 Rb6"
_cell_length_a       6.94712
_cell_length_b       12.5537
_cell_length_c       6.20305
_cell_angle_alpha    90
_cell_angle_beta     90
_cell_angle_gamma    90

_space_group_name_H-M_alt    "P 1"
_space_group_IT_number       1

loop_
  _space_group_symop_operation_xyz
  'x, y, z'

loop_
  _atom_site_type_symbol
  _atom_site_label
  _atom_site_symmetry_multiplicity
  _atom_site_fract_x
  _atom_site_fract_y
  _atom_site_fract_z
  _atom_site_occupancy
  Au  Au1       1.0  0.25000  0.75000  0.30700  1.0000
  Au  Au2       1.0  0.75000  0.25000  0.69300  1.0000
  Ge  Ge1       1.0  0.55100  0.25000  0.05980  1.0000
  Ge  Ge2       1.0  0.94900  0.25000  0.05980  1.0000
  Ge  Ge3       1.0  0.75000  0.13900  0.33000  1.0000
  Ge  Ge4       1.0  0.75000  0.36100  0.33000  1.0000
  Ge  Ge5       1.0  0.25000  0.63900  0.67000  1.0000
  Ge  Ge6       1.0  0.25000  0.86100  0.67000  1.0000
  Ge  Ge7       1.0  0.05130  0.75000  0.94000  1.0000
  Ge  Ge8       1.0  0.44900  0.75000  0.94000  1.0000
  Rb  Rb1       1.0  0.25000  0.01550  0.16700  1.0000
  Rb  Rb2       1.0  0.25000  0.48400  0.16700  1.0000
  Rb  Rb3       1.0  0.75000  0.75000  0.42600  1.0000
  Rb  Rb4       1.0  0.25000  0.25000  0.57400  1.0000
  Rb  Rb5       1.0  0.75000  0.51600  0.83300  1.0000
  Rb  Rb6       1.0  0.75000  0.98400  0.83300  1.0000
