data_image0
_chemical_formula_structural       Cu4K2S8V2
_chemical_formula_sum              "Cu4 K2 S8 V2"
_cell_length_a       5.39302
_cell_length_b       7.36059
_cell_length_c       9.32628
_cell_angle_alpha    90
_cell_angle_beta     73.1941
_cell_angle_gamma    90

_space_group_name_H-M_alt    "P 1"
_space_group_IT_number       1

loop_
  _space_group_symop_operation_xyz
  'x, y, z'

loop_
  _atom_site_type_symbol
  _atom_site_label
  _atom_site_symmetry_multiplicity
  _atom_site_fract_x
  _atom_site_fract_y
  _atom_site_fract_z
  _atom_site_occupancy
  Cu  Cu1       1.0  0.00089  0.00000  0.00000  1.0000
  Cu  Cu2       1.0  0.00089  0.50000  0.00000  1.0000
  Cu  Cu3       1.0  0.41400  0.75000  0.21800  1.0000
  Cu  Cu4       1.0  0.63200  0.25000  0.78200  1.0000
  K   K1        1.0  0.08570  0.25000  0.36400  1.0000
  K   K2        1.0  0.44900  0.75000  0.63600  1.0000
  S   S1        1.0  0.24900  0.75000  0.01530  1.0000
  S   S2        1.0  0.67700  0.50600  0.22100  1.0000
  S   S3        1.0  0.67700  0.99400  0.22100  1.0000
  S   S4        1.0  0.05020  0.75000  0.41700  1.0000
  S   S5        1.0  0.46800  0.25000  0.58300  1.0000
  S   S6        1.0  0.89800  0.00601  0.77900  1.0000
  S   S7        1.0  0.89800  0.49400  0.77900  1.0000
  S   S8        1.0  0.26400  0.25000  0.98500  1.0000
  V   V1        1.0  0.91200  0.75000  0.22100  1.0000
  V   V2        1.0  0.13300  0.25000  0.77900  1.0000
