data_image0
_chemical_formula_structural       In6Sr10
_chemical_formula_sum              "In6 Sr10"
_cell_length_a       8.75923
_cell_length_b       8.75923
_cell_length_c       10.2793
_cell_angle_alpha    115.218
_cell_angle_beta     115.218
_cell_angle_gamma    90

_space_group_name_H-M_alt    "P 1"
_space_group_IT_number       1

loop_
  _space_group_symop_operation_xyz
  'x, y, z'

loop_
  _atom_site_type_symbol
  _atom_site_label
  _atom_site_symmetry_multiplicity
  _atom_site_fract_x
  _atom_site_fract_y
  _atom_site_fract_z
  _atom_site_occupancy
  In  In1       1.0  0.61600  0.11600  0.00000  1.0000
  In  In2       1.0  0.11600  0.38400  0.00000  1.0000
  In  In3       1.0  0.88400  0.61600  0.00000  1.0000
  In  In4       1.0  0.38400  0.88400  0.00000  1.0000
  In  In5       1.0  0.25000  0.25000  0.50000  1.0000
  In  In6       1.0  0.75000  0.75000  0.50000  1.0000
  Sr  Sr1       1.0  0.00000  0.00000  0.00000  1.0000
  Sr  Sr2       1.0  0.50000  0.50000  0.00000  1.0000
  Sr  Sr3       1.0  0.47000  0.32100  0.29200  1.0000
  Sr  Sr4       1.0  0.97000  0.47000  0.29200  1.0000
  Sr  Sr5       1.0  0.32100  0.82100  0.29200  1.0000
  Sr  Sr6       1.0  0.82100  0.97000  0.29200  1.0000
  Sr  Sr7       1.0  0.17900  0.02960  0.70800  1.0000
  Sr  Sr8       1.0  0.67900  0.17900  0.70800  1.0000
  Sr  Sr9       1.0  0.02960  0.53000  0.70800  1.0000
  Sr  Sr10      1.0  0.53000  0.67900  0.70800  1.0000
