data_image0
_chemical_formula_structural       As2O8Tl6
_chemical_formula_sum              "As2 O8 Tl6"
_cell_length_a       8.41247
_cell_length_b       8.4129
_cell_length_c       5.25919
_cell_angle_alpha    90
_cell_angle_beta     90
_cell_angle_gamma    120.006

_space_group_name_H-M_alt    "P 1"
_space_group_IT_number       1

loop_
  _space_group_symop_operation_xyz
  'x, y, z'

loop_
  _atom_site_type_symbol
  _atom_site_label
  _atom_site_symmetry_multiplicity
  _atom_site_fract_x
  _atom_site_fract_y
  _atom_site_fract_z
  _atom_site_occupancy
  As  As1       1.0  0.66700  0.33300  0.48400  1.0000
  As  As2       1.0  0.33300  0.66700  0.98400  1.0000
  O   O1        1.0  0.11600  0.50800  0.08360  1.0000
  O   O2        1.0  0.39300  0.88400  0.08360  1.0000
  O   O3        1.0  0.49200  0.60700  0.08360  1.0000
  O   O4        1.0  0.66700  0.33300  0.15200  1.0000
  O   O5        1.0  0.88400  0.49200  0.58400  1.0000
  O   O6        1.0  0.60700  0.11600  0.58400  1.0000
  O   O7        1.0  0.50800  0.39300  0.58400  1.0000
  O   O8        1.0  0.33300  0.66700  0.65200  1.0000
  Tl  Tl1       1.0  0.74400  0.08960  0.00382  1.0000
  Tl  Tl2       1.0  0.91000  0.65400  0.00382  1.0000
  Tl  Tl3       1.0  0.34600  0.25600  0.00383  1.0000
  Tl  Tl4       1.0  0.08960  0.34600  0.50400  1.0000
  Tl  Tl5       1.0  0.25600  0.91000  0.50400  1.0000
  Tl  Tl6       1.0  0.65400  0.74400  0.50400  1.0000
