data_image0
_chemical_formula_structural       Br2O8Y6
_chemical_formula_sum              "Br2 O8 Y6"
_cell_length_a       4.06238
_cell_length_b       6.20418
_cell_length_c       11.6277
_cell_angle_alpha    90
_cell_angle_beta     90
_cell_angle_gamma    70.8895

_space_group_name_H-M_alt    "P 1"
_space_group_IT_number       1

loop_
  _space_group_symop_operation_xyz
  'x, y, z'

loop_
  _atom_site_type_symbol
  _atom_site_label
  _atom_site_symmetry_multiplicity
  _atom_site_fract_x
  _atom_site_fract_y
  _atom_site_fract_z
  _atom_site_occupancy
  Br  Br1       1.0  0.00000  0.00000  0.00000  1.0000
  Br  Br2       1.0  0.00000  0.00000  0.50000  1.0000
  O   O1        1.0  0.27000  0.46000  0.08970  1.0000
  O   O2        1.0  0.80900  0.38200  0.25000  1.0000
  O   O3        1.0  0.56600  0.86700  0.25000  1.0000
  O   O4        1.0  0.27000  0.46000  0.41000  1.0000
  O   O5        1.0  0.73000  0.54000  0.59000  1.0000
  O   O6        1.0  0.43400  0.13300  0.75000  1.0000
  O   O7        1.0  0.19100  0.61800  0.75000  1.0000
  O   O8        1.0  0.73000  0.54000  0.91000  1.0000
  Y   Y1        1.0  0.68500  0.63000  0.10200  1.0000
  Y   Y2        1.0  0.38200  0.23700  0.25000  1.0000
  Y   Y3        1.0  0.68500  0.63000  0.39800  1.0000
  Y   Y4        1.0  0.31500  0.37000  0.60200  1.0000
  Y   Y5        1.0  0.61800  0.76300  0.75000  1.0000
  Y   Y6        1.0  0.31500  0.37000  0.89800  1.0000
