data_image0
_chemical_formula_structural       Ag6P2S8
_chemical_formula_sum              "Ag6 P2 S8"
_cell_length_a       7.69818
_cell_length_b       6.9217
_cell_length_c       6.57448
_cell_angle_alpha    90
_cell_angle_beta     90
_cell_angle_gamma    90

_space_group_name_H-M_alt    "P 1"
_space_group_IT_number       1

loop_
  _space_group_symop_operation_xyz
  'x, y, z'

loop_
  _atom_site_type_symbol
  _atom_site_label
  _atom_site_symmetry_multiplicity
  _atom_site_fract_x
  _atom_site_fract_y
  _atom_site_fract_z
  _atom_site_occupancy
  Ag  Ag1       1.0  0.27200  0.20100  0.07040  1.0000
  Ag  Ag2       1.0  0.72800  0.20100  0.07040  1.0000
  Ag  Ag3       1.0  0.00000  0.64500  0.12100  1.0000
  Ag  Ag4       1.0  0.22800  0.79900  0.57000  1.0000
  Ag  Ag5       1.0  0.77200  0.79900  0.57000  1.0000
  Ag  Ag6       1.0  0.50000  0.35500  0.62100  1.0000
  P   P1        1.0  0.50000  0.69400  0.09480  1.0000
  P   P2        1.0  0.00000  0.30600  0.59500  1.0000
  S   S1        1.0  0.28000  0.84100  0.19300  1.0000
  S   S2        1.0  0.72000  0.84100  0.19300  1.0000
  S   S3        1.0  0.50000  0.42100  0.22400  1.0000
  S   S4        1.0  0.00000  0.30800  0.28100  1.0000
  S   S5        1.0  0.22000  0.15900  0.69300  1.0000
  S   S6        1.0  0.78000  0.15900  0.69300  1.0000
  S   S7        1.0  0.00000  0.57900  0.72400  1.0000
  S   S8        1.0  0.50000  0.69200  0.78100  1.0000
