data_image0
_chemical_formula_structural       Br10K2Sn4
_chemical_formula_sum              "Br10 K2 Sn4"
_cell_length_a       8.44013
_cell_length_b       8.44013
_cell_length_c       9.54203
_cell_angle_alpha    116.248
_cell_angle_beta     116.248
_cell_angle_gamma    90

_space_group_name_H-M_alt    "P 1"
_space_group_IT_number       1

loop_
  _space_group_symop_operation_xyz
  'x, y, z'

loop_
  _atom_site_type_symbol
  _atom_site_label
  _atom_site_symmetry_multiplicity
  _atom_site_fract_x
  _atom_site_fract_y
  _atom_site_fract_z
  _atom_site_occupancy
  Br  Br1       1.0  0.00000  0.00000  0.00000  1.0000
  Br  Br2       1.0  0.50000  0.50000  0.00000  1.0000
  Br  Br3       1.0  0.79700  0.29700  0.27000  1.0000
  Br  Br4       1.0  0.29700  0.47300  0.27000  1.0000
  Br  Br5       1.0  0.97300  0.79700  0.27000  1.0000
  Br  Br6       1.0  0.47300  0.97300  0.27000  1.0000
  Br  Br7       1.0  0.52700  0.02730  0.73000  1.0000
  Br  Br8       1.0  0.02730  0.20300  0.73000  1.0000
  Br  Br9       1.0  0.70300  0.52700  0.73000  1.0000
  Br  Br10      1.0  0.20300  0.70300  0.73000  1.0000
  K   K1        1.0  0.25000  0.25000  0.50000  1.0000
  K   K2        1.0  0.75000  0.75000  0.50000  1.0000
  Sn  Sn1       1.0  0.32500  0.17500  0.00000  1.0000
  Sn  Sn2       1.0  0.82500  0.32500  0.00000  1.0000
  Sn  Sn3       1.0  0.17500  0.67500  0.00000  1.0000
  Sn  Sn4       1.0  0.67500  0.82500  0.00000  1.0000
