data_image0
_chemical_formula_structural       Cd4O10U2
_chemical_formula_sum              "Cd4 O10 U2"
_cell_length_a       5.32795
_cell_length_b       6.30917
_cell_length_c       8.07571
_cell_angle_alpha    107.661
_cell_angle_beta     90
_cell_angle_gamma    114.976

_space_group_name_H-M_alt    "P 1"
_space_group_IT_number       1

loop_
  _space_group_symop_operation_xyz
  'x, y, z'

loop_
  _atom_site_type_symbol
  _atom_site_label
  _atom_site_symmetry_multiplicity
  _atom_site_fract_x
  _atom_site_fract_y
  _atom_site_fract_z
  _atom_site_occupancy
  Cd  Cd1       1.0  0.28700  0.66100  0.17400  1.0000
  Cd  Cd2       1.0  0.62600  0.33900  0.32600  1.0000
  Cd  Cd3       1.0  0.37400  0.66100  0.67400  1.0000
  Cd  Cd4       1.0  0.71300  0.33900  0.82600  1.0000
  O   O1        1.0  0.35800  0.23400  0.98000  1.0000
  O   O2        1.0  0.64200  0.76600  0.01970  1.0000
  O   O3        1.0  0.90800  0.31300  0.12400  1.0000
  O   O4        1.0  0.19900  0.00000  0.25000  1.0000
  O   O5        1.0  0.59400  0.68700  0.37600  1.0000
  O   O6        1.0  0.87600  0.23400  0.48000  1.0000
  O   O7        1.0  0.12400  0.76600  0.52000  1.0000
  O   O8        1.0  0.40600  0.31300  0.62400  1.0000
  O   O9        1.0  0.80100  0.00000  0.75000  1.0000
  O   O10       1.0  0.09220  0.68700  0.87600  1.0000
  U   U1        1.0  0.00000  0.00000  0.00000  1.0000
  U   U2        1.0  0.00000  0.00000  0.50000  1.0000
