data_image0
_chemical_formula_structural       Ca3Na2O9Ta2
_chemical_formula_sum              "Ca3 Na2 O9 Ta2"
_cell_length_a       5.6177
_cell_length_b       5.6177
_cell_length_c       8.67397
_cell_angle_alpha    108.894
_cell_angle_beta     71.1056
_cell_angle_gamma    120

_space_group_name_H-M_alt    "P 1"
_space_group_IT_number       1

loop_
  _space_group_symop_operation_xyz
  'x, y, z'

loop_
  _atom_site_type_symbol
  _atom_site_label
  _atom_site_symmetry_multiplicity
  _atom_site_fract_x
  _atom_site_fract_y
  _atom_site_fract_z
  _atom_site_occupancy
  Ca  Ca1       1.0  0.62900  0.37100  0.11400  1.0000
  Ca  Ca2       1.0  0.50000  0.50000  0.50000  1.0000
  Ca  Ca3       1.0  0.37100  0.62900  0.88600  1.0000
  Na  Na1       1.0  0.19800  0.80200  0.40500  1.0000
  Na  Na2       1.0  0.80200  0.19800  0.59500  1.0000
  O   O1        1.0  0.00000  0.73900  0.00000  1.0000
  O   O2        1.0  0.26100  0.26100  0.00000  1.0000
  O   O3        1.0  0.73900  0.00000  0.00000  1.0000
  O   O4        1.0  0.21300  0.34800  0.31900  1.0000
  O   O5        1.0  0.65200  0.18400  0.31900  1.0000
  O   O6        1.0  0.81600  0.78700  0.31900  1.0000
  O   O7        1.0  0.18400  0.65200  0.68100  1.0000
  O   O8        1.0  0.34800  0.21300  0.68100  1.0000
  O   O9        1.0  0.78700  0.81600  0.68100  1.0000
  Ta  Ta1       1.0  0.93500  0.06450  0.19400  1.0000
  Ta  Ta2       1.0  0.06450  0.93500  0.80600  1.0000
