data_image0
_chemical_formula_structural       N4O4S8
_chemical_formula_sum              "N4 O4 S8"
_cell_length_a       4.09584
_cell_length_b       7.78891
_cell_length_c       10.278
_cell_angle_alpha    110.187
_cell_angle_beta     92.8607
_cell_angle_gamma    102.255

_space_group_name_H-M_alt    "P 1"
_space_group_IT_number       1

loop_
  _space_group_symop_operation_xyz
  'x, y, z'

loop_
  _atom_site_type_symbol
  _atom_site_label
  _atom_site_symmetry_multiplicity
  _atom_site_fract_x
  _atom_site_fract_y
  _atom_site_fract_z
  _atom_site_occupancy
  N   N1        1.0  0.77900  0.14700  0.12800  1.0000
  N   N2        1.0  0.84700  0.81900  0.28100  1.0000
  N   N3        1.0  0.15300  0.18100  0.71900  1.0000
  N   N4        1.0  0.22100  0.85300  0.87200  1.0000
  O   O1        1.0  0.19600  0.40300  0.07380  1.0000
  O   O2        1.0  0.49700  0.65400  0.42500  1.0000
  O   O3        1.0  0.50300  0.34600  0.57500  1.0000
  O   O4        1.0  0.80400  0.59700  0.92600  1.0000
  S   S1        1.0  0.88200  0.25000  0.02620  1.0000
  S   S2        1.0  0.00738  0.20000  0.28200  1.0000
  S   S3        1.0  0.72400  0.64100  0.31700  1.0000
  S   S4        1.0  0.72700  0.01800  0.35900  1.0000
  S   S5        1.0  0.27300  0.98200  0.64100  1.0000
  S   S6        1.0  0.27600  0.35900  0.68300  1.0000
  S   S7        1.0  0.99300  0.80000  0.71800  1.0000
  S   S8        1.0  0.11800  0.75000  0.97400  1.0000
