data_image0
_chemical_formula_structural       Cu4S8Ta2Tl2
_chemical_formula_sum              "Cu4 S8 Ta2 Tl2"
_cell_length_a       9.55728
_cell_length_b       5.55285
_cell_length_c       7.41759
_cell_angle_alpha    90
_cell_angle_beta     90
_cell_angle_gamma    106.888

_space_group_name_H-M_alt    "P 1"
_space_group_IT_number       1

loop_
  _space_group_symop_operation_xyz
  'x, y, z'

loop_
  _atom_site_type_symbol
  _atom_site_label
  _atom_site_symmetry_multiplicity
  _atom_site_fract_x
  _atom_site_fract_y
  _atom_site_fract_z
  _atom_site_occupancy
  Cu  Cu1       1.0  0.00000  0.52900  0.00000  1.0000
  Cu  Cu2       1.0  0.78700  0.89800  0.25000  1.0000
  Cu  Cu3       1.0  0.00000  0.52900  0.50000  1.0000
  Cu  Cu4       1.0  0.21300  0.11100  0.75000  1.0000
  S   S1        1.0  0.21600  0.85700  0.00114  1.0000
  S   S2        1.0  0.57800  0.03790  0.25000  1.0000
  S   S3        1.0  0.98600  0.26200  0.25000  1.0000
  S   S4        1.0  0.21600  0.85700  0.49900  1.0000
  S   S5        1.0  0.78400  0.64100  0.50100  1.0000
  S   S6        1.0  0.01350  0.27600  0.75000  1.0000
  S   S7        1.0  0.42200  0.46000  0.75000  1.0000
  S   S8        1.0  0.78400  0.64100  0.99900  1.0000
  Ta  Ta1       1.0  0.77400  0.39100  0.25000  1.0000
  Ta  Ta2       1.0  0.22600  0.61700  0.75000  1.0000
  Tl  Tl1       1.0  0.36400  0.44200  0.25000  1.0000
  Tl  Tl2       1.0  0.63600  0.07810  0.75000  1.0000
