data_image0
_chemical_formula_structural       Cu4S8Si2Zn2
_chemical_formula_sum              "Cu4 S8 Si2 Zn2"
_cell_length_a       7.37462
_cell_length_b       6.43986
_cell_length_c       6.1469
_cell_angle_alpha    90
_cell_angle_beta     90
_cell_angle_gamma    90

_space_group_name_H-M_alt    "P 1"
_space_group_IT_number       1

loop_
  _space_group_symop_operation_xyz
  'x, y, z'

loop_
  _atom_site_type_symbol
  _atom_site_label
  _atom_site_symmetry_multiplicity
  _atom_site_fract_x
  _atom_site_fract_y
  _atom_site_fract_z
  _atom_site_occupancy
  Cu  Cu1       1.0  0.24800  0.17300  0.33500  1.0000
  Cu  Cu2       1.0  0.75200  0.17300  0.33500  1.0000
  Cu  Cu3       1.0  0.25200  0.82700  0.83500  1.0000
  Cu  Cu4       1.0  0.74800  0.82700  0.83500  1.0000
  S   S1        1.0  0.00000  0.35500  0.45900  1.0000
  S   S2        1.0  0.23700  0.83400  0.46300  1.0000
  S   S3        1.0  0.76300  0.83400  0.46300  1.0000
  S   S4        1.0  0.50000  0.31800  0.49400  1.0000
  S   S5        1.0  0.50000  0.64500  0.95900  1.0000
  S   S6        1.0  0.26300  0.16600  0.96300  1.0000
  S   S7        1.0  0.73700  0.16600  0.96300  1.0000
  S   S8        1.0  0.00000  0.68200  0.99400  1.0000
  Si  Si1       1.0  0.00000  0.67100  0.34500  1.0000
  Si  Si2       1.0  0.50000  0.32900  0.84500  1.0000
  Zn  Zn1       1.0  0.50000  0.65100  0.34300  1.0000
  Zn  Zn2       1.0  0.00000  0.34900  0.84300  1.0000
