data_image0
_chemical_formula_structural       Br4Cu4Hg4S4
_chemical_formula_sum              "Br4 Cu4 Hg4 S4"
_cell_length_a       10.1493
_cell_length_b       9.46572
_cell_length_c       4.11401
_cell_angle_alpha    90
_cell_angle_beta     90
_cell_angle_gamma    90

_space_group_name_H-M_alt    "P 1"
_space_group_IT_number       1

loop_
  _space_group_symop_operation_xyz
  'x, y, z'

loop_
  _atom_site_type_symbol
  _atom_site_label
  _atom_site_symmetry_multiplicity
  _atom_site_fract_x
  _atom_site_fract_y
  _atom_site_fract_z
  _atom_site_occupancy
  Br  Br1       1.0  0.75000  0.02630  0.00000  1.0000
  Br  Br2       1.0  0.75000  0.44300  0.00000  1.0000
  Br  Br3       1.0  0.25000  0.55700  0.00000  1.0000
  Br  Br4       1.0  0.25000  0.97400  0.00000  1.0000
  Cu  Cu1       1.0  0.57700  0.20900  0.00000  1.0000
  Cu  Cu2       1.0  0.92300  0.20900  0.00000  1.0000
  Cu  Cu3       1.0  0.07720  0.79100  0.00000  1.0000
  Cu  Cu4       1.0  0.42300  0.79100  0.00000  1.0000
  Hg  Hg1       1.0  0.25000  0.21900  0.50000  1.0000
  Hg  Hg2       1.0  0.00000  0.50000  0.50000  1.0000
  Hg  Hg3       1.0  0.50000  0.50000  0.50000  1.0000
  Hg  Hg4       1.0  0.75000  0.78100  0.50000  1.0000
  S   S1        1.0  0.01030  0.24300  0.50000  1.0000
  S   S2        1.0  0.49000  0.24300  0.50000  1.0000
  S   S3        1.0  0.51000  0.75700  0.50000  1.0000
  S   S4        1.0  0.99000  0.75700  0.50000  1.0000
