data_image0
_chemical_formula_structural       Ag4Cd2Ge2S8
_chemical_formula_sum              "Ag4 Cd2 Ge2 S8"
_cell_length_a       7.91866
_cell_length_b       7.08785
_cell_length_c       6.69926
_cell_angle_alpha    90
_cell_angle_beta     90
_cell_angle_gamma    90

_space_group_name_H-M_alt    "P 1"
_space_group_IT_number       1

loop_
  _space_group_symop_operation_xyz
  'x, y, z'

loop_
  _atom_site_type_symbol
  _atom_site_label
  _atom_site_symmetry_multiplicity
  _atom_site_fract_x
  _atom_site_fract_y
  _atom_site_fract_z
  _atom_site_occupancy
  Ag  Ag1       1.0  0.25700  0.32100  0.00478  1.0000
  Ag  Ag2       1.0  0.74300  0.32100  0.00478  1.0000
  Ag  Ag3       1.0  0.24300  0.67900  0.50500  1.0000
  Ag  Ag4       1.0  0.75700  0.67900  0.50500  1.0000
  Cd  Cd1       1.0  0.50000  0.14600  0.48400  1.0000
  Cd  Cd2       1.0  0.00000  0.85400  0.98400  1.0000
  Ge  Ge1       1.0  0.00000  0.17500  0.48800  1.0000
  Ge  Ge2       1.0  0.50000  0.82500  0.98800  1.0000
  S   S1        1.0  0.50000  0.82000  0.32400  1.0000
  S   S2        1.0  0.00000  0.87900  0.37000  1.0000
  S   S3        1.0  0.23100  0.33400  0.38100  1.0000
  S   S4        1.0  0.76900  0.33400  0.38100  1.0000
  S   S5        1.0  0.00000  0.18000  0.82400  1.0000
  S   S6        1.0  0.50000  0.12100  0.87000  1.0000
  S   S7        1.0  0.26900  0.66600  0.88100  1.0000
  S   S8        1.0  0.73100  0.66600  0.88100  1.0000
