data_image0
_chemical_formula_structural       Sr6Tl10
_chemical_formula_sum              "Sr6 Tl10"
_cell_length_a       6.86456
_cell_length_b       6.86456
_cell_length_c       11.0828
_cell_angle_alpha    90
_cell_angle_beta     90
_cell_angle_gamma    102.021

_space_group_name_H-M_alt    "P 1"
_space_group_IT_number       1

loop_
  _space_group_symop_operation_xyz
  'x, y, z'

loop_
  _atom_site_type_symbol
  _atom_site_label
  _atom_site_symmetry_multiplicity
  _atom_site_fract_x
  _atom_site_fract_y
  _atom_site_fract_z
  _atom_site_occupancy
  Sr  Sr1       1.0  0.79000  0.21000  0.00000  1.0000
  Sr  Sr2       1.0  0.21000  0.79000  0.00000  1.0000
  Sr  Sr3       1.0  0.39900  0.39900  0.25000  1.0000
  Sr  Sr4       1.0  0.79000  0.21000  0.50000  1.0000
  Sr  Sr5       1.0  0.21000  0.79000  0.50000  1.0000
  Sr  Sr6       1.0  0.60100  0.60100  0.75000  1.0000
  Tl  Tl1       1.0  0.69800  0.69800  0.04050  1.0000
  Tl  Tl2       1.0  0.00454  0.00454  0.25000  1.0000
  Tl  Tl3       1.0  0.93600  0.51600  0.25000  1.0000
  Tl  Tl4       1.0  0.51600  0.93600  0.25000  1.0000
  Tl  Tl5       1.0  0.69800  0.69800  0.45900  1.0000
  Tl  Tl6       1.0  0.30200  0.30200  0.54100  1.0000
  Tl  Tl7       1.0  0.48400  0.06440  0.75000  1.0000
  Tl  Tl8       1.0  0.06440  0.48400  0.75000  1.0000
  Tl  Tl9       1.0  0.99500  0.99500  0.75000  1.0000
  Tl  Tl10      1.0  0.30200  0.30200  0.95900  1.0000
