data_image0
_chemical_formula_structural       Au2Ge8K6
_chemical_formula_sum              "Au2 Ge8 K6"
_cell_length_a       6.6836
_cell_length_b       12.0133
_cell_length_c       6.17349
_cell_angle_alpha    90
_cell_angle_beta     90
_cell_angle_gamma    90

_space_group_name_H-M_alt    "P 1"
_space_group_IT_number       1

loop_
  _space_group_symop_operation_xyz
  'x, y, z'

loop_
  _atom_site_type_symbol
  _atom_site_label
  _atom_site_symmetry_multiplicity
  _atom_site_fract_x
  _atom_site_fract_y
  _atom_site_fract_z
  _atom_site_occupancy
  Au  Au1       1.0  0.25000  0.75000  0.31000  1.0000
  Au  Au2       1.0  0.75000  0.25000  0.69000  1.0000
  Ge  Ge1       1.0  0.54300  0.25000  0.05810  1.0000
  Ge  Ge2       1.0  0.95700  0.25000  0.05810  1.0000
  Ge  Ge3       1.0  0.75000  0.13400  0.32800  1.0000
  Ge  Ge4       1.0  0.75000  0.36600  0.32800  1.0000
  Ge  Ge5       1.0  0.25000  0.63400  0.67200  1.0000
  Ge  Ge6       1.0  0.25000  0.86600  0.67200  1.0000
  Ge  Ge7       1.0  0.04260  0.75000  0.94200  1.0000
  Ge  Ge8       1.0  0.45700  0.75000  0.94200  1.0000
  K   K1        1.0  0.25000  0.01420  0.16900  1.0000
  K   K2        1.0  0.25000  0.48600  0.16900  1.0000
  K   K3        1.0  0.75000  0.75000  0.42200  1.0000
  K   K4        1.0  0.25000  0.25000  0.57800  1.0000
  K   K5        1.0  0.75000  0.51400  0.83100  1.0000
  K   K6        1.0  0.75000  0.98600  0.83100  1.0000
