data_image0
_chemical_formula_structural       Cu4Rb2Se8Ta2
_chemical_formula_sum              "Cu4 Rb2 Se8 Ta2"
_cell_length_a       10.1167
_cell_length_b       5.7447
_cell_length_c       7.804
_cell_angle_alpha    90
_cell_angle_beta     90
_cell_angle_gamma    106.494

_space_group_name_H-M_alt    "P 1"
_space_group_IT_number       1

loop_
  _space_group_symop_operation_xyz
  'x, y, z'

loop_
  _atom_site_type_symbol
  _atom_site_label
  _atom_site_symmetry_multiplicity
  _atom_site_fract_x
  _atom_site_fract_y
  _atom_site_fract_z
  _atom_site_occupancy
  Cu  Cu1       1.0  0.00000  0.56200  0.00000  1.0000
  Cu  Cu2       1.0  0.78700  0.93800  0.25000  1.0000
  Cu  Cu3       1.0  0.00000  0.56200  0.50000  1.0000
  Cu  Cu4       1.0  0.21300  0.15100  0.75000  1.0000
  Rb  Rb1       1.0  0.36600  0.48200  0.25000  1.0000
  Rb  Rb2       1.0  0.63400  0.11500  0.75000  1.0000
  Se  Se1       1.0  0.21300  0.89800  0.00447  1.0000
  Se  Se2       1.0  0.58200  0.08570  0.25000  1.0000
  Se  Se3       1.0  0.99300  0.29600  0.25000  1.0000
  Se  Se4       1.0  0.21300  0.89800  0.49600  1.0000
  Se  Se5       1.0  0.78700  0.68500  0.50400  1.0000
  Se  Se6       1.0  0.00702  0.30300  0.75000  1.0000
  Se  Se7       1.0  0.41800  0.50300  0.75000  1.0000
  Se  Se8       1.0  0.78700  0.68500  0.99600  1.0000
  Ta  Ta1       1.0  0.78300  0.43600  0.25000  1.0000
  Ta  Ta2       1.0  0.21700  0.65300  0.75000  1.0000
