data_image0
_chemical_formula_structural       Br10Cs2Sn4
_chemical_formula_sum              "Br10 Cs2 Sn4"
_cell_length_a       8.53517
_cell_length_b       8.53517
_cell_length_c       9.86673
_cell_angle_alpha    115.628
_cell_angle_beta     115.628
_cell_angle_gamma    90

_space_group_name_H-M_alt    "P 1"
_space_group_IT_number       1

loop_
  _space_group_symop_operation_xyz
  'x, y, z'

loop_
  _atom_site_type_symbol
  _atom_site_label
  _atom_site_symmetry_multiplicity
  _atom_site_fract_x
  _atom_site_fract_y
  _atom_site_fract_z
  _atom_site_occupancy
  Br  Br1       1.0  0.00000  0.00000  0.00000  1.0000
  Br  Br2       1.0  0.50000  0.50000  0.00000  1.0000
  Br  Br3       1.0  0.46900  0.28500  0.25400  1.0000
  Br  Br4       1.0  0.96900  0.46900  0.25400  1.0000
  Br  Br5       1.0  0.28500  0.78500  0.25400  1.0000
  Br  Br6       1.0  0.78500  0.96900  0.25400  1.0000
  Br  Br7       1.0  0.21500  0.03080  0.74600  1.0000
  Br  Br8       1.0  0.71500  0.21500  0.74600  1.0000
  Br  Br9       1.0  0.03080  0.53100  0.74600  1.0000
  Br  Br10      1.0  0.53100  0.71500  0.74600  1.0000
  Cs  Cs1       1.0  0.25000  0.25000  0.50000  1.0000
  Cs  Cs2       1.0  0.75000  0.75000  0.50000  1.0000
  Sn  Sn1       1.0  0.68000  0.18000  0.00000  1.0000
  Sn  Sn2       1.0  0.18000  0.32000  0.00000  1.0000
  Sn  Sn3       1.0  0.82000  0.68000  0.00000  1.0000
  Sn  Sn4       1.0  0.32000  0.82000  0.00000  1.0000
