data_image0
_chemical_formula_structural       In10La6
_chemical_formula_sum              "In10 La6"
_cell_length_a       6.69812
_cell_length_b       6.69812
_cell_length_c       10.686
_cell_angle_alpha    90
_cell_angle_beta     90
_cell_angle_gamma    78.1863

_space_group_name_H-M_alt    "P 1"
_space_group_IT_number       1

loop_
  _space_group_symop_operation_xyz
  'x, y, z'

loop_
  _atom_site_type_symbol
  _atom_site_label
  _atom_site_symmetry_multiplicity
  _atom_site_fract_x
  _atom_site_fract_y
  _atom_site_fract_z
  _atom_site_occupancy
  In  In1       1.0  0.69200  0.30800  0.05190  1.0000
  In  In2       1.0  0.98500  0.01490  0.25000  1.0000
  In  In3       1.0  0.50200  0.07860  0.25000  1.0000
  In  In4       1.0  0.92100  0.49800  0.25000  1.0000
  In  In5       1.0  0.69200  0.30800  0.44800  1.0000
  In  In6       1.0  0.30800  0.69200  0.55200  1.0000
  In  In7       1.0  0.07860  0.50200  0.75000  1.0000
  In  In8       1.0  0.49800  0.92100  0.75000  1.0000
  In  In9       1.0  0.01490  0.98500  0.75000  1.0000
  In  In10      1.0  0.30800  0.69200  0.94800  1.0000
  La  La1       1.0  0.20400  0.20400  0.00000  1.0000
  La  La2       1.0  0.79600  0.79600  0.00000  1.0000
  La  La3       1.0  0.36800  0.63200  0.25000  1.0000
  La  La4       1.0  0.20400  0.20400  0.50000  1.0000
  La  La5       1.0  0.79600  0.79600  0.50000  1.0000
  La  La6       1.0  0.63200  0.36800  0.75000  1.0000
