data_image0
_chemical_formula_structural       Ga6Ti4Zr6
_chemical_formula_sum              "Ga6 Ti4 Zr6"
_cell_length_a       7.95427
_cell_length_b       7.95427
_cell_length_c       5.46631
_cell_angle_alpha    90
_cell_angle_beta     90
_cell_angle_gamma    120

_space_group_name_H-M_alt    "P 1"
_space_group_IT_number       1

loop_
  _space_group_symop_operation_xyz
  'x, y, z'

loop_
  _atom_site_type_symbol
  _atom_site_label
  _atom_site_symmetry_multiplicity
  _atom_site_fract_x
  _atom_site_fract_y
  _atom_site_fract_z
  _atom_site_occupancy
  Ga  Ga1       1.0  0.59900  0.00000  0.25000  1.0000
  Ga  Ga2       1.0  0.00000  0.59900  0.25000  1.0000
  Ga  Ga3       1.0  0.40100  0.40100  0.25000  1.0000
  Ga  Ga4       1.0  0.40100  0.00000  0.75000  1.0000
  Ga  Ga5       1.0  0.00000  0.40100  0.75000  1.0000
  Ga  Ga6       1.0  0.59900  0.59900  0.75000  1.0000
  Ti  Ti1       1.0  0.66700  0.33300  0.00000  1.0000
  Ti  Ti2       1.0  0.33300  0.66700  0.00000  1.0000
  Ti  Ti3       1.0  0.66700  0.33300  0.50000  1.0000
  Ti  Ti4       1.0  0.33300  0.66700  0.50000  1.0000
  Zr  Zr1       1.0  0.24300  0.00000  0.25000  1.0000
  Zr  Zr2       1.0  0.00000  0.24300  0.25000  1.0000
  Zr  Zr3       1.0  0.75700  0.75700  0.25000  1.0000
  Zr  Zr4       1.0  0.75700  0.00000  0.75000  1.0000
  Zr  Zr5       1.0  0.00000  0.75700  0.75000  1.0000
  Zr  Zr6       1.0  0.24300  0.24300  0.75000  1.0000
