data_image0
_chemical_formula_structural       Ge6Sr10
_chemical_formula_sum              "Ge6 Sr10"
_cell_length_a       8.14405
_cell_length_b       8.14405
_cell_length_c       9.83942
_cell_angle_alpha    114.447
_cell_angle_beta     114.447
_cell_angle_gamma    90

_space_group_name_H-M_alt    "P 1"
_space_group_IT_number       1

loop_
  _space_group_symop_operation_xyz
  'x, y, z'

loop_
  _atom_site_type_symbol
  _atom_site_label
  _atom_site_symmetry_multiplicity
  _atom_site_fract_x
  _atom_site_fract_y
  _atom_site_fract_z
  _atom_site_occupancy
  Ge  Ge1       1.0  0.61400  0.11400  0.00000  1.0000
  Ge  Ge2       1.0  0.11400  0.38600  0.00000  1.0000
  Ge  Ge3       1.0  0.88600  0.61400  0.00000  1.0000
  Ge  Ge4       1.0  0.38600  0.88600  0.00000  1.0000
  Ge  Ge5       1.0  0.25000  0.25000  0.50000  1.0000
  Ge  Ge6       1.0  0.75000  0.75000  0.50000  1.0000
  Sr  Sr1       1.0  0.00000  0.00000  0.00000  1.0000
  Sr  Sr2       1.0  0.50000  0.50000  0.00000  1.0000
  Sr  Sr3       1.0  0.46400  0.31900  0.28200  1.0000
  Sr  Sr4       1.0  0.96400  0.46400  0.28200  1.0000
  Sr  Sr5       1.0  0.31900  0.81900  0.28200  1.0000
  Sr  Sr6       1.0  0.81900  0.96400  0.28200  1.0000
  Sr  Sr7       1.0  0.18100  0.03630  0.71800  1.0000
  Sr  Sr8       1.0  0.68100  0.18100  0.71800  1.0000
  Sr  Sr9       1.0  0.03630  0.53600  0.71800  1.0000
  Sr  Sr10      1.0  0.53600  0.68100  0.71800  1.0000
