data_image0
_chemical_formula_structural       Bi6Br2Se8
_chemical_formula_sum              "Bi6 Br2 Se8"
_cell_length_a       4.09962
_cell_length_b       10.5842
_cell_length_c       12.1338
_cell_angle_alpha    114.295
_cell_angle_beta     90
_cell_angle_gamma    101.167

_space_group_name_H-M_alt    "P 1"
_space_group_IT_number       1

loop_
  _space_group_symop_operation_xyz
  'x, y, z'

loop_
  _atom_site_type_symbol
  _atom_site_label
  _atom_site_symmetry_multiplicity
  _atom_site_fract_x
  _atom_site_fract_y
  _atom_site_fract_z
  _atom_site_occupancy
  Bi  Bi1       1.0  0.90900  0.81900  0.03260  1.0000
  Bi  Bi2       1.0  0.32700  0.65400  0.26200  1.0000
  Bi  Bi3       1.0  0.14900  0.29800  0.41200  1.0000
  Bi  Bi4       1.0  0.85100  0.70200  0.58800  1.0000
  Bi  Bi5       1.0  0.67300  0.34600  0.73800  1.0000
  Bi  Bi6       1.0  0.09070  0.18100  0.96700  1.0000
  Br  Br1       1.0  0.54400  0.08860  0.16500  1.0000
  Br  Br2       1.0  0.45600  0.91100  0.83500  1.0000
  Se  Se1       1.0  0.69000  0.38100  0.02370  1.0000
  Se  Se2       1.0  0.92500  0.85000  0.27200  1.0000
  Se  Se3       1.0  0.74600  0.49100  0.35600  1.0000
  Se  Se4       1.0  0.58200  0.16400  0.49000  1.0000
  Se  Se5       1.0  0.41800  0.83600  0.51000  1.0000
  Se  Se6       1.0  0.25400  0.50900  0.64400  1.0000
  Se  Se7       1.0  0.07510  0.15000  0.72800  1.0000
  Se  Se8       1.0  0.31000  0.61900  0.97600  1.0000
