data_image0
_chemical_formula_structural       Ba3O9Y4
_chemical_formula_sum              "Ba3 O9 Y4"
_cell_length_a       6.10149
_cell_length_b       6.10149
_cell_length_c       9.1712
_cell_angle_alpha    70.5707
_cell_angle_beta     109.429
_cell_angle_gamma    120

_space_group_name_H-M_alt    "P 1"
_space_group_IT_number       1

loop_
  _space_group_symop_operation_xyz
  'x, y, z'

loop_
  _atom_site_type_symbol
  _atom_site_label
  _atom_site_symmetry_multiplicity
  _atom_site_fract_x
  _atom_site_fract_y
  _atom_site_fract_z
  _atom_site_occupancy
  Ba  Ba1       1.0  0.00100  0.99900  0.00300  1.0000
  Ba  Ba2       1.0  0.41600  0.58400  0.24800  1.0000
  Ba  Ba3       1.0  0.83600  0.16400  0.50900  1.0000
  O   O1        1.0  0.85200  0.01470  0.25600  1.0000
  O   O2        1.0  0.41800  0.14800  0.25600  1.0000
  O   O3        1.0  0.98500  0.58200  0.25600  1.0000
  O   O4        1.0  0.29200  0.12300  0.58800  1.0000
  O   O5        1.0  0.87700  0.58100  0.58800  1.0000
  O   O6        1.0  0.41900  0.70800  0.58800  1.0000
  O   O7        1.0  0.41600  0.03760  0.92600  1.0000
  O   O8        1.0  0.96200  0.45200  0.92600  1.0000
  O   O9        1.0  0.54800  0.58400  0.92600  1.0000
  Y   Y1        1.0  0.70100  0.29900  0.10200  1.0000
  Y   Y2        1.0  0.13700  0.86300  0.41000  1.0000
  Y   Y3        1.0  0.57500  0.42500  0.72600  1.0000
  Y   Y4        1.0  0.26200  0.73800  0.78600  1.0000
