data_image0
_chemical_formula_structural       Eu6Ge10
_chemical_formula_sum              "Eu6 Ge10"
_cell_length_a       6.24876
_cell_length_b       6.24876
_cell_length_c       9.7777
_cell_angle_alpha    90
_cell_angle_beta     90
_cell_angle_gamma    101.618

_space_group_name_H-M_alt    "P 1"
_space_group_IT_number       1

loop_
  _space_group_symop_operation_xyz
  'x, y, z'

loop_
  _atom_site_type_symbol
  _atom_site_label
  _atom_site_symmetry_multiplicity
  _atom_site_fract_x
  _atom_site_fract_y
  _atom_site_fract_z
  _atom_site_occupancy
  Eu  Eu1       1.0  0.79500  0.20500  0.00000  1.0000
  Eu  Eu2       1.0  0.20500  0.79500  0.00000  1.0000
  Eu  Eu3       1.0  0.65100  0.65100  0.25000  1.0000
  Eu  Eu4       1.0  0.79500  0.20500  0.50000  1.0000
  Eu  Eu5       1.0  0.20500  0.79500  0.50000  1.0000
  Eu  Eu6       1.0  0.34900  0.34900  0.75000  1.0000
  Ge  Ge1       1.0  0.30600  0.30600  0.05920  1.0000
  Ge  Ge2       1.0  0.05110  0.05110  0.25000  1.0000
  Ge  Ge3       1.0  0.48200  0.09690  0.25000  1.0000
  Ge  Ge4       1.0  0.09690  0.48200  0.25000  1.0000
  Ge  Ge5       1.0  0.30600  0.30600  0.44100  1.0000
  Ge  Ge6       1.0  0.69400  0.69400  0.55900  1.0000
  Ge  Ge7       1.0  0.90300  0.51800  0.75000  1.0000
  Ge  Ge8       1.0  0.51800  0.90300  0.75000  1.0000
  Ge  Ge9       1.0  0.94900  0.94900  0.75000  1.0000
  Ge  Ge10      1.0  0.69400  0.69400  0.94100  1.0000
