data_image0
_chemical_formula_structural       Ba6Sn10
_chemical_formula_sum              "Ba6 Sn10"
_cell_length_a       7.1573
_cell_length_b       7.1573
_cell_length_c       11.262
_cell_angle_alpha    90
_cell_angle_beta     90
_cell_angle_gamma    78.4049

_space_group_name_H-M_alt    "P 1"
_space_group_IT_number       1

loop_
  _space_group_symop_operation_xyz
  'x, y, z'

loop_
  _atom_site_type_symbol
  _atom_site_label
  _atom_site_symmetry_multiplicity
  _atom_site_fract_x
  _atom_site_fract_y
  _atom_site_fract_z
  _atom_site_occupancy
  Ba  Ba1       1.0  0.29500  0.29500  0.00000  1.0000
  Ba  Ba2       1.0  0.70500  0.70500  0.00000  1.0000
  Ba  Ba3       1.0  0.15000  0.85000  0.25000  1.0000
  Ba  Ba4       1.0  0.29500  0.29500  0.50000  1.0000
  Ba  Ba5       1.0  0.70500  0.70500  0.50000  1.0000
  Ba  Ba6       1.0  0.85000  0.15000  0.75000  1.0000
  Sn  Sn1       1.0  0.80900  0.19100  0.05990  1.0000
  Sn  Sn2       1.0  0.59600  0.02000  0.25000  1.0000
  Sn  Sn3       1.0  0.98000  0.40400  0.25000  1.0000
  Sn  Sn4       1.0  0.54900  0.45100  0.25000  1.0000
  Sn  Sn5       1.0  0.80900  0.19100  0.44000  1.0000
  Sn  Sn6       1.0  0.19100  0.80900  0.56000  1.0000
  Sn  Sn7       1.0  0.45100  0.54900  0.75000  1.0000
  Sn  Sn8       1.0  0.02000  0.59600  0.75000  1.0000
  Sn  Sn9       1.0  0.40400  0.98000  0.75000  1.0000
  Sn  Sn10      1.0  0.19100  0.80900  0.94000  1.0000
