data_image0
_chemical_formula_structural       Ni4Tb12
_chemical_formula_sum              "Ni4 Tb12"
_cell_length_a       6.85611
_cell_length_b       9.62716
_cell_length_c       6.31728
_cell_angle_alpha    90
_cell_angle_beta     90
_cell_angle_gamma    90

_space_group_name_H-M_alt    "P 1"
_space_group_IT_number       1

loop_
  _space_group_symop_operation_xyz
  'x, y, z'

loop_
  _atom_site_type_symbol
  _atom_site_label
  _atom_site_symmetry_multiplicity
  _atom_site_fract_x
  _atom_site_fract_y
  _atom_site_fract_z
  _atom_site_occupancy
  Ni  Ni1       1.0  0.61000  0.75000  0.05810  1.0000
  Ni  Ni2       1.0  0.11000  0.75000  0.44200  1.0000
  Ni  Ni3       1.0  0.89000  0.25000  0.55800  1.0000
  Ni  Ni4       1.0  0.39000  0.25000  0.94200  1.0000
  Tb  Tb1       1.0  0.03410  0.25000  0.14100  1.0000
  Tb  Tb2       1.0  0.32100  0.56600  0.17600  1.0000
  Tb  Tb3       1.0  0.32100  0.93400  0.17600  1.0000
  Tb  Tb4       1.0  0.82100  0.56600  0.32400  1.0000
  Tb  Tb5       1.0  0.82100  0.93400  0.32400  1.0000
  Tb  Tb6       1.0  0.53400  0.25000  0.35900  1.0000
  Tb  Tb7       1.0  0.46600  0.75000  0.64100  1.0000
  Tb  Tb8       1.0  0.17900  0.06600  0.67600  1.0000
  Tb  Tb9       1.0  0.17900  0.43400  0.67600  1.0000
  Tb  Tb10      1.0  0.67900  0.06600  0.82400  1.0000
  Tb  Tb11      1.0  0.67900  0.43400  0.82400  1.0000
  Tb  Tb12      1.0  0.96600  0.75000  0.85900  1.0000
