data_image0
_chemical_formula_structural       Ga9Ru5Sm2
_chemical_formula_sum              "Ga9 Ru5 Sm2"
_cell_length_a       6.20112
_cell_length_b       6.20112
_cell_length_c       8.09159
_cell_angle_alpha    112.531
_cell_angle_beta     112.531
_cell_angle_gamma    90

_space_group_name_H-M_alt    "P 1"
_space_group_IT_number       1

loop_
  _space_group_symop_operation_xyz
  'x, y, z'

loop_
  _atom_site_type_symbol
  _atom_site_label
  _atom_site_symmetry_multiplicity
  _atom_site_fract_x
  _atom_site_fract_y
  _atom_site_fract_z
  _atom_site_occupancy
  Ga  Ga1       1.0  0.00000  0.00000  0.00000  1.0000
  Ga  Ga2       1.0  0.44000  0.44000  0.30000  1.0000
  Ga  Ga3       1.0  0.85900  0.44000  0.30000  1.0000
  Ga  Ga4       1.0  0.44000  0.85900  0.30000  1.0000
  Ga  Ga5       1.0  0.85900  0.85900  0.30000  1.0000
  Ga  Ga6       1.0  0.14100  0.14100  0.70000  1.0000
  Ga  Ga7       1.0  0.56000  0.14100  0.70000  1.0000
  Ga  Ga8       1.0  0.14100  0.56000  0.70000  1.0000
  Ga  Ga9       1.0  0.56000  0.56000  0.70000  1.0000
  Ru  Ru1       1.0  0.50000  0.50000  0.00000  1.0000
  Ru  Ru2       1.0  0.18000  0.18000  0.36000  1.0000
  Ru  Ru3       1.0  0.75000  0.25000  0.50000  1.0000
  Ru  Ru4       1.0  0.25000  0.75000  0.50000  1.0000
  Ru  Ru5       1.0  0.82000  0.82000  0.64000  1.0000
  Sm  Sm1       1.0  0.50000  0.00000  0.00000  1.0000
  Sm  Sm2       1.0  0.00000  0.50000  0.00000  1.0000
