data_image0
_chemical_formula_structural       Cu4Mn2S8Si2
_chemical_formula_sum              "Cu4 Mn2 S8 Si2"
_cell_length_a       7.49252
_cell_length_b       6.40857
_cell_length_c       6.17573
_cell_angle_alpha    90
_cell_angle_beta     90
_cell_angle_gamma    90

_space_group_name_H-M_alt    "P 1"
_space_group_IT_number       1

loop_
  _space_group_symop_operation_xyz
  'x, y, z'

loop_
  _atom_site_type_symbol
  _atom_site_label
  _atom_site_symmetry_multiplicity
  _atom_site_fract_x
  _atom_site_fract_y
  _atom_site_fract_z
  _atom_site_occupancy
  Cu  Cu1       1.0  0.24800  0.67800  0.17900  1.0000
  Cu  Cu2       1.0  0.75200  0.67800  0.17900  1.0000
  Cu  Cu3       1.0  0.25200  0.32200  0.67900  1.0000
  Cu  Cu4       1.0  0.74800  0.32200  0.67900  1.0000
  Mn  Mn1       1.0  0.50000  0.15500  0.16900  1.0000
  Mn  Mn2       1.0  0.00000  0.84500  0.66900  1.0000
  S   S1        1.0  0.50000  0.81300  0.01870  1.0000
  S   S2        1.0  0.23400  0.33600  0.05050  1.0000
  S   S3        1.0  0.76600  0.33600  0.05050  1.0000
  S   S4        1.0  0.00000  0.85700  0.05770  1.0000
  S   S5        1.0  0.00000  0.18700  0.51900  1.0000
  S   S6        1.0  0.26600  0.66400  0.55000  1.0000
  S   S7        1.0  0.73400  0.66400  0.55000  1.0000
  S   S8        1.0  0.50000  0.14300  0.55800  1.0000
  Si  Si1       1.0  0.00000  0.17600  0.16900  1.0000
  Si  Si2       1.0  0.50000  0.82400  0.66900  1.0000
