data_image0
_chemical_formula_structural       Al12Mo4
_chemical_formula_sum              "Al12 Mo4"
_cell_length_a       3.60545
_cell_length_b       8.41049
_cell_length_c       8.42328
_cell_angle_alpha    101.62
_cell_angle_beta     102.358
_cell_angle_gamma    90

_space_group_name_H-M_alt    "P 1"
_space_group_IT_number       1

loop_
  _space_group_symop_operation_xyz
  'x, y, z'

loop_
  _atom_site_type_symbol
  _atom_site_label
  _atom_site_symmetry_multiplicity
  _atom_site_fract_x
  _atom_site_fract_y
  _atom_site_fract_z
  _atom_site_occupancy
  Al  Al1       1.0  0.49700  0.09300  0.99500  1.0000
  Al  Al2       1.0  0.00323  0.85700  0.00646  1.0000
  Al  Al3       1.0  0.50300  0.59800  0.00694  1.0000
  Al  Al4       1.0  0.62500  0.39600  0.25000  1.0000
  Al  Al5       1.0  0.12500  0.14700  0.25000  1.0000
  Al  Al6       1.0  0.12600  0.65600  0.25300  1.0000
  Al  Al7       1.0  0.74900  0.69500  0.49700  1.0000
  Al  Al8       1.0  0.75000  0.20600  0.50000  1.0000
  Al  Al9       1.0  0.25000  0.95500  0.50000  1.0000
  Al  Al10      1.0  0.37200  0.75500  0.74400  1.0000
  Al  Al11      1.0  0.87200  0.49600  0.74400  1.0000
  Al  Al12      1.0  0.37700  0.26000  0.75500  1.0000
  Mo  Mo1       1.0  0.01060  0.35600  0.02130  1.0000
  Mo  Mo2       1.0  0.63300  0.90400  0.26500  1.0000
  Mo  Mo3       1.0  0.24200  0.44800  0.48500  1.0000
  Mo  Mo4       1.0  0.86400  0.99700  0.72800  1.0000
