data_image0
_chemical_formula_structural       Li2Rb4S8V2
_chemical_formula_sum              "Li2 Rb4 S8 V2"
_cell_length_a       5.83655
_cell_length_b       7.22916
_cell_length_c       12.063
_cell_angle_alpha    95.6043
_cell_angle_beta     104
_cell_angle_gamma    66.1915

_space_group_name_H-M_alt    "P 1"
_space_group_IT_number       1

loop_
  _space_group_symop_operation_xyz
  'x, y, z'

loop_
  _atom_site_type_symbol
  _atom_site_label
  _atom_site_symmetry_multiplicity
  _atom_site_fract_x
  _atom_site_fract_y
  _atom_site_fract_z
  _atom_site_occupancy
  Li  Li1       1.0  0.87500  0.25000  0.25000  1.0000
  Li  Li2       1.0  0.12500  0.75000  0.75000  1.0000
  Rb  Rb1       1.0  0.80300  0.75000  0.10700  1.0000
  Rb  Rb2       1.0  0.44700  0.75000  0.39300  1.0000
  Rb  Rb3       1.0  0.55300  0.25000  0.60700  1.0000
  Rb  Rb4       1.0  0.19700  0.25000  0.89300  1.0000
  S   S1        1.0  0.20100  0.06160  0.14500  1.0000
  S   S2        1.0  0.44400  0.43800  0.14500  1.0000
  S   S3        1.0  0.73800  0.06160  0.35500  1.0000
  S   S4        1.0  0.11800  0.43800  0.35500  1.0000
  S   S5        1.0  0.88200  0.56200  0.64500  1.0000
  S   S6        1.0  0.26200  0.93800  0.64500  1.0000
  S   S7        1.0  0.55600  0.56200  0.85500  1.0000
  S   S8        1.0  0.79900  0.93800  0.85500  1.0000
  V   V1        1.0  0.37500  0.25000  0.25000  1.0000
  V   V2        1.0  0.62500  0.75000  0.75000  1.0000
