data_image0
_chemical_formula_structural       Cl4La6Si6
_chemical_formula_sum              "Cl4 La6 Si6"
_cell_length_a       4.23559
_cell_length_b       9.32012
_cell_length_c       10.6626
_cell_angle_alpha    97.6904
_cell_angle_beta     90
_cell_angle_gamma    103.134

_space_group_name_H-M_alt    "P 1"
_space_group_IT_number       1

loop_
  _space_group_symop_operation_xyz
  'x, y, z'

loop_
  _atom_site_type_symbol
  _atom_site_label
  _atom_site_symmetry_multiplicity
  _atom_site_fract_x
  _atom_site_fract_y
  _atom_site_fract_z
  _atom_site_occupancy
  Cl  Cl1       1.0  0.29700  0.59400  0.12600  1.0000
  Cl  Cl2       1.0  0.77300  0.54700  0.39100  1.0000
  Cl  Cl3       1.0  0.22700  0.45300  0.60900  1.0000
  Cl  Cl4       1.0  0.70300  0.40600  0.87400  1.0000
  La  La1       1.0  0.68000  0.36100  0.14900  1.0000
  La  La2       1.0  0.46500  0.93000  0.16900  1.0000
  La  La3       1.0  0.61500  0.23100  0.49000  1.0000
  La  La4       1.0  0.38500  0.76900  0.51000  1.0000
  La  La5       1.0  0.53500  0.07010  0.83100  1.0000
  La  La6       1.0  0.32000  0.63900  0.85100  1.0000
  Si  Si1       1.0  0.06410  0.12800  0.05060  1.0000
  Si  Si2       1.0  0.08840  0.17700  0.27700  1.0000
  Si  Si3       1.0  0.98100  0.96300  0.38800  1.0000
  Si  Si4       1.0  0.01870  0.03740  0.61200  1.0000
  Si  Si5       1.0  0.91200  0.82300  0.72300  1.0000
  Si  Si6       1.0  0.93600  0.87200  0.94900  1.0000
