data_image0
_chemical_formula_structural       Eu10Si6
_chemical_formula_sum              "Eu10 Si6"
_cell_length_a       7.82048
_cell_length_b       7.82048
_cell_length_c       9.40271
_cell_angle_alpha    114.574
_cell_angle_beta     114.574
_cell_angle_gamma    90

_space_group_name_H-M_alt    "P 1"
_space_group_IT_number       1

loop_
  _space_group_symop_operation_xyz
  'x, y, z'

loop_
  _atom_site_type_symbol
  _atom_site_label
  _atom_site_symmetry_multiplicity
  _atom_site_fract_x
  _atom_site_fract_y
  _atom_site_fract_z
  _atom_site_occupancy
  Eu  Eu1       1.0  0.00000  0.00000  0.00000  1.0000
  Eu  Eu2       1.0  0.50000  0.50000  0.00000  1.0000
  Eu  Eu3       1.0  0.46200  0.32300  0.28500  1.0000
  Eu  Eu4       1.0  0.96200  0.46200  0.28500  1.0000
  Eu  Eu5       1.0  0.32300  0.82300  0.28500  1.0000
  Eu  Eu6       1.0  0.82300  0.96200  0.28500  1.0000
  Eu  Eu7       1.0  0.17700  0.03760  0.71500  1.0000
  Eu  Eu8       1.0  0.67700  0.17700  0.71500  1.0000
  Eu  Eu9       1.0  0.03760  0.53800  0.71500  1.0000
  Eu  Eu10      1.0  0.53800  0.67700  0.71500  1.0000
  Si  Si1       1.0  0.60900  0.10900  0.00000  1.0000
  Si  Si2       1.0  0.10900  0.39100  0.00000  1.0000
  Si  Si3       1.0  0.89100  0.60900  0.00000  1.0000
  Si  Si4       1.0  0.39100  0.89100  0.00000  1.0000
  Si  Si5       1.0  0.25000  0.25000  0.50000  1.0000
  Si  Si6       1.0  0.75000  0.75000  0.50000  1.0000
