data_image0
_chemical_formula_structural       Cu4Ge2Se8Sr2
_chemical_formula_sum              "Cu4 Ge2 Se8 Sr2"
_cell_length_a       6.36177
_cell_length_b       6.36177
_cell_length_c       10.8942
_cell_angle_alpha    90
_cell_angle_beta     90
_cell_angle_gamma    62.485

_space_group_name_H-M_alt    "P 1"
_space_group_IT_number       1

loop_
  _space_group_symop_operation_xyz
  'x, y, z'

loop_
  _atom_site_type_symbol
  _atom_site_label
  _atom_site_symmetry_multiplicity
  _atom_site_fract_x
  _atom_site_fract_y
  _atom_site_fract_z
  _atom_site_occupancy
  Cu  Cu1       1.0  0.19800  0.37000  0.13000  1.0000
  Cu  Cu2       1.0  0.19800  0.37000  0.37000  1.0000
  Cu  Cu3       1.0  0.63000  0.80200  0.63000  1.0000
  Cu  Cu4       1.0  0.63000  0.80200  0.87000  1.0000
  Ge  Ge1       1.0  0.55900  0.73500  0.25000  1.0000
  Ge  Ge2       1.0  0.26500  0.44100  0.75000  1.0000
  Se  Se1       1.0  0.52000  0.98600  0.07580  1.0000
  Se  Se2       1.0  0.87600  0.33600  0.25000  1.0000
  Se  Se3       1.0  0.19700  0.70200  0.25000  1.0000
  Se  Se4       1.0  0.52000  0.98600  0.42400  1.0000
  Se  Se5       1.0  0.01400  0.48000  0.57600  1.0000
  Se  Se6       1.0  0.66400  0.12400  0.75000  1.0000
  Se  Se7       1.0  0.29800  0.80300  0.75000  1.0000
  Se  Se8       1.0  0.01400  0.48000  0.92400  1.0000
  Sr  Sr1       1.0  0.00458  0.99500  0.00000  1.0000
  Sr  Sr2       1.0  0.00458  0.99500  0.50000  1.0000
