data_image0
_chemical_formula_structural       Ba4Li2N8Re2
_chemical_formula_sum              "Ba4 Li2 N8 Re2"
_cell_length_a       6.53444
_cell_length_b       6.00843
_cell_length_c       7.39919
_cell_angle_alpha    90
_cell_angle_beta     108.781
_cell_angle_gamma    90

_space_group_name_H-M_alt    "P 1"
_space_group_IT_number       1

loop_
  _space_group_symop_operation_xyz
  'x, y, z'

loop_
  _atom_site_type_symbol
  _atom_site_label
  _atom_site_symmetry_multiplicity
  _atom_site_fract_x
  _atom_site_fract_y
  _atom_site_fract_z
  _atom_site_occupancy
  Ba  Ba1       1.0  0.73900  0.25000  0.05670  1.0000
  Ba  Ba2       1.0  0.19600  0.75000  0.42500  1.0000
  Ba  Ba3       1.0  0.80400  0.25000  0.57500  1.0000
  Ba  Ba4       1.0  0.26100  0.75000  0.94300  1.0000
  Li  Li1       1.0  0.65900  0.75000  0.35400  1.0000
  Li  Li2       1.0  0.34100  0.25000  0.64600  1.0000
  N   N1        1.0  0.87100  0.75000  0.04090  1.0000
  N   N2        1.0  0.47100  0.00615  0.26300  1.0000
  N   N3        1.0  0.47100  0.49400  0.26300  1.0000
  N   N4        1.0  0.11900  0.25000  0.36900  1.0000
  N   N5        1.0  0.88100  0.75000  0.63100  1.0000
  N   N6        1.0  0.52900  0.50600  0.73700  1.0000
  N   N7        1.0  0.52900  0.99400  0.73700  1.0000
  N   N8        1.0  0.12900  0.25000  0.95900  1.0000
  Re  Re1       1.0  0.29300  0.25000  0.21200  1.0000
  Re  Re2       1.0  0.70700  0.75000  0.78800  1.0000
