data_image0
_chemical_formula_structural       B6C3Nb7
_chemical_formula_sum              "B6 C3 Nb7"
_cell_length_a       16.7565
_cell_length_b       3.14639
_cell_length_c       3.264
_cell_angle_alpha    90
_cell_angle_beta     90
_cell_angle_gamma    95.3872

_space_group_name_H-M_alt    "P 1"
_space_group_IT_number       1

loop_
  _space_group_symop_operation_xyz
  'x, y, z'

loop_
  _atom_site_type_symbol
  _atom_site_label
  _atom_site_symmetry_multiplicity
  _atom_site_fract_x
  _atom_site_fract_y
  _atom_site_fract_z
  _atom_site_occupancy
  B   B1        1.0  0.36300  0.18200  0.50000  1.0000
  B   B2        1.0  0.47300  0.23700  0.50000  1.0000
  B   B3        1.0  0.69500  0.34700  0.50000  1.0000
  B   B4        1.0  0.30500  0.65300  0.50000  1.0000
  B   B5        1.0  0.52700  0.76300  0.50000  1.0000
  B   B6        1.0  0.63700  0.81800  0.50000  1.0000
  C   C1        1.0  0.13300  0.06630  0.00000  1.0000
  C   C2        1.0  0.86700  0.93400  0.00000  1.0000
  C   C3        1.0  0.00000  0.50000  0.50000  1.0000
  Nb  Nb1       1.0  0.00000  0.00000  0.00000  1.0000
  Nb  Nb2       1.0  0.26100  0.13100  0.00000  1.0000
  Nb  Nb3       1.0  0.58100  0.29000  0.00000  1.0000
  Nb  Nb4       1.0  0.41900  0.71000  0.00000  1.0000
  Nb  Nb5       1.0  0.73900  0.86900  0.00000  1.0000
  Nb  Nb6       1.0  0.86600  0.43300  0.50000  1.0000
  Nb  Nb7       1.0  0.13400  0.56700  0.50000  1.0000
