data_image0
_chemical_formula_structural       Nd4S10Sn2
_chemical_formula_sum              "Nd4 S10 Sn2"
_cell_length_a       7.86266
_cell_length_b       11.3157
_cell_length_c       3.96146
_cell_angle_alpha    90
_cell_angle_beta     90
_cell_angle_gamma    90

_space_group_name_H-M_alt    "P 1"
_space_group_IT_number       1

loop_
  _space_group_symop_operation_xyz
  'x, y, z'

loop_
  _atom_site_type_symbol
  _atom_site_label
  _atom_site_symmetry_multiplicity
  _atom_site_fract_x
  _atom_site_fract_y
  _atom_site_fract_z
  _atom_site_occupancy
  Nd  Nd1       1.0  0.43900  0.17000  0.50000  1.0000
  Nd  Nd2       1.0  0.93900  0.33000  0.50000  1.0000
  Nd  Nd3       1.0  0.06070  0.67000  0.50000  1.0000
  Nd  Nd4       1.0  0.56100  0.83000  0.50000  1.0000
  S   S1        1.0  0.50000  0.00000  0.00000  1.0000
  S   S2        1.0  0.15500  0.20100  0.00000  1.0000
  S   S3        1.0  0.65500  0.29900  0.00000  1.0000
  S   S4        1.0  0.00000  0.50000  0.00000  1.0000
  S   S5        1.0  0.34500  0.70100  0.00000  1.0000
  S   S6        1.0  0.84500  0.79900  0.00000  1.0000
  S   S7        1.0  0.81500  0.07810  0.50000  1.0000
  S   S8        1.0  0.31500  0.42200  0.50000  1.0000
  S   S9        1.0  0.68500  0.57800  0.50000  1.0000
  S   S10       1.0  0.18500  0.92200  0.50000  1.0000
  Sn  Sn1       1.0  0.00000  0.00000  0.00000  1.0000
  Sn  Sn2       1.0  0.50000  0.50000  0.00000  1.0000
