data_image0
_chemical_formula_structural       Cu4Hg4I4S4
_chemical_formula_sum              "Cu4 Hg4 I4 S4"
_cell_length_a       7.21222
_cell_length_b       8.49493
_cell_length_c       7.07272
_cell_angle_alpha    90
_cell_angle_beta     90
_cell_angle_gamma    90

_space_group_name_H-M_alt    "P 1"
_space_group_IT_number       1

loop_
  _space_group_symop_operation_xyz
  'x, y, z'

loop_
  _atom_site_type_symbol
  _atom_site_label
  _atom_site_symmetry_multiplicity
  _atom_site_fract_x
  _atom_site_fract_y
  _atom_site_fract_z
  _atom_site_occupancy
  Cu  Cu1       1.0  0.58100  0.14400  0.29400  1.0000
  Cu  Cu2       1.0  0.08130  0.35600  0.29400  1.0000
  Cu  Cu3       1.0  0.91900  0.64400  0.79400  1.0000
  Cu  Cu4       1.0  0.41900  0.85600  0.79400  1.0000
  Hg  Hg1       1.0  0.53700  0.55500  0.19000  1.0000
  Hg  Hg2       1.0  0.03680  0.94500  0.19000  1.0000
  Hg  Hg3       1.0  0.96300  0.05480  0.69000  1.0000
  Hg  Hg4       1.0  0.46300  0.44500  0.69000  1.0000
  I   I1        1.0  0.91800  0.62100  0.40900  1.0000
  I   I2        1.0  0.41800  0.87900  0.40900  1.0000
  I   I3        1.0  0.58200  0.12100  0.90900  1.0000
  I   I4        1.0  0.08240  0.37900  0.90900  1.0000
  S   S1        1.0  0.88600  0.15600  0.37300  1.0000
  S   S2        1.0  0.38600  0.34400  0.37300  1.0000
  S   S3        1.0  0.61400  0.65600  0.87300  1.0000
  S   S4        1.0  0.11400  0.84400  0.87300  1.0000
