data_image0
_chemical_formula_structural       Al2Cl10N2P2
_chemical_formula_sum              "Al2 Cl10 N2 P2"
_cell_length_a       7.27741
_cell_length_b       8.52734
_cell_length_c       8.66139
_cell_angle_alpha    64.4399
_cell_angle_beta     76.7398
_cell_angle_gamma    68.2915

_space_group_name_H-M_alt    "P 1"
_space_group_IT_number       1

loop_
  _space_group_symop_operation_xyz
  'x, y, z'

loop_
  _atom_site_type_symbol
  _atom_site_label
  _atom_site_symmetry_multiplicity
  _atom_site_fract_x
  _atom_site_fract_y
  _atom_site_fract_z
  _atom_site_occupancy
  Al  Al1       1.0  0.08360  0.43300  0.37200  1.0000
  Al  Al2       1.0  0.91600  0.56700  0.62800  1.0000
  Cl  Cl1       1.0  0.72800  0.75500  0.05920  1.0000
  Cl  Cl2       1.0  0.31300  0.51000  0.18300  1.0000
  Cl  Cl3       1.0  0.73700  0.03770  0.20100  1.0000
  Cl  Cl4       1.0  0.99500  0.23600  0.34300  1.0000
  Cl  Cl5       1.0  0.43100  0.81800  0.37500  1.0000
  Cl  Cl6       1.0  0.56900  0.18200  0.62500  1.0000
  Cl  Cl7       1.0  0.00487  0.76400  0.65700  1.0000
  Cl  Cl8       1.0  0.26300  0.96200  0.79900  1.0000
  Cl  Cl9       1.0  0.68700  0.49000  0.81700  1.0000
  Cl  Cl10      1.0  0.27200  0.24500  0.94100  1.0000
  N   N1        1.0  0.86700  0.63100  0.39900  1.0000
  N   N2        1.0  0.13300  0.36900  0.60100  1.0000
  P   P1        1.0  0.71200  0.78900  0.27600  1.0000
  P   P2        1.0  0.28800  0.21100  0.72400  1.0000
