data_image0
_chemical_formula_structural       O10Pd2Se4
_chemical_formula_sum              "O10 Pd2 Se4"
_cell_length_a       5.56574
_cell_length_b       6.6423
_cell_length_c       7.08016
_cell_angle_alpha    106.2
_cell_angle_beta     90
_cell_angle_gamma    114.769

_space_group_name_H-M_alt    "P 1"
_space_group_IT_number       1

loop_
  _space_group_symop_operation_xyz
  'x, y, z'

loop_
  _atom_site_type_symbol
  _atom_site_label
  _atom_site_symmetry_multiplicity
  _atom_site_fract_x
  _atom_site_fract_y
  _atom_site_fract_z
  _atom_site_occupancy
  O   O1        1.0  0.36500  0.26500  0.01200  1.0000
  O   O2        1.0  0.90200  0.26700  0.12600  1.0000
  O   O3        1.0  0.44300  0.00000  0.25000  1.0000
  O   O4        1.0  0.63500  0.73300  0.37400  1.0000
  O   O5        1.0  0.09960  0.73500  0.48800  1.0000
  O   O6        1.0  0.90000  0.26500  0.51200  1.0000
  O   O7        1.0  0.36500  0.26700  0.62600  1.0000
  O   O8        1.0  0.55700  0.00000  0.75000  1.0000
  O   O9        1.0  0.09760  0.73300  0.87400  1.0000
  O   O10       1.0  0.63500  0.73500  0.98800  1.0000
  Pd  Pd1       1.0  0.00000  0.00000  0.00000  1.0000
  Pd  Pd2       1.0  0.00000  0.00000  0.50000  1.0000
  Se  Se1       1.0  0.43900  0.71300  0.17700  1.0000
  Se  Se2       1.0  0.72600  0.28700  0.32300  1.0000
  Se  Se3       1.0  0.27400  0.71300  0.67700  1.0000
  Se  Se4       1.0  0.56100  0.28700  0.82300  1.0000
