data_image0
_chemical_formula_structural       Na6O6P2S2
_chemical_formula_sum              "Na6 O6 P2 S2"
_cell_length_a       6.20831
_cell_length_b       6.20831
_cell_length_c       6.20847
_cell_angle_alpha    84.9507
_cell_angle_beta     95.0493
_cell_angle_gamma    95.0483

_space_group_name_H-M_alt    "P 1"
_space_group_IT_number       1

loop_
  _space_group_symop_operation_xyz
  'x, y, z'

loop_
  _atom_site_type_symbol
  _atom_site_label
  _atom_site_symmetry_multiplicity
  _atom_site_fract_x
  _atom_site_fract_y
  _atom_site_fract_z
  _atom_site_occupancy
  Na  Na1       1.0  0.31000  0.38200  0.00500  1.0000
  Na  Na2       1.0  0.49500  0.88200  0.19000  1.0000
  Na  Na3       1.0  0.99500  0.69000  0.38200  1.0000
  Na  Na4       1.0  0.11800  0.19000  0.50500  1.0000
  Na  Na5       1.0  0.61800  0.00500  0.69000  1.0000
  Na  Na6       1.0  0.81000  0.50500  0.88200  1.0000
  O   O1        1.0  0.13700  0.69300  0.04480  1.0000
  O   O2        1.0  0.63700  0.54500  0.19300  1.0000
  O   O3        1.0  0.45500  0.19300  0.36300  1.0000
  O   O4        1.0  0.80700  0.36300  0.54500  1.0000
  O   O5        1.0  0.95500  0.86300  0.69300  1.0000
  O   O6        1.0  0.30700  0.04480  0.86300  1.0000
  P   P1        1.0  0.59300  0.40700  0.40700  1.0000
  P   P2        1.0  0.09290  0.90700  0.90700  1.0000
  S   S1        1.0  0.91400  0.08640  0.08630  1.0000
  S   S2        1.0  0.41400  0.58600  0.58600  1.0000
