data_image0
_chemical_formula_structural       Au2K4P2S8
_chemical_formula_sum              "Au2 K4 P2 S8"
_cell_length_a       6.60938
_cell_length_b       6.79446
_cell_length_c       9.53184
_cell_angle_alpha    90
_cell_angle_beta     92.5482
_cell_angle_gamma    90

_space_group_name_H-M_alt    "P 1"
_space_group_IT_number       1

loop_
  _space_group_symop_operation_xyz
  'x, y, z'

loop_
  _atom_site_type_symbol
  _atom_site_label
  _atom_site_symmetry_multiplicity
  _atom_site_fract_x
  _atom_site_fract_y
  _atom_site_fract_z
  _atom_site_occupancy
  Au  Au1       1.0  0.00000  0.00000  0.00000  1.0000
  Au  Au2       1.0  0.00000  0.50000  0.00000  1.0000
  K   K1        1.0  0.53100  0.75000  0.16300  1.0000
  K   K2        1.0  0.79500  0.25000  0.46200  1.0000
  K   K3        1.0  0.20500  0.75000  0.53800  1.0000
  K   K4        1.0  0.46900  0.25000  0.83700  1.0000
  P   P1        1.0  0.26900  0.25000  0.28000  1.0000
  P   P2        1.0  0.73100  0.75000  0.72000  1.0000
  S   S1        1.0  0.52800  0.25000  0.17500  1.0000
  S   S2        1.0  0.09750  0.50400  0.23700  1.0000
  S   S3        1.0  0.09750  0.99600  0.23700  1.0000
  S   S4        1.0  0.30300  0.25000  0.49300  1.0000
  S   S5        1.0  0.69700  0.75000  0.50700  1.0000
  S   S6        1.0  0.90300  0.00450  0.76300  1.0000
  S   S7        1.0  0.90300  0.49600  0.76300  1.0000
  S   S8        1.0  0.47200  0.75000  0.82500  1.0000
