data_image0
_chemical_formula_structural       BaN8OSi6
_chemical_formula_sum              "Ba1 N8 O1 Si6"
_cell_length_a       4.83654
_cell_length_b       6.78304
_cell_length_c       6.78304
_cell_angle_alpha    91.7835
_cell_angle_beta     110.886
_cell_angle_gamma    110.886

_space_group_name_H-M_alt    "P 1"
_space_group_IT_number       1

loop_
  _space_group_symop_operation_xyz
  'x, y, z'

loop_
  _atom_site_type_symbol
  _atom_site_label
  _atom_site_symmetry_multiplicity
  _atom_site_fract_x
  _atom_site_fract_y
  _atom_site_fract_z
  _atom_site_occupancy
  Ba  Ba1       1.0  0.00028  0.50000  0.50000  1.0000
  N   N1        1.0  0.14300  0.60300  0.04500  1.0000
  N   N2        1.0  0.82600  0.81300  0.18700  1.0000
  N   N3        1.0  0.22300  0.27600  0.27600  1.0000
  N   N4        1.0  0.49500  0.95500  0.39700  1.0000
  N   N5        1.0  0.14300  0.04500  0.60300  1.0000
  N   N6        1.0  0.67000  0.72400  0.72400  1.0000
  N   N7        1.0  0.82600  0.18700  0.81300  1.0000
  N   N8        1.0  0.49500  0.39700  0.95500  1.0000
  O   O1        1.0  0.38600  0.00000  0.00000  1.0000
  Si  Si1       1.0  0.17600  0.35500  0.03840  1.0000
  Si  Si2       1.0  0.47600  0.83900  0.16100  1.0000
  Si  Si3       1.0  0.17600  0.03840  0.35500  1.0000
  Si  Si4       1.0  0.78300  0.96200  0.64500  1.0000
  Si  Si5       1.0  0.47600  0.16100  0.83900  1.0000
  Si  Si6       1.0  0.78300  0.64500  0.96200  1.0000
