data_image0
_chemical_formula_structural       Cl2O8Sb6
_chemical_formula_sum              "Cl2 O8 Sb6"
_cell_length_a       9.51771
_cell_length_b       5.3313
_cell_length_c       5.60853
_cell_angle_alpha    90
_cell_angle_beta     94.4321
_cell_angle_gamma    90

_space_group_name_H-M_alt    "P 1"
_space_group_IT_number       1

loop_
  _space_group_symop_operation_xyz
  'x, y, z'

loop_
  _atom_site_type_symbol
  _atom_site_label
  _atom_site_symmetry_multiplicity
  _atom_site_fract_x
  _atom_site_fract_y
  _atom_site_fract_z
  _atom_site_occupancy
  Cl  Cl1       1.0  0.00000  0.27900  0.25000  1.0000
  Cl  Cl2       1.0  0.00000  0.72100  0.75000  1.0000
  O   O1        1.0  0.29500  0.53200  0.03830  1.0000
  O   O2        1.0  0.62100  0.92000  0.09800  1.0000
  O   O3        1.0  0.37900  0.92000  0.40200  1.0000
  O   O4        1.0  0.70500  0.53200  0.46200  1.0000
  O   O5        1.0  0.29500  0.46800  0.53800  1.0000
  O   O6        1.0  0.62100  0.07980  0.59800  1.0000
  O   O7        1.0  0.37900  0.07980  0.90200  1.0000
  O   O8        1.0  0.70500  0.46800  0.96200  1.0000
  Sb  Sb1       1.0  0.79800  0.70700  0.20200  1.0000
  Sb  Sb2       1.0  0.50000  0.19000  0.25000  1.0000
  Sb  Sb3       1.0  0.20200  0.70700  0.29800  1.0000
  Sb  Sb4       1.0  0.79800  0.29300  0.70200  1.0000
  Sb  Sb5       1.0  0.50000  0.81000  0.75000  1.0000
  Sb  Sb6       1.0  0.20200  0.29300  0.79800  1.0000
