data_image0
_chemical_formula_structural       B4Mn10P2
_chemical_formula_sum              "B4 Mn10 P2"
_cell_length_a       5.50683
_cell_length_b       5.50683
_cell_length_c       6.44787
_cell_angle_alpha    115.279
_cell_angle_beta     115.279
_cell_angle_gamma    90

_space_group_name_H-M_alt    "P 1"
_space_group_IT_number       1

loop_
  _space_group_symop_operation_xyz
  'x, y, z'

loop_
  _atom_site_type_symbol
  _atom_site_label
  _atom_site_symmetry_multiplicity
  _atom_site_fract_x
  _atom_site_fract_y
  _atom_site_fract_z
  _atom_site_occupancy
  B   B1        1.0  0.61900  0.11900  0.00000  1.0000
  B   B2        1.0  0.11900  0.38100  0.00000  1.0000
  B   B3        1.0  0.88100  0.61900  0.00000  1.0000
  B   B4        1.0  0.38100  0.88100  0.00000  1.0000
  Mn  Mn1       1.0  0.00000  0.00000  0.00000  1.0000
  Mn  Mn2       1.0  0.50000  0.50000  0.00000  1.0000
  Mn  Mn3       1.0  0.47000  0.30800  0.27900  1.0000
  Mn  Mn4       1.0  0.97000  0.47000  0.27900  1.0000
  Mn  Mn5       1.0  0.30800  0.80800  0.27900  1.0000
  Mn  Mn6       1.0  0.80800  0.97000  0.27900  1.0000
  Mn  Mn7       1.0  0.19200  0.02950  0.72100  1.0000
  Mn  Mn8       1.0  0.69200  0.19200  0.72100  1.0000
  Mn  Mn9       1.0  0.02950  0.53000  0.72100  1.0000
  Mn  Mn10      1.0  0.53000  0.69200  0.72100  1.0000
  P   P1        1.0  0.25000  0.25000  0.50000  1.0000
  P   P2        1.0  0.75000  0.75000  0.50000  1.0000
