data_image0
_chemical_formula_structural       Cu4Ho4S8
_chemical_formula_sum              "Cu4 Ho4 S8"
_cell_length_a       13.3694
_cell_length_b       3.94694
_cell_length_c       6.24188
_cell_angle_alpha    90
_cell_angle_beta     90
_cell_angle_gamma    90

_space_group_name_H-M_alt    "P 1"
_space_group_IT_number       1

loop_
  _space_group_symop_operation_xyz
  'x, y, z'

loop_
  _atom_site_type_symbol
  _atom_site_label
  _atom_site_symmetry_multiplicity
  _atom_site_fract_x
  _atom_site_fract_y
  _atom_site_fract_z
  _atom_site_occupancy
  Cu  Cu1       1.0  0.95500  0.25000  0.12800  1.0000
  Cu  Cu2       1.0  0.45500  0.25000  0.37200  1.0000
  Cu  Cu3       1.0  0.54500  0.75000  0.62800  1.0000
  Cu  Cu4       1.0  0.04530  0.75000  0.87200  1.0000
  Ho  Ho1       1.0  0.63300  0.25000  0.99900  1.0000
  Ho  Ho2       1.0  0.36700  0.75000  0.00059  1.0000
  Ho  Ho3       1.0  0.86700  0.75000  0.49900  1.0000
  Ho  Ho4       1.0  0.13300  0.25000  0.50100  1.0000
  S   S1        1.0  0.29400  0.25000  0.23700  1.0000
  S   S2        1.0  0.54000  0.75000  0.24700  1.0000
  S   S3        1.0  0.04000  0.75000  0.25300  1.0000
  S   S4        1.0  0.79400  0.25000  0.26300  1.0000
  S   S5        1.0  0.20600  0.75000  0.73700  1.0000
  S   S6        1.0  0.96000  0.25000  0.74700  1.0000
  S   S7        1.0  0.46000  0.25000  0.75300  1.0000
  S   S8        1.0  0.70600  0.75000  0.76300  1.0000
