data_image0
_chemical_formula_structural       Na6O6S2V2
_chemical_formula_sum              "Na6 O6 S2 V2"
_cell_length_a       6.37855
_cell_length_b       6.37855
_cell_length_c       6.37855
_cell_angle_alpha    96.2109
_cell_angle_beta     83.7891
_cell_angle_gamma    96.2109

_space_group_name_H-M_alt    "P 1"
_space_group_IT_number       1

loop_
  _space_group_symop_operation_xyz
  'x, y, z'

loop_
  _atom_site_type_symbol
  _atom_site_label
  _atom_site_symmetry_multiplicity
  _atom_site_fract_x
  _atom_site_fract_y
  _atom_site_fract_z
  _atom_site_occupancy
  Na  Na1       1.0  0.40600  0.20700  0.10300  1.0000
  Na  Na2       1.0  0.90600  0.39700  0.29300  1.0000
  Na  Na3       1.0  0.79300  0.89700  0.40600  1.0000
  Na  Na4       1.0  0.29300  0.09380  0.60300  1.0000
  Na  Na5       1.0  0.10300  0.59400  0.79300  1.0000
  Na  Na6       1.0  0.60300  0.70700  0.90600  1.0000
  O   O1        1.0  0.27700  0.53500  0.08130  1.0000
  O   O2        1.0  0.46500  0.91900  0.27700  1.0000
  O   O3        1.0  0.08130  0.72300  0.46500  1.0000
  O   O4        1.0  0.96500  0.22300  0.58100  1.0000
  O   O5        1.0  0.58100  0.03540  0.77700  1.0000
  O   O6        1.0  0.77700  0.41900  0.96500  1.0000
  S   S1        1.0  0.00182  0.99800  0.00182  1.0000
  S   S2        1.0  0.50200  0.49800  0.50200  1.0000
  V   V1        1.0  0.31800  0.68200  0.31800  1.0000
  V   V2        1.0  0.81800  0.18200  0.81800  1.0000
