data_image0
_chemical_formula_structural       La6Sn10
_chemical_formula_sum              "La6 Sn10"
_cell_length_a       6.6837
_cell_length_b       6.6837
_cell_length_c       10.6931
_cell_angle_alpha    90
_cell_angle_beta     90
_cell_angle_gamma    77.3919

_space_group_name_H-M_alt    "P 1"
_space_group_IT_number       1

loop_
  _space_group_symop_operation_xyz
  'x, y, z'

loop_
  _atom_site_type_symbol
  _atom_site_label
  _atom_site_symmetry_multiplicity
  _atom_site_fract_x
  _atom_site_fract_y
  _atom_site_fract_z
  _atom_site_occupancy
  La  La1       1.0  0.20200  0.20200  0.00000  1.0000
  La  La2       1.0  0.79800  0.79800  0.00000  1.0000
  La  La3       1.0  0.36300  0.63700  0.25000  1.0000
  La  La4       1.0  0.20200  0.20200  0.50000  1.0000
  La  La5       1.0  0.79800  0.79800  0.50000  1.0000
  La  La6       1.0  0.63700  0.36300  0.75000  1.0000
  Sn  Sn1       1.0  0.68100  0.31900  0.04850  1.0000
  Sn  Sn2       1.0  0.97400  0.02600  0.25000  1.0000
  Sn  Sn3       1.0  0.50600  0.07610  0.25000  1.0000
  Sn  Sn4       1.0  0.92400  0.49400  0.25000  1.0000
  Sn  Sn5       1.0  0.68100  0.31900  0.45100  1.0000
  Sn  Sn6       1.0  0.31900  0.68100  0.54900  1.0000
  Sn  Sn7       1.0  0.07610  0.50600  0.75000  1.0000
  Sn  Sn8       1.0  0.49400  0.92400  0.75000  1.0000
  Sn  Sn9       1.0  0.02600  0.97400  0.75000  1.0000
  Sn  Sn10      1.0  0.31900  0.68100  0.95100  1.0000
