data_image0
_chemical_formula_structural       Cd6Sr10
_chemical_formula_sum              "Cd6 Sr10"
_cell_length_a       8.71124
_cell_length_b       8.71124
_cell_length_c       10.2696
_cell_angle_alpha    115.096
_cell_angle_beta     115.096
_cell_angle_gamma    90

_space_group_name_H-M_alt    "P 1"
_space_group_IT_number       1

loop_
  _space_group_symop_operation_xyz
  'x, y, z'

loop_
  _atom_site_type_symbol
  _atom_site_label
  _atom_site_symmetry_multiplicity
  _atom_site_fract_x
  _atom_site_fract_y
  _atom_site_fract_z
  _atom_site_occupancy
  Cd  Cd1       1.0  0.62400  0.12400  0.00000  1.0000
  Cd  Cd2       1.0  0.12400  0.37600  0.00000  1.0000
  Cd  Cd3       1.0  0.87600  0.62400  0.00000  1.0000
  Cd  Cd4       1.0  0.37600  0.87600  0.00000  1.0000
  Cd  Cd5       1.0  0.25000  0.25000  0.50000  1.0000
  Cd  Cd6       1.0  0.75000  0.75000  0.50000  1.0000
  Sr  Sr1       1.0  0.00000  0.00000  0.00000  1.0000
  Sr  Sr2       1.0  0.50000  0.50000  0.00000  1.0000
  Sr  Sr3       1.0  0.48000  0.31600  0.29600  1.0000
  Sr  Sr4       1.0  0.98000  0.48000  0.29600  1.0000
  Sr  Sr5       1.0  0.31600  0.81600  0.29600  1.0000
  Sr  Sr6       1.0  0.81600  0.98000  0.29600  1.0000
  Sr  Sr7       1.0  0.18400  0.02000  0.70400  1.0000
  Sr  Sr8       1.0  0.68400  0.18400  0.70400  1.0000
  Sr  Sr9       1.0  0.02000  0.52000  0.70400  1.0000
  Sr  Sr10      1.0  0.52000  0.68400  0.70400  1.0000
