data_image0
_chemical_formula_structural       Cu4Np4Se8
_chemical_formula_sum              "Cu4 Np4 Se8"
_cell_length_a       6.59487
_cell_length_b       7.33469
_cell_length_c       7.07985
_cell_angle_alpha    90
_cell_angle_beta     97.5061
_cell_angle_gamma    90

_space_group_name_H-M_alt    "P 1"
_space_group_IT_number       1

loop_
  _space_group_symop_operation_xyz
  'x, y, z'

loop_
  _atom_site_type_symbol
  _atom_site_label
  _atom_site_symmetry_multiplicity
  _atom_site_fract_x
  _atom_site_fract_y
  _atom_site_fract_z
  _atom_site_occupancy
  Cu  Cu1       1.0  0.06640  0.65900  0.04140  1.0000
  Cu  Cu2       1.0  0.93400  0.15900  0.45900  1.0000
  Cu  Cu3       1.0  0.06640  0.84100  0.54100  1.0000
  Cu  Cu4       1.0  0.93400  0.34100  0.95900  1.0000
  Np  Np1       1.0  0.30500  0.05000  0.20100  1.0000
  Np  Np2       1.0  0.69500  0.55000  0.29900  1.0000
  Np  Np3       1.0  0.30500  0.45000  0.70100  1.0000
  Np  Np4       1.0  0.69500  0.95000  0.79900  1.0000
  Se  Se1       1.0  0.58300  0.27100  0.00192  1.0000
  Se  Se2       1.0  0.89800  0.89100  0.21100  1.0000
  Se  Se3       1.0  0.10200  0.39100  0.28900  1.0000
  Se  Se4       1.0  0.41700  0.77100  0.49800  1.0000
  Se  Se5       1.0  0.58300  0.22900  0.50200  1.0000
  Se  Se6       1.0  0.89800  0.60900  0.71100  1.0000
  Se  Se7       1.0  0.10200  0.10900  0.78900  1.0000
  Se  Se8       1.0  0.41700  0.72900  0.99800  1.0000
