data_image0
_chemical_formula_structural       Ge6Ir4Lu6
_chemical_formula_sum              "Ge6 Ir4 Lu6"
_cell_length_a       5.559
_cell_length_b       4.28786
_cell_length_c       14.0685
_cell_angle_alpha    90
_cell_angle_beta     90
_cell_angle_gamma    112.685

_space_group_name_H-M_alt    "P 1"
_space_group_IT_number       1

loop_
  _space_group_symop_operation_xyz
  'x, y, z'

loop_
  _atom_site_type_symbol
  _atom_site_label
  _atom_site_symmetry_multiplicity
  _atom_site_fract_x
  _atom_site_fract_y
  _atom_site_fract_z
  _atom_site_occupancy
  Ge  Ge1       1.0  0.24300  0.12100  0.03540  1.0000
  Ge  Ge2       1.0  0.69600  0.84800  0.25000  1.0000
  Ge  Ge3       1.0  0.24300  0.12100  0.46500  1.0000
  Ge  Ge4       1.0  0.75700  0.87900  0.53500  1.0000
  Ge  Ge5       1.0  0.30400  0.15200  0.75000  1.0000
  Ge  Ge6       1.0  0.75700  0.87900  0.96500  1.0000
  Ir  Ir1       1.0  0.40000  0.70000  0.10300  1.0000
  Ir  Ir2       1.0  0.40000  0.70000  0.39700  1.0000
  Ir  Ir3       1.0  0.60000  0.30000  0.60300  1.0000
  Ir  Ir4       1.0  0.60000  0.30000  0.89700  1.0000
  Lu  Lu1       1.0  0.83100  0.41500  0.11000  1.0000
  Lu  Lu2       1.0  0.28500  0.14200  0.25000  1.0000
  Lu  Lu3       1.0  0.83100  0.41500  0.39000  1.0000
  Lu  Lu4       1.0  0.16900  0.58500  0.61000  1.0000
  Lu  Lu5       1.0  0.71500  0.85800  0.75000  1.0000
  Lu  Lu6       1.0  0.16900  0.58500  0.89000  1.0000
