data_image0
_chemical_formula_structural       Au4Ce6Sb6
_chemical_formula_sum              "Au4 Ce6 Sb6"
_cell_length_a       4.66304
_cell_length_b       4.66312
_cell_length_c       24.2649
_cell_angle_alpha    90
_cell_angle_beta     90
_cell_angle_gamma    119.999

_space_group_name_H-M_alt    "P 1"
_space_group_IT_number       1

loop_
  _space_group_symop_operation_xyz
  'x, y, z'

loop_
  _atom_site_type_symbol
  _atom_site_label
  _atom_site_symmetry_multiplicity
  _atom_site_fract_x
  _atom_site_fract_y
  _atom_site_fract_z
  _atom_site_occupancy
  Au  Au1       1.0  0.00000  0.00000  0.18600  1.0000
  Au  Au2       1.0  0.00000  0.00000  0.31400  1.0000
  Au  Au3       1.0  0.00000  0.00000  0.68600  1.0000
  Au  Au4       1.0  0.00000  0.00000  0.81400  1.0000
  Ce  Ce1       1.0  0.33300  0.66700  0.07550  1.0000
  Ce  Ce2       1.0  0.33300  0.66700  0.25000  1.0000
  Ce  Ce3       1.0  0.33300  0.66700  0.42400  1.0000
  Ce  Ce4       1.0  0.66700  0.33300  0.57600  1.0000
  Ce  Ce5       1.0  0.66700  0.33300  0.75000  1.0000
  Ce  Ce6       1.0  0.66700  0.33300  0.92400  1.0000
  Sb  Sb1       1.0  0.00000  0.00000  0.00000  1.0000
  Sb  Sb2       1.0  0.66700  0.33300  0.15400  1.0000
  Sb  Sb3       1.0  0.66700  0.33300  0.34600  1.0000
  Sb  Sb4       1.0  0.00000  0.00000  0.50000  1.0000
  Sb  Sb5       1.0  0.33300  0.66700  0.65400  1.0000
  Sb  Sb6       1.0  0.33300  0.66700  0.84600  1.0000
