data_image0
_chemical_formula_structural       Cu2K4Nb2S8
_chemical_formula_sum              "Cu2 K4 Nb2 S8"
_cell_length_a       5.5684
_cell_length_b       7.14791
_cell_length_c       11.9102
_cell_angle_alpha    95.2243
_cell_angle_beta     103.519
_cell_angle_gamma    67.0758

_space_group_name_H-M_alt    "P 1"
_space_group_IT_number       1

loop_
  _space_group_symop_operation_xyz
  'x, y, z'

loop_
  _atom_site_type_symbol
  _atom_site_label
  _atom_site_symmetry_multiplicity
  _atom_site_fract_x
  _atom_site_fract_y
  _atom_site_fract_z
  _atom_site_occupancy
  Cu  Cu1       1.0  0.37500  0.25000  0.25000  1.0000
  Cu  Cu2       1.0  0.62500  0.75000  0.75000  1.0000
  K   K1        1.0  0.30400  0.75000  0.10700  1.0000
  K   K2        1.0  0.94600  0.75000  0.39300  1.0000
  K   K3        1.0  0.05350  0.25000  0.60700  1.0000
  K   K4        1.0  0.69600  0.25000  0.89300  1.0000
  Nb  Nb1       1.0  0.87500  0.25000  0.25000  1.0000
  Nb  Nb2       1.0  0.12500  0.75000  0.75000  1.0000
  S   S1        1.0  0.67600  0.04810  0.13800  1.0000
  S   S2        1.0  0.96200  0.45200  0.13800  1.0000
  S   S3        1.0  0.27600  0.04810  0.36200  1.0000
  S   S4        1.0  0.58600  0.45200  0.36200  1.0000
  S   S5        1.0  0.41400  0.54800  0.63800  1.0000
  S   S6        1.0  0.72400  0.95200  0.63800  1.0000
  S   S7        1.0  0.03820  0.54800  0.86200  1.0000
  S   S8        1.0  0.32400  0.95200  0.86200  1.0000
