data_image0
_chemical_formula_structural       Eu10Pb6
_chemical_formula_sum              "Eu10 Pb6"
_cell_length_a       6.31937
_cell_length_b       9.7189
_cell_length_c       9.7189
_cell_angle_alpha    96.0672
_cell_angle_beta     108.972
_cell_angle_gamma    71.0279

_space_group_name_H-M_alt    "P 1"
_space_group_IT_number       1

loop_
  _space_group_symop_operation_xyz
  'x, y, z'

loop_
  _atom_site_type_symbol
  _atom_site_label
  _atom_site_symmetry_multiplicity
  _atom_site_fract_x
  _atom_site_fract_y
  _atom_site_fract_z
  _atom_site_occupancy
  Eu  Eu1       1.0  0.71600  0.69900  0.13100  1.0000
  Eu  Eu2       1.0  0.91500  0.30100  0.13100  1.0000
  Eu  Eu3       1.0  0.21600  0.86900  0.30100  1.0000
  Eu  Eu4       1.0  0.58500  0.13100  0.30100  1.0000
  Eu  Eu5       1.0  0.25000  0.50000  0.50000  1.0000
  Eu  Eu6       1.0  0.75000  0.50000  0.50000  1.0000
  Eu  Eu7       1.0  0.78400  0.13100  0.69900  1.0000
  Eu  Eu8       1.0  0.41500  0.86900  0.69900  1.0000
  Eu  Eu9       1.0  0.28400  0.30100  0.86900  1.0000
  Eu  Eu10      1.0  0.08500  0.69900  0.86900  1.0000
  Pb  Pb1       1.0  0.25000  0.00000  0.00000  1.0000
  Pb  Pb2       1.0  0.75000  0.00000  0.00000  1.0000
  Pb  Pb3       1.0  0.34200  0.50000  0.18400  1.0000
  Pb  Pb4       1.0  0.15800  0.18400  0.50000  1.0000
  Pb  Pb5       1.0  0.84200  0.81600  0.50000  1.0000
  Pb  Pb6       1.0  0.65800  0.50000  0.81600  1.0000
