data_image0
_chemical_formula_structural       La10Sn2Zn4
_chemical_formula_sum              "La10 Sn2 Zn4"
_cell_length_a       8.53217
_cell_length_b       8.53217
_cell_length_c       9.00436
_cell_angle_alpha    118.28
_cell_angle_beta     118.28
_cell_angle_gamma    90

_space_group_name_H-M_alt    "P 1"
_space_group_IT_number       1

loop_
  _space_group_symop_operation_xyz
  'x, y, z'

loop_
  _atom_site_type_symbol
  _atom_site_label
  _atom_site_symmetry_multiplicity
  _atom_site_fract_x
  _atom_site_fract_y
  _atom_site_fract_z
  _atom_site_occupancy
  La  La1       1.0  0.00000  0.00000  0.00000  1.0000
  La  La2       1.0  0.50000  0.50000  0.00000  1.0000
  La  La3       1.0  0.81000  0.31000  0.29500  1.0000
  La  La4       1.0  0.31000  0.48500  0.29500  1.0000
  La  La5       1.0  0.98500  0.81000  0.29500  1.0000
  La  La6       1.0  0.48500  0.98500  0.29500  1.0000
  La  La7       1.0  0.51500  0.01480  0.70500  1.0000
  La  La8       1.0  0.01480  0.19000  0.70500  1.0000
  La  La9       1.0  0.69000  0.51500  0.70500  1.0000
  La  La10      1.0  0.19000  0.69000  0.70500  1.0000
  Sn  Sn1       1.0  0.25000  0.25000  0.50000  1.0000
  Sn  Sn2       1.0  0.75000  0.75000  0.50000  1.0000
  Zn  Zn1       1.0  0.37000  0.13000  0.00000  1.0000
  Zn  Zn2       1.0  0.87000  0.37000  0.00000  1.0000
  Zn  Zn3       1.0  0.13000  0.63000  0.00000  1.0000
  Zn  Zn4       1.0  0.63000  0.87000  0.00000  1.0000
