data_image0
_chemical_formula_structural       Ca10Cd2Cu4
_chemical_formula_sum              "Ca10 Cd2 Cu4"
_cell_length_a       7.91845
_cell_length_b       7.91845
_cell_length_c       9.21912
_cell_angle_alpha    115.433
_cell_angle_beta     115.433
_cell_angle_gamma    90

_space_group_name_H-M_alt    "P 1"
_space_group_IT_number       1

loop_
  _space_group_symop_operation_xyz
  'x, y, z'

loop_
  _atom_site_type_symbol
  _atom_site_label
  _atom_site_symmetry_multiplicity
  _atom_site_fract_x
  _atom_site_fract_y
  _atom_site_fract_z
  _atom_site_occupancy
  Ca  Ca1       1.0  0.00000  0.00000  0.00000  1.0000
  Ca  Ca2       1.0  0.50000  0.50000  0.00000  1.0000
  Ca  Ca3       1.0  0.47500  0.30800  0.28300  1.0000
  Ca  Ca4       1.0  0.97500  0.47500  0.28300  1.0000
  Ca  Ca5       1.0  0.30800  0.80800  0.28300  1.0000
  Ca  Ca6       1.0  0.80800  0.97500  0.28300  1.0000
  Ca  Ca7       1.0  0.19200  0.02480  0.71700  1.0000
  Ca  Ca8       1.0  0.69200  0.19200  0.71700  1.0000
  Ca  Ca9       1.0  0.02480  0.52500  0.71700  1.0000
  Ca  Ca10      1.0  0.52500  0.69200  0.71700  1.0000
  Cd  Cd1       1.0  0.25000  0.25000  0.50000  1.0000
  Cd  Cd2       1.0  0.75000  0.75000  0.50000  1.0000
  Cu  Cu1       1.0  0.61600  0.11600  0.00000  1.0000
  Cu  Cu2       1.0  0.11600  0.38400  0.00000  1.0000
  Cu  Cu3       1.0  0.88400  0.61600  0.00000  1.0000
  Cu  Cu4       1.0  0.38400  0.88400  0.00000  1.0000
