data_image0
_chemical_formula_structural       B2C2Cl6La6
_chemical_formula_sum              "B2 C2 Cl6 La6"
_cell_length_a       3.7694
_cell_length_b       8.35086
_cell_length_c       11.3732
_cell_angle_alpha    100.828
_cell_angle_beta     90
_cell_angle_gamma    90

_space_group_name_H-M_alt    "P 1"
_space_group_IT_number       1

loop_
  _space_group_symop_operation_xyz
  'x, y, z'

loop_
  _atom_site_type_symbol
  _atom_site_label
  _atom_site_symmetry_multiplicity
  _atom_site_fract_x
  _atom_site_fract_y
  _atom_site_fract_z
  _atom_site_occupancy
  B   B1        1.0  0.25000  0.53700  0.04090  1.0000
  B   B2        1.0  0.75000  0.46300  0.95900  1.0000
  C   C1        1.0  0.25000  0.60600  0.18100  1.0000
  C   C2        1.0  0.75000  0.39400  0.81900  1.0000
  Cl  Cl1       1.0  0.25000  0.09490  0.12400  1.0000
  Cl  Cl2       1.0  0.75000  0.96700  0.36300  1.0000
  Cl  Cl3       1.0  0.25000  0.35700  0.40400  1.0000
  Cl  Cl4       1.0  0.75000  0.64300  0.59600  1.0000
  Cl  Cl5       1.0  0.25000  0.03350  0.63700  1.0000
  Cl  Cl6       1.0  0.75000  0.90500  0.87600  1.0000
  La  La1       1.0  0.75000  0.79300  0.11100  1.0000
  La  La2       1.0  0.75000  0.39300  0.18500  1.0000
  La  La3       1.0  0.25000  0.71200  0.39600  1.0000
  La  La4       1.0  0.75000  0.28800  0.60400  1.0000
  La  La5       1.0  0.25000  0.60700  0.81500  1.0000
  La  La6       1.0  0.25000  0.20700  0.88900  1.0000
