data_image0
_chemical_formula_structural       Al2Bi2Br12
_chemical_formula_sum              "Al2 Bi2 Br12"
_cell_length_a       7.83145
_cell_length_b       7.84982
_cell_length_c       9.83278
_cell_angle_alpha    104.376
_cell_angle_beta     102.32
_cell_angle_gamma    99.4274

_space_group_name_H-M_alt    "P 1"
_space_group_IT_number       1

loop_
  _space_group_symop_operation_xyz
  'x, y, z'

loop_
  _atom_site_type_symbol
  _atom_site_label
  _atom_site_symmetry_multiplicity
  _atom_site_fract_x
  _atom_site_fract_y
  _atom_site_fract_z
  _atom_site_occupancy
  Al  Al1       1.0  0.71900  0.31600  0.15300  1.0000
  Al  Al2       1.0  0.28100  0.68400  0.84700  1.0000
  Bi  Bi1       1.0  0.48200  0.80500  0.29300  1.0000
  Bi  Bi2       1.0  0.51800  0.19500  0.70700  1.0000
  Br  Br1       1.0  0.14400  0.73900  0.04020  1.0000
  Br  Br2       1.0  0.41500  0.24300  0.04130  1.0000
  Br  Br3       1.0  0.81100  0.62300  0.29000  1.0000
  Br  Br4       1.0  0.81400  0.15200  0.30700  1.0000
  Br  Br5       1.0  0.29700  0.54200  0.35800  1.0000
  Br  Br6       1.0  0.29800  0.06710  0.40900  1.0000
  Br  Br7       1.0  0.70200  0.93300  0.59100  1.0000
  Br  Br8       1.0  0.70300  0.45800  0.64200  1.0000
  Br  Br9       1.0  0.18600  0.84800  0.69300  1.0000
  Br  Br10      1.0  0.18900  0.37700  0.71000  1.0000
  Br  Br11      1.0  0.58500  0.75700  0.95900  1.0000
  Br  Br12      1.0  0.85600  0.26100  0.96000  1.0000
