data_image0
_chemical_formula_structural       Ce4S10Sn2
_chemical_formula_sum              "Ce4 S10 Sn2"
_cell_length_a       4.02685
_cell_length_b       7.9522
_cell_length_c       11.3403
_cell_angle_alpha    90
_cell_angle_beta     90
_cell_angle_gamma    90

_space_group_name_H-M_alt    "P 1"
_space_group_IT_number       1

loop_
  _space_group_symop_operation_xyz
  'x, y, z'

loop_
  _atom_site_type_symbol
  _atom_site_label
  _atom_site_symmetry_multiplicity
  _atom_site_fract_x
  _atom_site_fract_y
  _atom_site_fract_z
  _atom_site_occupancy
  Ce  Ce1       1.0  0.50000  0.57400  0.16900  1.0000
  Ce  Ce2       1.0  0.50000  0.07410  0.33100  1.0000
  Ce  Ce3       1.0  0.50000  0.92600  0.66900  1.0000
  Ce  Ce4       1.0  0.50000  0.42600  0.83100  1.0000
  S   S1        1.0  0.00000  0.50000  0.00000  1.0000
  S   S2        1.0  0.50000  0.18900  0.07000  1.0000
  S   S3        1.0  0.00000  0.85600  0.20300  1.0000
  S   S4        1.0  0.00000  0.35600  0.29700  1.0000
  S   S5        1.0  0.50000  0.68900  0.43000  1.0000
  S   S6        1.0  0.00000  0.00000  0.50000  1.0000
  S   S7        1.0  0.50000  0.31100  0.57000  1.0000
  S   S8        1.0  0.00000  0.64400  0.70300  1.0000
  S   S9        1.0  0.00000  0.14400  0.79700  1.0000
  S   S10       1.0  0.50000  0.81100  0.93000  1.0000
  Sn  Sn1       1.0  0.00000  0.00000  0.00000  1.0000
  Sn  Sn2       1.0  0.00000  0.50000  0.50000  1.0000
