data_image0
_chemical_formula_structural       Cu4Gd4S8
_chemical_formula_sum              "Cu4 Gd4 S8"
_cell_length_a       6.40526
_cell_length_b       6.75617
_cell_length_c       7.04727
_cell_angle_alpha    90
_cell_angle_beta     90
_cell_angle_gamma    97.8178

_space_group_name_H-M_alt    "P 1"
_space_group_IT_number       1

loop_
  _space_group_symop_operation_xyz
  'x, y, z'

loop_
  _atom_site_type_symbol
  _atom_site_label
  _atom_site_symmetry_multiplicity
  _atom_site_fract_x
  _atom_site_fract_y
  _atom_site_fract_z
  _atom_site_occupancy
  Cu  Cu1       1.0  0.08560  0.05820  0.15600  1.0000
  Cu  Cu2       1.0  0.08560  0.55800  0.34400  1.0000
  Cu  Cu3       1.0  0.91400  0.44200  0.65600  1.0000
  Cu  Cu4       1.0  0.91400  0.94200  0.84400  1.0000
  Gd  Gd1       1.0  0.69400  0.30200  0.04850  1.0000
  Gd  Gd2       1.0  0.69400  0.80200  0.45200  1.0000
  Gd  Gd3       1.0  0.30600  0.19800  0.54800  1.0000
  Gd  Gd4       1.0  0.30600  0.69800  0.95200  1.0000
  S   S1        1.0  0.90900  0.71900  0.11500  1.0000
  S   S2        1.0  0.42500  0.00177  0.22700  1.0000
  S   S3        1.0  0.42500  0.50200  0.27300  1.0000
  S   S4        1.0  0.90900  0.21900  0.38500  1.0000
  S   S5        1.0  0.09050  0.78100  0.61500  1.0000
  S   S6        1.0  0.57500  0.49800  0.72700  1.0000
  S   S7        1.0  0.57500  0.99800  0.77300  1.0000
  S   S8        1.0  0.09050  0.28100  0.88500  1.0000
