data_image0
_chemical_formula_structural       Cu2Rb4S8Ta2
_chemical_formula_sum              "Cu2 Rb4 S8 Ta2"
_cell_length_a       5.60672
_cell_length_b       7.37728
_cell_length_c       12.3535
_cell_angle_alpha    85.0531
_cell_angle_beta     76.8837
_cell_angle_gamma    67.6663

_space_group_name_H-M_alt    "P 1"
_space_group_IT_number       1

loop_
  _space_group_symop_operation_xyz
  'x, y, z'

loop_
  _atom_site_type_symbol
  _atom_site_label
  _atom_site_symmetry_multiplicity
  _atom_site_fract_x
  _atom_site_fract_y
  _atom_site_fract_z
  _atom_site_occupancy
  Cu  Cu1       1.0  0.62500  0.25000  0.25000  1.0000
  Cu  Cu2       1.0  0.37500  0.75000  0.75000  1.0000
  Rb  Rb1       1.0  0.69700  0.75000  0.10600  1.0000
  Rb  Rb2       1.0  0.05280  0.75000  0.39400  1.0000
  Rb  Rb3       1.0  0.94700  0.25000  0.60600  1.0000
  Rb  Rb4       1.0  0.30300  0.25000  0.89400  1.0000
  S   S1        1.0  0.03460  0.05640  0.14200  1.0000
  S   S2        1.0  0.32400  0.44400  0.14200  1.0000
  S   S3        1.0  0.40900  0.05640  0.35800  1.0000
  S   S4        1.0  0.73300  0.44400  0.35800  1.0000
  S   S5        1.0  0.26700  0.55600  0.64200  1.0000
  S   S6        1.0  0.59100  0.94400  0.64200  1.0000
  S   S7        1.0  0.67600  0.55600  0.85800  1.0000
  S   S8        1.0  0.96500  0.94400  0.85800  1.0000
  Ta  Ta1       1.0  0.12500  0.25000  0.25000  1.0000
  Ta  Ta2       1.0  0.87500  0.75000  0.75000  1.0000
