data_image0
_chemical_formula_structural       Ga6Sc10
_chemical_formula_sum              "Ga6 Sc10"
_cell_length_a       5.93331
_cell_length_b       8.07673
_cell_length_c       8.07789
_cell_angle_alpha    60.0048
_cell_angle_beta     89.2865
_cell_angle_gamma    88.5727

_space_group_name_H-M_alt    "P 1"
_space_group_IT_number       1

loop_
  _space_group_symop_operation_xyz
  'x, y, z'

loop_
  _atom_site_type_symbol
  _atom_site_label
  _atom_site_symmetry_multiplicity
  _atom_site_fract_x
  _atom_site_fract_y
  _atom_site_fract_z
  _atom_site_occupancy
  Ga  Ga1       1.0  0.30300  0.19000  0.09480  1.0000
  Ga  Ga2       1.0  0.78200  0.60000  0.09870  1.0000
  Ga  Ga3       1.0  0.21800  0.40000  0.49900  1.0000
  Ga  Ga4       1.0  0.78200  0.60000  0.50100  1.0000
  Ga  Ga5       1.0  0.21800  0.40000  0.90100  1.0000
  Ga  Ga6       1.0  0.69700  0.81000  0.90500  1.0000
  Sc  Sc1       1.0  0.00000  0.00000  0.15000  1.0000
  Sc  Sc2       1.0  0.50000  1.00000  0.18200  1.0000
  Sc  Sc3       1.0  0.24500  0.75500  0.25800  1.0000
  Sc  Sc4       1.0  0.74100  0.53300  0.26600  1.0000
  Sc  Sc5       1.0  0.24500  0.75500  0.49700  1.0000
  Sc  Sc6       1.0  0.75500  0.24500  0.50300  1.0000
  Sc  Sc7       1.0  0.25900  0.46700  0.73400  1.0000
  Sc  Sc8       1.0  0.75500  0.24500  0.74200  1.0000
  Sc  Sc9       1.0  0.50000  1.00000  0.81800  1.0000
  Sc  Sc10      1.0  0.00000  0.00000  0.85000  1.0000
