data_image0
_chemical_formula_structural       O10P2Sn2V2
_chemical_formula_sum              "O10 P2 Sn2 V2"
_cell_length_a       5.25071
_cell_length_b       6.53692
_cell_length_c       6.83447
_cell_angle_alpha    113.105
_cell_angle_beta     107.679
_cell_angle_gamma    94.7083

_space_group_name_H-M_alt    "P 1"
_space_group_IT_number       1

loop_
  _space_group_symop_operation_xyz
  'x, y, z'

loop_
  _atom_site_type_symbol
  _atom_site_label
  _atom_site_symmetry_multiplicity
  _atom_site_fract_x
  _atom_site_fract_y
  _atom_site_fract_z
  _atom_site_occupancy
  O   O1        1.0  0.08050  0.74900  0.04690  1.0000
  O   O2        1.0  0.42200  0.23300  0.10600  1.0000
  O   O3        1.0  0.75500  0.66700  0.22600  1.0000
  O   O4        1.0  0.90200  0.06860  0.27900  1.0000
  O   O5        1.0  0.22500  0.50200  0.46000  1.0000
  O   O6        1.0  0.77500  0.49800  0.54000  1.0000
  O   O7        1.0  0.09770  0.93100  0.72100  1.0000
  O   O8        1.0  0.24500  0.33300  0.77400  1.0000
  O   O9        1.0  0.57800  0.76700  0.89400  1.0000
  O   O10       1.0  0.92000  0.25100  0.95300  1.0000
  P   P1        1.0  0.82800  0.81100  0.10900  1.0000
  P   P2        1.0  0.17200  0.18900  0.89100  1.0000
  Sn  Sn1       1.0  0.41000  0.21600  0.46200  1.0000
  Sn  Sn2       1.0  0.59000  0.78400  0.53800  1.0000
  V   V1        1.0  0.83800  0.36600  0.23900  1.0000
  V   V2        1.0  0.16200  0.63400  0.76100  1.0000
