data_image0
_chemical_formula_structural       N6Na8Re2
_chemical_formula_sum              "N6 Na8 Re2"
_cell_length_a       6.0342
_cell_length_b       6.20876
_cell_length_c       8.66319
_cell_angle_alpha    69.9904
_cell_angle_beta     69.6187
_cell_angle_gamma    60.9258

_space_group_name_H-M_alt    "P 1"
_space_group_IT_number       1

loop_
  _space_group_symop_operation_xyz
  'x, y, z'

loop_
  _atom_site_type_symbol
  _atom_site_label
  _atom_site_symmetry_multiplicity
  _atom_site_fract_x
  _atom_site_fract_y
  _atom_site_fract_z
  _atom_site_occupancy
  N   N1        1.0  0.15100  0.54000  0.14400  1.0000
  N   N2        1.0  0.55100  0.88600  0.18600  1.0000
  N   N3        1.0  0.84800  0.95900  0.37000  1.0000
  N   N4        1.0  0.16400  0.04040  0.64400  1.0000
  N   N5        1.0  0.37600  0.38600  0.68600  1.0000
  N   N6        1.0  0.82300  0.45900  0.87000  1.0000
  Na  Na1       1.0  0.43200  0.74700  0.02240  1.0000
  Na  Na2       1.0  0.99300  0.24500  0.13600  1.0000
  Na  Na3       1.0  0.37000  0.22700  0.36400  1.0000
  Na  Na4       1.0  0.25600  0.75300  0.46000  1.0000
  Na  Na5       1.0  0.79800  0.24700  0.52200  1.0000
  Na  Na6       1.0  0.62600  0.74500  0.63600  1.0000
  Na  Na7       1.0  0.03860  0.72700  0.86400  1.0000
  Na  Na8       1.0  0.53200  0.25300  0.96000  1.0000
  Re  Re1       1.0  0.85200  0.76800  0.24900  1.0000
  Re  Re2       1.0  0.13100  0.26800  0.74900  1.0000
