data_image0
_chemical_formula_structural       Cu2Rb4Se8Ta2
_chemical_formula_sum              "Cu2 Rb4 Se8 Ta2"
_cell_length_a       5.80457
_cell_length_b       7.64219
_cell_length_c       12.8254
_cell_angle_alpha    85.07
_cell_angle_beta     76.9211
_cell_angle_gamma    67.6805

_space_group_name_H-M_alt    "P 1"
_space_group_IT_number       1

loop_
  _space_group_symop_operation_xyz
  'x, y, z'

loop_
  _atom_site_type_symbol
  _atom_site_label
  _atom_site_symmetry_multiplicity
  _atom_site_fract_x
  _atom_site_fract_y
  _atom_site_fract_z
  _atom_site_occupancy
  Cu  Cu1       1.0  0.62500  0.25000  0.25000  1.0000
  Cu  Cu2       1.0  0.37500  0.75000  0.75000  1.0000
  Rb  Rb1       1.0  0.69600  0.75000  0.10800  1.0000
  Rb  Rb2       1.0  0.05390  0.75000  0.39200  1.0000
  Rb  Rb3       1.0  0.94600  0.25000  0.60800  1.0000
  Rb  Rb4       1.0  0.30400  0.25000  0.89200  1.0000
  Se  Se1       1.0  0.03600  0.05200  0.13900  1.0000
  Se  Se2       1.0  0.32500  0.44800  0.13900  1.0000
  Se  Se3       1.0  0.41200  0.05200  0.36100  1.0000
  Se  Se4       1.0  0.72700  0.44800  0.36100  1.0000
  Se  Se5       1.0  0.27300  0.55200  0.63900  1.0000
  Se  Se6       1.0  0.58800  0.94800  0.63900  1.0000
  Se  Se7       1.0  0.67500  0.55200  0.86100  1.0000
  Se  Se8       1.0  0.96400  0.94800  0.86100  1.0000
  Ta  Ta1       1.0  0.12500  0.25000  0.25000  1.0000
  Ta  Ta2       1.0  0.87500  0.75000  0.75000  1.0000
