data_image0
_chemical_formula_structural       Ce2Pd6S8
_chemical_formula_sum              "Ce2 Pd6 S8"
_cell_length_a       6.79351
_cell_length_b       6.79351
_cell_length_c       6.79351
_cell_angle_alpha    90
_cell_angle_beta     90
_cell_angle_gamma    90

_space_group_name_H-M_alt    "P 1"
_space_group_IT_number       1

loop_
  _space_group_symop_operation_xyz
  'x, y, z'

loop_
  _atom_site_type_symbol
  _atom_site_label
  _atom_site_symmetry_multiplicity
  _atom_site_fract_x
  _atom_site_fract_y
  _atom_site_fract_z
  _atom_site_occupancy
  Ce  Ce1       1.0  0.00000  0.00000  0.00000  1.0000
  Ce  Ce2       1.0  0.50000  0.50000  0.50000  1.0000
  Pd  Pd1       1.0  0.25000  0.50000  0.00000  1.0000
  Pd  Pd2       1.0  0.75000  0.50000  0.00000  1.0000
  Pd  Pd3       1.0  0.50000  0.00000  0.25000  1.0000
  Pd  Pd4       1.0  0.00000  0.25000  0.50000  1.0000
  Pd  Pd5       1.0  0.00000  0.75000  0.50000  1.0000
  Pd  Pd6       1.0  0.50000  0.00000  0.75000  1.0000
  S   S1        1.0  0.25000  0.25000  0.25000  1.0000
  S   S2        1.0  0.75000  0.25000  0.25000  1.0000
  S   S3        1.0  0.25000  0.75000  0.25000  1.0000
  S   S4        1.0  0.75000  0.75000  0.25000  1.0000
  S   S5        1.0  0.25000  0.25000  0.75000  1.0000
  S   S6        1.0  0.75000  0.25000  0.75000  1.0000
  S   S7        1.0  0.25000  0.75000  0.75000  1.0000
  S   S8        1.0  0.75000  0.75000  0.75000  1.0000
