data_image0
_chemical_formula_structural       As2Bi2O10Pb2
_chemical_formula_sum              "As2 Bi2 O10 Pb2"
_cell_length_a       5.52679
_cell_length_b       7.06196
_cell_length_c       7.23522
_cell_angle_alpha    111.431
_cell_angle_beta     112.454
_cell_angle_gamma    90

_space_group_name_H-M_alt    "P 1"
_space_group_IT_number       1

loop_
  _space_group_symop_operation_xyz
  'x, y, z'

loop_
  _atom_site_type_symbol
  _atom_site_label
  _atom_site_symmetry_multiplicity
  _atom_site_fract_x
  _atom_site_fract_y
  _atom_site_fract_z
  _atom_site_occupancy
  As  As1       1.0  0.66100  0.64900  0.32300  1.0000
  As  As2       1.0  0.33900  0.35100  0.67700  1.0000
  Bi  Bi1       1.0  0.01600  0.25800  0.03210  1.0000
  Bi  Bi2       1.0  0.98400  0.74200  0.96800  1.0000
  O   O1        1.0  0.23700  0.00000  0.00000  1.0000
  O   O2        1.0  0.76300  0.00000  0.00000  1.0000
  O   O3        1.0  0.58100  0.39200  0.16300  1.0000
  O   O4        1.0  0.39000  0.77500  0.28300  1.0000
  O   O5        1.0  0.89300  0.77500  0.28300  1.0000
  O   O6        1.0  0.20300  0.30800  0.40500  1.0000
  O   O7        1.0  0.79700  0.69200  0.59500  1.0000
  O   O8        1.0  0.10700  0.22500  0.71700  1.0000
  O   O9        1.0  0.61000  0.22500  0.71700  1.0000
  O   O10       1.0  0.41900  0.60800  0.83700  1.0000
  Pb  Pb1       1.0  0.66300  0.12500  0.32600  1.0000
  Pb  Pb2       1.0  0.33700  0.87500  0.67400  1.0000
