data_image0
_chemical_formula_structural       Ge2Rb2S10Ta2
_chemical_formula_sum              "Ge2 Rb2 S10 Ta2"
_cell_length_a       7.02248
_cell_length_b       7.20192
_cell_length_c       9.16927
_cell_angle_alpha    69.415
_cell_angle_beta     78.3428
_cell_angle_gamma    75.8322

_space_group_name_H-M_alt    "P 1"
_space_group_IT_number       1

loop_
  _space_group_symop_operation_xyz
  'x, y, z'

loop_
  _atom_site_type_symbol
  _atom_site_label
  _atom_site_symmetry_multiplicity
  _atom_site_fract_x
  _atom_site_fract_y
  _atom_site_fract_z
  _atom_site_occupancy
  Ge  Ge1       1.0  0.97800  0.70600  0.37600  1.0000
  Ge  Ge2       1.0  0.02240  0.29400  0.62400  1.0000
  Rb  Rb1       1.0  0.59300  0.35900  0.31000  1.0000
  Rb  Rb2       1.0  0.40700  0.64100  0.69000  1.0000
  S   S1        1.0  0.06680  0.75300  0.00937  1.0000
  S   S2        1.0  0.44100  0.22800  0.03010  1.0000
  S   S3        1.0  0.69000  0.87000  0.29300  1.0000
  S   S4        1.0  0.21800  0.88100  0.29600  1.0000
  S   S5        1.0  0.06880  0.39000  0.35600  1.0000
  S   S6        1.0  0.93100  0.61000  0.64400  1.0000
  S   S7        1.0  0.78200  0.11900  0.70400  1.0000
  S   S8        1.0  0.31000  0.13000  0.70700  1.0000
  S   S9        1.0  0.55900  0.77200  0.97000  1.0000
  S   S10       1.0  0.93300  0.24700  0.99100  1.0000
  Ta  Ta1       1.0  0.24100  0.02780  0.00408  1.0000
  Ta  Ta2       1.0  0.75900  0.97200  0.99600  1.0000
