data_image0
_chemical_formula_structural       Cr2Nb8Si6
_chemical_formula_sum              "Cr2 Nb8 Si6"
_cell_length_a       4.92914
_cell_length_b       7.44734
_cell_length_c       7.44734
_cell_angle_alpha    83.7125
_cell_angle_beta     70.6746
_cell_angle_gamma    70.6746

_space_group_name_H-M_alt    "P 1"
_space_group_IT_number       1

loop_
  _space_group_symop_operation_xyz
  'x, y, z'

loop_
  _atom_site_type_symbol
  _atom_site_label
  _atom_site_symmetry_multiplicity
  _atom_site_fract_x
  _atom_site_fract_y
  _atom_site_fract_z
  _atom_site_occupancy
  Cr  Cr1       1.0  0.25000  0.50000  0.50000  1.0000
  Cr  Cr2       1.0  0.75000  0.50000  0.50000  1.0000
  Nb  Nb1       1.0  0.28000  0.30200  0.13900  1.0000
  Nb  Nb2       1.0  0.08150  0.69800  0.13900  1.0000
  Nb  Nb3       1.0  0.78000  0.13900  0.30200  1.0000
  Nb  Nb4       1.0  0.41900  0.86100  0.30200  1.0000
  Nb  Nb5       1.0  0.58100  0.13900  0.69800  1.0000
  Nb  Nb6       1.0  0.22000  0.86100  0.69800  1.0000
  Nb  Nb7       1.0  0.91900  0.30200  0.86100  1.0000
  Nb  Nb8       1.0  0.72000  0.69800  0.86100  1.0000
  Si  Si1       1.0  0.25000  0.00000  0.00000  1.0000
  Si  Si2       1.0  0.75000  0.00000  0.00000  1.0000
  Si  Si3       1.0  0.65300  0.50000  0.19300  1.0000
  Si  Si4       1.0  0.15300  0.19300  0.50000  1.0000
  Si  Si5       1.0  0.84700  0.80700  0.50000  1.0000
  Si  Si6       1.0  0.34700  0.50000  0.80700  1.0000
