data_image0
_chemical_formula_structural       Fe4Hf6Si6
_chemical_formula_sum              "Fe4 Hf6 Si6"
_cell_length_a       3.8373
_cell_length_b       5.30816
_cell_length_c       12.8311
_cell_angle_alpha    90
_cell_angle_beta     90
_cell_angle_gamma    111.189

_space_group_name_H-M_alt    "P 1"
_space_group_IT_number       1

loop_
  _space_group_symop_operation_xyz
  'x, y, z'

loop_
  _atom_site_type_symbol
  _atom_site_label
  _atom_site_symmetry_multiplicity
  _atom_site_fract_x
  _atom_site_fract_y
  _atom_site_fract_z
  _atom_site_occupancy
  Fe  Fe1       1.0  0.78000  0.56000  0.08150  1.0000
  Fe  Fe2       1.0  0.78000  0.56000  0.41900  1.0000
  Fe  Fe3       1.0  0.22000  0.44000  0.58100  1.0000
  Fe  Fe4       1.0  0.22000  0.44000  0.91900  1.0000
  Hf  Hf1       1.0  0.07810  0.15600  0.11400  1.0000
  Hf  Hf2       1.0  0.36400  0.72800  0.25000  1.0000
  Hf  Hf3       1.0  0.07810  0.15600  0.38600  1.0000
  Hf  Hf4       1.0  0.92200  0.84400  0.61400  1.0000
  Hf  Hf5       1.0  0.63600  0.27200  0.75000  1.0000
  Hf  Hf6       1.0  0.92200  0.84400  0.88600  1.0000
  Si  Si1       1.0  0.38800  0.77600  0.04250  1.0000
  Si  Si2       1.0  0.66500  0.33100  0.25000  1.0000
  Si  Si3       1.0  0.38800  0.77600  0.45700  1.0000
  Si  Si4       1.0  0.61200  0.22400  0.54300  1.0000
  Si  Si5       1.0  0.33500  0.66900  0.75000  1.0000
  Si  Si6       1.0  0.61200  0.22400  0.95700  1.0000
