data_image0
_chemical_formula_structural       K6O6S2V2
_chemical_formula_sum              "K6 O6 S2 V2"
_cell_length_a       5.87117
_cell_length_b       6.5528
_cell_length_c       8.74566
_cell_angle_alpha    102.311
_cell_angle_beta     90
_cell_angle_gamma    90

_space_group_name_H-M_alt    "P 1"
_space_group_IT_number       1

loop_
  _space_group_symop_operation_xyz
  'x, y, z'

loop_
  _atom_site_type_symbol
  _atom_site_label
  _atom_site_symmetry_multiplicity
  _atom_site_fract_x
  _atom_site_fract_y
  _atom_site_fract_z
  _atom_site_occupancy
  K   K1        1.0  0.25000  0.74900  0.00570  1.0000
  K   K2        1.0  0.75000  0.78600  0.27900  1.0000
  K   K3        1.0  0.75000  0.31200  0.46900  1.0000
  K   K4        1.0  0.25000  0.68800  0.53100  1.0000
  K   K5        1.0  0.25000  0.21400  0.72100  1.0000
  K   K6        1.0  0.75000  0.25100  0.99400  1.0000
  O   O1        1.0  0.25000  0.19300  0.01250  1.0000
  O   O2        1.0  0.01320  0.45700  0.25700  1.0000
  O   O3        1.0  0.48700  0.45700  0.25700  1.0000
  O   O4        1.0  0.51300  0.54300  0.74300  1.0000
  O   O5        1.0  0.98700  0.54300  0.74300  1.0000
  O   O6        1.0  0.75000  0.80700  0.98800  1.0000
  S   S1        1.0  0.25000  0.05590  0.35000  1.0000
  S   S2        1.0  0.75000  0.94400  0.65000  1.0000
  V   V1        1.0  0.25000  0.30400  0.20900  1.0000
  V   V2        1.0  0.75000  0.69600  0.79100  1.0000
