data_image0
_chemical_formula_structural       Cs4Li2Nb2S8
_chemical_formula_sum              "Cs4 Li2 Nb2 S8"
_cell_length_a       6.97423
_cell_length_b       7.34534
_cell_length_c       9.88254
_cell_angle_alpha    96.7785
_cell_angle_beta     92.4864
_cell_angle_gamma    91.2634

_space_group_name_H-M_alt    "P 1"
_space_group_IT_number       1

loop_
  _space_group_symop_operation_xyz
  'x, y, z'

loop_
  _atom_site_type_symbol
  _atom_site_label
  _atom_site_symmetry_multiplicity
  _atom_site_fract_x
  _atom_site_fract_y
  _atom_site_fract_z
  _atom_site_occupancy
  Cs  Cs1       1.0  0.30200  0.75400  0.00549  1.0000
  Cs  Cs2       1.0  0.87200  0.80000  0.34300  1.0000
  Cs  Cs3       1.0  0.12800  0.20000  0.65700  1.0000
  Cs  Cs4       1.0  0.69800  0.24600  0.99500  1.0000
  Li  Li1       1.0  0.59600  0.32100  0.43000  1.0000
  Li  Li2       1.0  0.40400  0.67900  0.57000  1.0000
  Nb  Nb1       1.0  0.21700  0.29200  0.24900  1.0000
  Nb  Nb2       1.0  0.78300  0.70800  0.75100  1.0000
  S   S1        1.0  0.19800  0.25200  0.01690  1.0000
  S   S2        1.0  0.39700  0.55500  0.32400  1.0000
  S   S3        1.0  0.38000  0.05880  0.33100  1.0000
  S   S4        1.0  0.91500  0.30000  0.33200  1.0000
  S   S5        1.0  0.08530  0.70000  0.66800  1.0000
  S   S6        1.0  0.62000  0.94100  0.66900  1.0000
  S   S7        1.0  0.60300  0.44500  0.67600  1.0000
  S   S8        1.0  0.80200  0.74800  0.98300  1.0000
