data_image0
_chemical_formula_structural       I4Nb4O8
_chemical_formula_sum              "I4 Nb4 O8"
_cell_length_a       20.6237
_cell_length_b       3.78713
_cell_length_c       3.95148
_cell_angle_alpha    90
_cell_angle_beta     90
_cell_angle_gamma    90

_space_group_name_H-M_alt    "P 1"
_space_group_IT_number       1

loop_
  _space_group_symop_operation_xyz
  'x, y, z'

loop_
  _atom_site_type_symbol
  _atom_site_label
  _atom_site_symmetry_multiplicity
  _atom_site_fract_x
  _atom_site_fract_y
  _atom_site_fract_z
  _atom_site_occupancy
  I   I1        1.0  0.32100  0.75000  0.00120  1.0000
  I   I2        1.0  0.82100  0.75000  0.49900  1.0000
  I   I3        1.0  0.17900  0.25000  0.50100  1.0000
  I   I4        1.0  0.67900  0.25000  0.99900  1.0000
  Nb  Nb1       1.0  0.56900  0.75000  0.04590  1.0000
  Nb  Nb2       1.0  0.06860  0.75000  0.45400  1.0000
  Nb  Nb3       1.0  0.93100  0.25000  0.54600  1.0000
  Nb  Nb4       1.0  0.43100  0.25000  0.95400  1.0000
  O   O1        1.0  0.92400  0.25000  0.00592  1.0000
  O   O2        1.0  0.46700  0.75000  0.00616  1.0000
  O   O3        1.0  0.96700  0.75000  0.49400  1.0000
  O   O4        1.0  0.42400  0.25000  0.49400  1.0000
  O   O5        1.0  0.57600  0.75000  0.50600  1.0000
  O   O6        1.0  0.03280  0.25000  0.50600  1.0000
  O   O7        1.0  0.53300  0.25000  0.99400  1.0000
  O   O8        1.0  0.07640  0.75000  0.99400  1.0000
