data_image0
_chemical_formula_structural       B2Fe10Si4
_chemical_formula_sum              "B2 Fe10 Si4"
_cell_length_a       4.41
_cell_length_b       6.53788
_cell_length_c       6.53788
_cell_angle_alpha    83.4686
_cell_angle_beta     70.2897
_cell_angle_gamma    70.2897

_space_group_name_H-M_alt    "P 1"
_space_group_IT_number       1

loop_
  _space_group_symop_operation_xyz
  'x, y, z'

loop_
  _atom_site_type_symbol
  _atom_site_label
  _atom_site_symmetry_multiplicity
  _atom_site_fract_x
  _atom_site_fract_y
  _atom_site_fract_z
  _atom_site_occupancy
  B   B1        1.0  0.25000  0.00000  0.00000  1.0000
  B   B2        1.0  0.75000  0.00000  0.00000  1.0000
  Fe  Fe1       1.0  0.79200  0.27900  0.13600  1.0000
  Fe  Fe2       1.0  0.57100  0.72100  0.13600  1.0000
  Fe  Fe3       1.0  0.29200  0.13600  0.27900  1.0000
  Fe  Fe4       1.0  0.92900  0.86400  0.27900  1.0000
  Fe  Fe5       1.0  0.25000  0.50000  0.50000  1.0000
  Fe  Fe6       1.0  0.75000  0.50000  0.50000  1.0000
  Fe  Fe7       1.0  0.70800  0.86400  0.72100  1.0000
  Fe  Fe8       1.0  0.07140  0.13600  0.72100  1.0000
  Fe  Fe9       1.0  0.20800  0.72100  0.86400  1.0000
  Fe  Fe10      1.0  0.42900  0.27900  0.86400  1.0000
  Si  Si1       1.0  0.16800  0.50000  0.16500  1.0000
  Si  Si2       1.0  0.66800  0.16500  0.50000  1.0000
  Si  Si3       1.0  0.33200  0.83500  0.50000  1.0000
  Si  Si4       1.0  0.83200  0.50000  0.83500  1.0000
