data_image0
_chemical_formula_structural       In4O10P2
_chemical_formula_sum              "In4 O10 P2"
_cell_length_a       5.23669
_cell_length_b       6.36526
_cell_length_c       6.79267
_cell_angle_alpha    107.562
_cell_angle_beta     109.472
_cell_angle_gamma    95.5099

_space_group_name_H-M_alt    "P 1"
_space_group_IT_number       1

loop_
  _space_group_symop_operation_xyz
  'x, y, z'

loop_
  _atom_site_type_symbol
  _atom_site_label
  _atom_site_symmetry_multiplicity
  _atom_site_fract_x
  _atom_site_fract_y
  _atom_site_fract_z
  _atom_site_occupancy
  In  In1       1.0  0.56500  0.79000  0.01020  1.0000
  In  In2       1.0  0.17000  0.63200  0.27300  1.0000
  In  In3       1.0  0.83000  0.36800  0.72700  1.0000
  In  In4       1.0  0.43500  0.21000  0.99000  1.0000
  O   O1        1.0  0.75600  0.48700  0.03790  1.0000
  O   O2        1.0  0.05640  0.93500  0.21800  1.0000
  O   O3        1.0  0.30000  0.32600  0.29200  1.0000
  O   O4        1.0  0.60500  0.81200  0.38800  1.0000
  O   O5        1.0  0.91400  0.26700  0.43000  1.0000
  O   O6        1.0  0.08560  0.73300  0.57000  1.0000
  O   O7        1.0  0.39500  0.18800  0.61200  1.0000
  O   O8        1.0  0.70000  0.67400  0.70800  1.0000
  O   O9        1.0  0.94400  0.06490  0.78200  1.0000
  O   O10       1.0  0.24400  0.51300  0.96200  1.0000
  P   P1        1.0  0.16500  0.17900  0.39400  1.0000
  P   P2        1.0  0.83500  0.82100  0.60600  1.0000
