data_image0
_chemical_formula_structural       Ce10Tl6
_chemical_formula_sum              "Ce10 Tl6"
_cell_length_a       6.3071
_cell_length_b       9.56905
_cell_length_c       9.56905
_cell_angle_alpha    83.7649
_cell_angle_beta     70.7581
_cell_angle_gamma    70.7581

_space_group_name_H-M_alt    "P 1"
_space_group_IT_number       1

loop_
  _space_group_symop_operation_xyz
  'x, y, z'

loop_
  _atom_site_type_symbol
  _atom_site_label
  _atom_site_symmetry_multiplicity
  _atom_site_fract_x
  _atom_site_fract_y
  _atom_site_fract_z
  _atom_site_occupancy
  Ce  Ce1       1.0  0.28000  0.30500  0.13500  1.0000
  Ce  Ce2       1.0  0.08510  0.69500  0.13500  1.0000
  Ce  Ce3       1.0  0.78000  0.13500  0.30500  1.0000
  Ce  Ce4       1.0  0.41500  0.86500  0.30500  1.0000
  Ce  Ce5       1.0  0.25000  0.50000  0.50000  1.0000
  Ce  Ce6       1.0  0.75000  0.50000  0.50000  1.0000
  Ce  Ce7       1.0  0.58500  0.13500  0.69500  1.0000
  Ce  Ce8       1.0  0.22000  0.86500  0.69500  1.0000
  Ce  Ce9       1.0  0.72000  0.69500  0.86500  1.0000
  Ce  Ce10      1.0  0.91500  0.30500  0.86500  1.0000
  Tl  Tl1       1.0  0.25000  0.00000  0.00000  1.0000
  Tl  Tl2       1.0  0.75000  0.00000  0.00000  1.0000
  Tl  Tl3       1.0  0.66100  0.50000  0.17700  1.0000
  Tl  Tl4       1.0  0.16100  0.17700  0.50000  1.0000
  Tl  Tl5       1.0  0.83900  0.82300  0.50000  1.0000
  Tl  Tl6       1.0  0.33900  0.50000  0.82300  1.0000
