data_image0
_chemical_formula_structural       In8Pb2Sr6
_chemical_formula_sum              "In8 Pb2 Sr6"
_cell_length_a       5.12995
_cell_length_b       6.4781
_cell_length_c       16.575
_cell_angle_alpha    90
_cell_angle_beta     90
_cell_angle_gamma    113.325

_space_group_name_H-M_alt    "P 1"
_space_group_IT_number       1

loop_
  _space_group_symop_operation_xyz
  'x, y, z'

loop_
  _atom_site_type_symbol
  _atom_site_label
  _atom_site_symmetry_multiplicity
  _atom_site_fract_x
  _atom_site_fract_y
  _atom_site_fract_z
  _atom_site_occupancy
  In  In1       1.0  0.61400  0.22800  0.03640  1.0000
  In  In2       1.0  0.20700  0.41300  0.09720  1.0000
  In  In3       1.0  0.20700  0.41300  0.40300  1.0000
  In  In4       1.0  0.61400  0.22800  0.46400  1.0000
  In  In5       1.0  0.38600  0.77200  0.53600  1.0000
  In  In6       1.0  0.79300  0.58700  0.59700  1.0000
  In  In7       1.0  0.79300  0.58700  0.90300  1.0000
  In  In8       1.0  0.38600  0.77200  0.96400  1.0000
  Pb  Pb1       1.0  0.34900  0.69800  0.25000  1.0000
  Pb  Pb2       1.0  0.65100  0.30200  0.75000  1.0000
  Sr  Sr1       1.0  0.90900  0.81800  0.10800  1.0000
  Sr  Sr2       1.0  0.63900  0.27900  0.25000  1.0000
  Sr  Sr3       1.0  0.90900  0.81800  0.39200  1.0000
  Sr  Sr4       1.0  0.09080  0.18200  0.60800  1.0000
  Sr  Sr5       1.0  0.36100  0.72100  0.75000  1.0000
  Sr  Sr6       1.0  0.09080  0.18200  0.89200  1.0000
