data_image0
_chemical_formula_structural       Cu4Eu2S8Sn2
_chemical_formula_sum              "Cu4 Eu2 S8 Sn2"
_cell_length_a       6.0226
_cell_length_b       6.0226
_cell_length_c       10.4658
_cell_angle_alpha    90
_cell_angle_beta     90
_cell_angle_gamma    115.812

_space_group_name_H-M_alt    "P 1"
_space_group_IT_number       1

loop_
  _space_group_symop_operation_xyz
  'x, y, z'

loop_
  _atom_site_type_symbol
  _atom_site_label
  _atom_site_symmetry_multiplicity
  _atom_site_fract_x
  _atom_site_fract_y
  _atom_site_fract_z
  _atom_site_occupancy
  Cu  Cu1       1.0  0.14900  0.71200  0.12600  1.0000
  Cu  Cu2       1.0  0.14900  0.71200  0.37400  1.0000
  Cu  Cu3       1.0  0.71200  0.14900  0.62600  1.0000
  Cu  Cu4       1.0  0.71200  0.14900  0.87400  1.0000
  Eu  Eu1       1.0  0.53000  0.53000  0.00000  1.0000
  Eu  Eu2       1.0  0.53000  0.53000  0.50000  1.0000
  S   S1        1.0  0.51400  0.03690  0.06860  1.0000
  S   S2        1.0  0.21600  0.40700  0.25000  1.0000
  S   S3        1.0  0.82000  0.70200  0.25000  1.0000
  S   S4        1.0  0.51400  0.03690  0.43100  1.0000
  S   S5        1.0  0.03690  0.51400  0.56900  1.0000
  S   S6        1.0  0.40700  0.21600  0.75000  1.0000
  S   S7        1.0  0.70200  0.82000  0.75000  1.0000
  S   S8        1.0  0.03690  0.51400  0.93100  1.0000
  Sn  Sn1       1.0  0.79100  0.09570  0.25000  1.0000
  Sn  Sn2       1.0  0.09570  0.79100  0.75000  1.0000
