data_image0
_chemical_formula_structural       B4Cl2La2O8
_chemical_formula_sum              "B4 Cl2 La2 O8"
_cell_length_a       4.23918
_cell_length_b       6.61202
_cell_length_c       8.07495
_cell_angle_alpha    82.1944
_cell_angle_beta     89.3337
_cell_angle_gamma    72.062

_space_group_name_H-M_alt    "P 1"
_space_group_IT_number       1

loop_
  _space_group_symop_operation_xyz
  'x, y, z'

loop_
  _atom_site_type_symbol
  _atom_site_label
  _atom_site_symmetry_multiplicity
  _atom_site_fract_x
  _atom_site_fract_y
  _atom_site_fract_z
  _atom_site_occupancy
  B   B1        1.0  0.83400  0.65000  0.14800  1.0000
  B   B2        1.0  0.43800  0.43700  0.19400  1.0000
  B   B3        1.0  0.56200  0.56300  0.80600  1.0000
  B   B4        1.0  0.16600  0.35000  0.85200  1.0000
  Cl  Cl1       1.0  0.85300  0.79600  0.45800  1.0000
  Cl  Cl2       1.0  0.14700  0.20400  0.54200  1.0000
  La  La1       1.0  0.21500  0.03040  0.22400  1.0000
  La  La2       1.0  0.78500  0.97000  0.77600  1.0000
  O   O1        1.0  0.83900  0.84600  0.07950  1.0000
  O   O2        1.0  0.09950  0.46300  0.17700  1.0000
  O   O3        1.0  0.52200  0.62600  0.18200  1.0000
  O   O4        1.0  0.63700  0.23500  0.20900  1.0000
  O   O5        1.0  0.36300  0.76500  0.79100  1.0000
  O   O6        1.0  0.47800  0.37400  0.81800  1.0000
  O   O7        1.0  0.90100  0.53700  0.82300  1.0000
  O   O8        1.0  0.16100  0.15400  0.92100  1.0000
