data_image0
_chemical_formula_structural       C4OsSc3
_chemical_formula_sum              "C4 Os1 Sc3"
_cell_length_a       3.34674
_cell_length_b       4.48353
_cell_length_c       6.79198
_cell_angle_alpha    109.272
_cell_angle_beta     104.263
_cell_angle_gamma    90

_space_group_name_H-M_alt    "P 1"
_space_group_IT_number       1

loop_
  _space_group_symop_operation_xyz
  'x, y, z'

loop_
  _atom_site_type_symbol
  _atom_site_label
  _atom_site_symmetry_multiplicity
  _atom_site_fract_x
  _atom_site_fract_y
  _atom_site_fract_z
  _atom_site_occupancy
  C   C1        1.0  0.62800  0.46700  0.25600  1.0000
  C   C2        1.0  0.62800  0.78900  0.25600  1.0000
  C   C3        1.0  0.37200  0.21100  0.74400  1.0000
  C   C4        1.0  0.37200  0.53300  0.74400  1.0000
  Os  Os1       1.0  0.50000  0.00000  0.00000  1.0000
  Sc  Sc1       1.0  0.00000  0.50000  0.00000  1.0000
  Sc  Sc2       1.0  0.19100  0.19100  0.38100  1.0000
  Sc  Sc3       1.0  0.80900  0.80900  0.61900  1.0000
