data_image0
_chemical_formula_structural       As6V10
_chemical_formula_sum              "As6 V10"
_cell_length_a       4.91727
_cell_length_b       7.11934
_cell_length_c       7.11934
_cell_angle_alpha    83.1504
_cell_angle_beta     69.7971
_cell_angle_gamma    69.7971

_space_group_name_H-M_alt    "P 1"
_space_group_IT_number       1

loop_
  _space_group_symop_operation_xyz
  'x, y, z'

loop_
  _atom_site_type_symbol
  _atom_site_label
  _atom_site_symmetry_multiplicity
  _atom_site_fract_x
  _atom_site_fract_y
  _atom_site_fract_z
  _atom_site_occupancy
  As  As1       1.0  0.25000  0.00000  0.00000  1.0000
  As  As2       1.0  0.75000  0.00000  0.00000  1.0000
  As  As3       1.0  0.16400  0.50000  0.17200  1.0000
  As  As4       1.0  0.33600  0.82800  0.50000  1.0000
  As  As5       1.0  0.66400  0.17200  0.50000  1.0000
  As  As6       1.0  0.83600  0.50000  0.82800  1.0000
  V   V1        1.0  0.57800  0.69400  0.15000  1.0000
  V   V2        1.0  0.77200  0.30600  0.15000  1.0000
  V   V3        1.0  0.92200  0.85000  0.30600  1.0000
  V   V4        1.0  0.27200  0.15000  0.30600  1.0000
  V   V5        1.0  0.25000  0.50000  0.50000  1.0000
  V   V6        1.0  0.75000  0.50000  0.50000  1.0000
  V   V7        1.0  0.07800  0.15000  0.69400  1.0000
  V   V8        1.0  0.72800  0.85000  0.69400  1.0000
  V   V9        1.0  0.22800  0.69400  0.85000  1.0000
  V   V10       1.0  0.42200  0.30600  0.85000  1.0000
