data_image0
_chemical_formula_structural       Bi2K6O8
_chemical_formula_sum              "Bi2 K6 O8"
_cell_length_a       6.40817
_cell_length_b       6.59295
_cell_length_c       7.60122
_cell_angle_alpha    101.647
_cell_angle_beta     96.3189
_cell_angle_gamma    105.687

_space_group_name_H-M_alt    "P 1"
_space_group_IT_number       1

loop_
  _space_group_symop_operation_xyz
  'x, y, z'

loop_
  _atom_site_type_symbol
  _atom_site_label
  _atom_site_symmetry_multiplicity
  _atom_site_fract_x
  _atom_site_fract_y
  _atom_site_fract_z
  _atom_site_occupancy
  Bi  Bi1       1.0  0.84300  0.30000  0.31400  1.0000
  Bi  Bi2       1.0  0.15700  0.70000  0.68600  1.0000
  K   K1        1.0  0.33000  0.22600  0.02400  1.0000
  K   K2        1.0  0.16400  0.76600  0.16600  1.0000
  K   K3        1.0  0.65100  0.77300  0.46000  1.0000
  K   K4        1.0  0.34900  0.22700  0.54000  1.0000
  K   K5        1.0  0.83600  0.23400  0.83400  1.0000
  K   K6        1.0  0.67000  0.77400  0.97600  1.0000
  O   O1        1.0  0.76100  0.48000  0.14400  1.0000
  O   O2        1.0  0.01810  0.09510  0.23100  1.0000
  O   O3        1.0  0.54900  0.05730  0.27000  1.0000
  O   O4        1.0  0.18700  0.55100  0.42100  1.0000
  O   O5        1.0  0.81300  0.44900  0.57900  1.0000
  O   O6        1.0  0.45100  0.94300  0.73000  1.0000
  O   O7        1.0  0.98200  0.90500  0.76900  1.0000
  O   O8        1.0  0.23900  0.52000  0.85600  1.0000
