data_image0
_chemical_formula_structural       Li2N8Re2Sr4
_chemical_formula_sum              "Li2 N8 Re2 Sr4"
_cell_length_a       5.84887
_cell_length_b       6.15881
_cell_length_c       6.86756
_cell_angle_alpha    106.33
_cell_angle_beta     90
_cell_angle_gamma    90

_space_group_name_H-M_alt    "P 1"
_space_group_IT_number       1

loop_
  _space_group_symop_operation_xyz
  'x, y, z'

loop_
  _atom_site_type_symbol
  _atom_site_label
  _atom_site_symmetry_multiplicity
  _atom_site_fract_x
  _atom_site_fract_y
  _atom_site_fract_z
  _atom_site_occupancy
  Li  Li1       1.0  0.75000  0.69600  0.30600  1.0000
  Li  Li2       1.0  0.25000  0.30400  0.69400  1.0000
  N   N1        1.0  0.75000  0.88200  0.06750  1.0000
  N   N2        1.0  0.00335  0.47200  0.25300  1.0000
  N   N3        1.0  0.49700  0.47200  0.25300  1.0000
  N   N4        1.0  0.25000  0.09620  0.37200  1.0000
  N   N5        1.0  0.75000  0.90400  0.62800  1.0000
  N   N6        1.0  0.50300  0.52800  0.74700  1.0000
  N   N7        1.0  0.99700  0.52800  0.74700  1.0000
  N   N8        1.0  0.25000  0.11800  0.93200  1.0000
  Re  Re1       1.0  0.25000  0.28200  0.20100  1.0000
  Re  Re2       1.0  0.75000  0.71800  0.79900  1.0000
  Sr  Sr1       1.0  0.25000  0.73900  0.05640  1.0000
  Sr  Sr2       1.0  0.75000  0.21900  0.43200  1.0000
  Sr  Sr3       1.0  0.25000  0.78100  0.56800  1.0000
  Sr  Sr4       1.0  0.75000  0.26100  0.94400  1.0000
