data_image0
_chemical_formula_structural       Bi2O10P2Pb2
_chemical_formula_sum              "Bi2 O10 P2 Pb2"
_cell_length_a       5.62129
_cell_length_b       6.89356
_cell_length_c       7.04416
_cell_angle_alpha    109.142
_cell_angle_beta     110.095
_cell_angle_gamma    97.5738

_space_group_name_H-M_alt    "P 1"
_space_group_IT_number       1

loop_
  _space_group_symop_operation_xyz
  'x, y, z'

loop_
  _atom_site_type_symbol
  _atom_site_label
  _atom_site_symmetry_multiplicity
  _atom_site_fract_x
  _atom_site_fract_y
  _atom_site_fract_z
  _atom_site_occupancy
  Bi  Bi1       1.0  0.40800  0.72700  0.44700  1.0000
  Bi  Bi2       1.0  0.59200  0.27300  0.55300  1.0000
  O   O1        1.0  0.32200  0.68100  0.08640  1.0000
  O   O2        1.0  0.06800  0.25400  0.18400  1.0000
  O   O3        1.0  0.63000  0.23400  0.21800  1.0000
  O   O4        1.0  0.93400  0.59400  0.30700  1.0000
  O   O5        1.0  0.25800  0.00033  0.48000  1.0000
  O   O6        1.0  0.74200  0.00000  0.52000  1.0000
  O   O7        1.0  0.06630  0.40600  0.69300  1.0000
  O   O8        1.0  0.37000  0.76600  0.78200  1.0000
  O   O9        1.0  0.93200  0.74600  0.81600  1.0000
  O   O10       1.0  0.67800  0.31900  0.91400  1.0000
  P   P1        1.0  0.83200  0.35100  0.15700  1.0000
  P   P2        1.0  0.16800  0.64900  0.84300  1.0000
  Pb  Pb1       1.0  0.82700  0.88500  0.17300  1.0000
  Pb  Pb2       1.0  0.17300  0.11500  0.82700  1.0000
