data_image0
_chemical_formula_structural       Cs4Li2S8V2
_chemical_formula_sum              "Cs4 Li2 S8 V2"
_cell_length_a       5.87844
_cell_length_b       7.51118
_cell_length_c       12.6109
_cell_angle_alpha    84.7672
_cell_angle_beta     76.5222
_cell_angle_gamma    66.9638

_space_group_name_H-M_alt    "P 1"
_space_group_IT_number       1

loop_
  _space_group_symop_operation_xyz
  'x, y, z'

loop_
  _atom_site_type_symbol
  _atom_site_label
  _atom_site_symmetry_multiplicity
  _atom_site_fract_x
  _atom_site_fract_y
  _atom_site_fract_z
  _atom_site_occupancy
  Cs  Cs1       1.0  0.19800  0.25000  0.10500  1.0000
  Cs  Cs2       1.0  0.55200  0.25000  0.39500  1.0000
  Cs  Cs3       1.0  0.44800  0.75000  0.60500  1.0000
  Cs  Cs4       1.0  0.80200  0.75000  0.89500  1.0000
  Li  Li1       1.0  0.12500  0.75000  0.25000  1.0000
  Li  Li2       1.0  0.87500  0.25000  0.75000  1.0000
  S   S1        1.0  0.55000  0.57100  0.14900  1.0000
  S   S2        1.0  0.80100  0.92900  0.14900  1.0000
  S   S3        1.0  0.88000  0.57100  0.35100  1.0000
  S   S4        1.0  0.27000  0.92900  0.35100  1.0000
  S   S5        1.0  0.73000  0.07070  0.64900  1.0000
  S   S6        1.0  0.12000  0.42900  0.64900  1.0000
  S   S7        1.0  0.19900  0.07070  0.85100  1.0000
  S   S8        1.0  0.45000  0.42900  0.85100  1.0000
  V   V1        1.0  0.62500  0.75000  0.25000  1.0000
  V   V2        1.0  0.37500  0.25000  0.75000  1.0000
