data_image0
_chemical_formula_structural       Ba3Lu4O9
_chemical_formula_sum              "Ba3 Lu4 O9"
_cell_length_a       5.9838
_cell_length_b       5.9838
_cell_length_c       8.94115
_cell_angle_alpha    109.55
_cell_angle_beta     70.4505
_cell_angle_gamma    120

_space_group_name_H-M_alt    "P 1"
_space_group_IT_number       1

loop_
  _space_group_symop_operation_xyz
  'x, y, z'

loop_
  _atom_site_type_symbol
  _atom_site_label
  _atom_site_symmetry_multiplicity
  _atom_site_fract_x
  _atom_site_fract_y
  _atom_site_fract_z
  _atom_site_occupancy
  Ba  Ba1       1.0  0.99200  0.00781  0.02340  1.0000
  Ba  Ba2       1.0  0.83100  0.16900  0.50700  1.0000
  Ba  Ba3       1.0  0.41200  0.58800  0.76400  1.0000
  Lu  Lu1       1.0  0.25400  0.74600  0.23700  1.0000
  Lu  Lu2       1.0  0.56900  0.43100  0.29400  1.0000
  Lu  Lu3       1.0  0.12900  0.87100  0.61200  1.0000
  Lu  Lu4       1.0  0.69400  0.30600  0.91800  1.0000
  O   O1        1.0  0.51800  0.04490  0.09630  1.0000
  O   O2        1.0  0.43000  0.48200  0.09630  1.0000
  O   O3        1.0  0.95500  0.57000  0.09630  1.0000
  O   O4        1.0  0.39800  0.13200  0.43400  1.0000
  O   O5        1.0  0.30000  0.60200  0.43400  1.0000
  O   O6        1.0  0.86800  0.70000  0.43400  1.0000
  O   O7        1.0  0.41100  0.03880  0.76500  1.0000
  O   O8        1.0  0.96100  0.13800  0.76500  1.0000
  O   O9        1.0  0.86200  0.58900  0.76500  1.0000
