data_image0
_chemical_formula_structural       O10Pb4Te2
_chemical_formula_sum              "O10 Pb4 Te2"
_cell_length_a       5.7327
_cell_length_b       7.12172
_cell_length_c       7.28531
_cell_angle_alpha    97.6399
_cell_angle_beta     113.169
_cell_angle_gamma    113.733

_space_group_name_H-M_alt    "P 1"
_space_group_IT_number       1

loop_
  _space_group_symop_operation_xyz
  'x, y, z'

loop_
  _atom_site_type_symbol
  _atom_site_label
  _atom_site_symmetry_multiplicity
  _atom_site_fract_x
  _atom_site_fract_y
  _atom_site_fract_z
  _atom_site_occupancy
  O   O1        1.0  0.07300  0.79400  0.12900  1.0000
  O   O2        1.0  0.77700  0.01930  0.13300  1.0000
  O   O3        1.0  0.38400  0.25000  0.25000  1.0000
  O   O4        1.0  0.12400  0.48100  0.36700  1.0000
  O   O5        1.0  0.65000  0.70600  0.37100  1.0000
  O   O6        1.0  0.35000  0.29400  0.62900  1.0000
  O   O7        1.0  0.87600  0.51900  0.63300  1.0000
  O   O8        1.0  0.61600  0.75000  0.75000  1.0000
  O   O9        1.0  0.22300  0.98100  0.86700  1.0000
  O   O10       1.0  0.92700  0.20600  0.87100  1.0000
  Pb  Pb1       1.0  0.33300  0.67600  0.99800  1.0000
  Pb  Pb2       1.0  0.66700  0.32400  0.00197  1.0000
  Pb  Pb3       1.0  0.84100  0.17600  0.49800  1.0000
  Pb  Pb4       1.0  0.15900  0.82400  0.50200  1.0000
  Te  Te1       1.0  0.00000  0.00000  0.00000  1.0000
  Te  Te2       1.0  0.50000  0.50000  0.50000  1.0000
