data_image0
_chemical_formula_structural       Ga2Nb10Sn4
_chemical_formula_sum              "Ga2 Nb10 Sn4"
_cell_length_a       5.19132
_cell_length_b       8.00297
_cell_length_c       8.00297
_cell_angle_alpha    83.9616
_cell_angle_beta     71.0746
_cell_angle_gamma    71.0746

_space_group_name_H-M_alt    "P 1"
_space_group_IT_number       1

loop_
  _space_group_symop_operation_xyz
  'x, y, z'

loop_
  _atom_site_type_symbol
  _atom_site_label
  _atom_site_symmetry_multiplicity
  _atom_site_fract_x
  _atom_site_fract_y
  _atom_site_fract_z
  _atom_site_occupancy
  Ga  Ga1       1.0  0.25000  0.00000  0.00000  1.0000
  Ga  Ga2       1.0  0.75000  0.00000  0.00000  1.0000
  Nb  Nb1       1.0  0.57100  0.71100  0.14700  1.0000
  Nb  Nb2       1.0  0.78200  0.28900  0.14700  1.0000
  Nb  Nb3       1.0  0.28200  0.14700  0.28900  1.0000
  Nb  Nb4       1.0  0.92900  0.85300  0.28900  1.0000
  Nb  Nb5       1.0  0.25000  0.50000  0.50000  1.0000
  Nb  Nb6       1.0  0.75000  0.50000  0.50000  1.0000
  Nb  Nb7       1.0  0.07100  0.14700  0.71100  1.0000
  Nb  Nb8       1.0  0.71800  0.85300  0.71100  1.0000
  Nb  Nb9       1.0  0.42900  0.28900  0.85300  1.0000
  Nb  Nb10      1.0  0.21800  0.71100  0.85300  1.0000
  Sn  Sn1       1.0  0.16900  0.50000  0.16200  1.0000
  Sn  Sn2       1.0  0.33100  0.83800  0.50000  1.0000
  Sn  Sn3       1.0  0.66900  0.16200  0.50000  1.0000
  Sn  Sn4       1.0  0.83100  0.50000  0.83800  1.0000
