data_image0
_chemical_formula_structural       Ga6Pd10
_chemical_formula_sum              "Ga6 Pd10"
_cell_length_a       4.06965
_cell_length_b       5.5152
_cell_length_c       10.6937
_cell_angle_alpha    90
_cell_angle_beta     90
_cell_angle_gamma    90

_space_group_name_H-M_alt    "P 1"
_space_group_IT_number       1

loop_
  _space_group_symop_operation_xyz
  'x, y, z'

loop_
  _atom_site_type_symbol
  _atom_site_label
  _atom_site_symmetry_multiplicity
  _atom_site_fract_x
  _atom_site_fract_y
  _atom_site_fract_z
  _atom_site_occupancy
  Ga  Ga1       1.0  0.00000  0.00000  0.00000  1.0000
  Ga  Ga2       1.0  0.50000  0.34400  0.14600  1.0000
  Ga  Ga3       1.0  0.50000  0.84400  0.35400  1.0000
  Ga  Ga4       1.0  0.00000  0.50000  0.50000  1.0000
  Ga  Ga5       1.0  0.50000  0.15600  0.64600  1.0000
  Ga  Ga6       1.0  0.50000  0.65600  0.85400  1.0000
  Pd  Pd1       1.0  0.00000  0.50000  0.00000  1.0000
  Pd  Pd2       1.0  0.50000  0.81000  0.10400  1.0000
  Pd  Pd3       1.0  0.00000  0.09130  0.23300  1.0000
  Pd  Pd4       1.0  0.00000  0.59100  0.26700  1.0000
  Pd  Pd5       1.0  0.50000  0.31000  0.39600  1.0000
  Pd  Pd6       1.0  0.00000  0.00000  0.50000  1.0000
  Pd  Pd7       1.0  0.50000  0.69000  0.60400  1.0000
  Pd  Pd8       1.0  0.00000  0.40900  0.73300  1.0000
  Pd  Pd9       1.0  0.00000  0.90900  0.76700  1.0000
  Pd  Pd10      1.0  0.50000  0.19000  0.89600  1.0000
