data_image0
_chemical_formula_structural       C4La2Li2N8
_chemical_formula_sum              "C4 La2 Li2 N8"
_cell_length_a       3.7548
_cell_length_b       5.39991
_cell_length_c       10.094
_cell_angle_alpha    101.171
_cell_angle_beta     90
_cell_angle_gamma    90

_space_group_name_H-M_alt    "P 1"
_space_group_IT_number       1

loop_
  _space_group_symop_operation_xyz
  'x, y, z'

loop_
  _atom_site_type_symbol
  _atom_site_label
  _atom_site_symmetry_multiplicity
  _atom_site_fract_x
  _atom_site_fract_y
  _atom_site_fract_z
  _atom_site_occupancy
  C   C1        1.0  0.75000  0.42500  0.10900  1.0000
  C   C2        1.0  0.75000  0.21900  0.47300  1.0000
  C   C3        1.0  0.25000  0.78100  0.52700  1.0000
  C   C4        1.0  0.25000  0.57500  0.89100  1.0000
  La  La1       1.0  0.25000  0.98300  0.19300  1.0000
  La  La2       1.0  0.75000  0.01730  0.80700  1.0000
  Li  Li1       1.0  0.75000  0.59500  0.35700  1.0000
  Li  Li2       1.0  0.25000  0.40500  0.64300  1.0000
  N   N1        1.0  0.75000  0.19500  0.06550  1.0000
  N   N2        1.0  0.75000  0.65200  0.15900  1.0000
  N   N3        1.0  0.75000  0.20700  0.34900  1.0000
  N   N4        1.0  0.25000  0.75700  0.40300  1.0000
  N   N5        1.0  0.75000  0.24300  0.59700  1.0000
  N   N6        1.0  0.25000  0.79300  0.65100  1.0000
  N   N7        1.0  0.25000  0.34800  0.84100  1.0000
  N   N8        1.0  0.25000  0.80500  0.93500  1.0000
