data_image0
_chemical_formula_structural       Gd6Ge10
_chemical_formula_sum              "Gd6 Ge10"
_cell_length_a       5.80929
_cell_length_b       7.52624
_cell_length_c       9.19185
_cell_angle_alpha    82.995
_cell_angle_beta     71.5787
_cell_angle_gamma    67.2982

_space_group_name_H-M_alt    "P 1"
_space_group_IT_number       1

loop_
  _space_group_symop_operation_xyz
  'x, y, z'

loop_
  _atom_site_type_symbol
  _atom_site_label
  _atom_site_symmetry_multiplicity
  _atom_site_fract_x
  _atom_site_fract_y
  _atom_site_fract_z
  _atom_site_occupancy
  Gd  Gd1       1.0  0.00060  0.99900  0.00000  1.0000
  Gd  Gd2       1.0  0.90100  0.51300  0.16300  1.0000
  Gd  Gd3       1.0  0.31400  0.01350  0.33700  1.0000
  Gd  Gd4       1.0  0.25100  0.49900  0.50000  1.0000
  Gd  Gd5       1.0  0.67200  0.01350  0.66300  1.0000
  Gd  Gd6       1.0  0.58500  0.51300  0.83700  1.0000
  Ge  Ge1       1.0  0.55100  0.89800  0.00000  1.0000
  Ge  Ge2       1.0  0.47500  0.31000  0.13400  1.0000
  Ge  Ge3       1.0  0.33200  0.67400  0.17400  1.0000
  Ge  Ge4       1.0  0.75600  0.17400  0.32600  1.0000
  Ge  Ge5       1.0  0.85900  0.81000  0.36600  1.0000
  Ge  Ge6       1.0  0.80100  0.39800  0.50000  1.0000
  Ge  Ge7       1.0  0.33100  0.81000  0.63400  1.0000
  Ge  Ge8       1.0  0.07070  0.17400  0.67400  1.0000
  Ge  Ge9       1.0  0.99500  0.67400  0.82600  1.0000
  Ge  Ge10      1.0  0.21500  0.31000  0.86600  1.0000
