data_image0
_chemical_formula_structural       Bi6Cl2O8
_chemical_formula_sum              "Bi6 Cl2 O8"
_cell_length_a       5.66947
_cell_length_b       5.69254
_cell_length_c       9.9926
_cell_angle_alpha    105.861
_cell_angle_beta     106.48
_cell_angle_gamma    90

_space_group_name_H-M_alt    "P 1"
_space_group_IT_number       1

loop_
  _space_group_symop_operation_xyz
  'x, y, z'

loop_
  _atom_site_type_symbol
  _atom_site_label
  _atom_site_symmetry_multiplicity
  _atom_site_fract_x
  _atom_site_fract_y
  _atom_site_fract_z
  _atom_site_occupancy
  Bi  Bi1       1.0  0.71600  0.25000  0.00000  1.0000
  Bi  Bi2       1.0  0.28400  0.75000  0.00000  1.0000
  Bi  Bi3       1.0  0.36000  0.43300  0.29500  1.0000
  Bi  Bi4       1.0  0.93500  0.93300  0.29500  1.0000
  Bi  Bi5       1.0  0.06520  0.06720  0.70500  1.0000
  Bi  Bi6       1.0  0.64000  0.56700  0.70500  1.0000
  Cl  Cl1       1.0  0.50000  0.00000  0.50000  1.0000
  Cl  Cl2       1.0  0.00000  0.50000  0.50000  1.0000
  O   O1        1.0  0.62700  0.00167  0.13800  1.0000
  O   O2        1.0  0.51100  0.50200  0.13800  1.0000
  O   O3        1.0  0.12900  0.10000  0.18300  1.0000
  O   O4        1.0  0.05340  0.60000  0.18300  1.0000
  O   O5        1.0  0.94700  0.40000  0.81700  1.0000
  O   O6        1.0  0.87100  0.90000  0.81700  1.0000
  O   O7        1.0  0.37300  0.99800  0.86200  1.0000
  O   O8        1.0  0.48900  0.49800  0.86200  1.0000
