data_image0
_chemical_formula_structural       Cr6Si10
_chemical_formula_sum              "Cr6 Si10"
_cell_length_a       4.69637
_cell_length_b       6.95825
_cell_length_c       6.95825
_cell_angle_alpha    83.4607
_cell_angle_beta     70.2773
_cell_angle_gamma    70.2773

_space_group_name_H-M_alt    "P 1"
_space_group_IT_number       1

loop_
  _space_group_symop_operation_xyz
  'x, y, z'

loop_
  _atom_site_type_symbol
  _atom_site_label
  _atom_site_symmetry_multiplicity
  _atom_site_fract_x
  _atom_site_fract_y
  _atom_site_fract_z
  _atom_site_occupancy
  Cr  Cr1       1.0  0.25000  0.00000  0.00000  1.0000
  Cr  Cr2       1.0  0.75000  0.00000  0.00000  1.0000
  Cr  Cr3       1.0  0.67300  0.50000  0.15300  1.0000
  Cr  Cr4       1.0  0.17300  0.15300  0.50000  1.0000
  Cr  Cr5       1.0  0.82700  0.84700  0.50000  1.0000
  Cr  Cr6       1.0  0.32700  0.50000  0.84700  1.0000
  Si  Si1       1.0  0.26500  0.30500  0.16600  1.0000
  Si  Si2       1.0  0.06960  0.69500  0.16600  1.0000
  Si  Si3       1.0  0.43000  0.83400  0.30500  1.0000
  Si  Si4       1.0  0.76500  0.16600  0.30500  1.0000
  Si  Si5       1.0  0.25000  0.50000  0.50000  1.0000
  Si  Si6       1.0  0.75000  0.50000  0.50000  1.0000
  Si  Si7       1.0  0.23500  0.83400  0.69500  1.0000
  Si  Si8       1.0  0.57000  0.16600  0.69500  1.0000
  Si  Si9       1.0  0.73500  0.69500  0.83400  1.0000
  Si  Si10      1.0  0.93000  0.30500  0.83400  1.0000
