data_image0
_chemical_formula_structural       Ce4Cu4Se8
_chemical_formula_sum              "Ce4 Cu4 Se8"
_cell_length_a       6.81124
_cell_length_b       7.26473
_cell_length_c       7.60019
_cell_angle_alpha    90
_cell_angle_beta     90
_cell_angle_gamma    96.8724

_space_group_name_H-M_alt    "P 1"
_space_group_IT_number       1

loop_
  _space_group_symop_operation_xyz
  'x, y, z'

loop_
  _atom_site_type_symbol
  _atom_site_label
  _atom_site_symmetry_multiplicity
  _atom_site_fract_x
  _atom_site_fract_y
  _atom_site_fract_z
  _atom_site_occupancy
  Ce  Ce1       1.0  0.30700  0.20000  0.04770  1.0000
  Ce  Ce2       1.0  0.30700  0.70000  0.45200  1.0000
  Ce  Ce3       1.0  0.69300  0.30000  0.54800  1.0000
  Ce  Ce4       1.0  0.69300  0.80000  0.95200  1.0000
  Cu  Cu1       1.0  0.93200  0.45100  0.16100  1.0000
  Cu  Cu2       1.0  0.93200  0.95100  0.33900  1.0000
  Cu  Cu3       1.0  0.06790  0.04880  0.66100  1.0000
  Cu  Cu4       1.0  0.06790  0.54900  0.83900  1.0000
  Se  Se1       1.0  0.09660  0.77600  0.11200  1.0000
  Se  Se2       1.0  0.58600  0.49800  0.22400  1.0000
  Se  Se3       1.0  0.58600  0.99800  0.27600  1.0000
  Se  Se4       1.0  0.09660  0.27600  0.38800  1.0000
  Se  Se5       1.0  0.90300  0.72400  0.61200  1.0000
  Se  Se6       1.0  0.41400  0.00193  0.72400  1.0000
  Se  Se7       1.0  0.41400  0.50200  0.77600  1.0000
  Se  Se8       1.0  0.90300  0.22400  0.88800  1.0000
