data_image0
_chemical_formula_structural       Nd10Si6
_chemical_formula_sum              "Nd10 Si6"
_cell_length_a       7.81979
_cell_length_b       7.81979
_cell_length_c       8.87203
_cell_angle_alpha    116.148
_cell_angle_beta     116.148
_cell_angle_gamma    90

_space_group_name_H-M_alt    "P 1"
_space_group_IT_number       1

loop_
  _space_group_symop_operation_xyz
  'x, y, z'

loop_
  _atom_site_type_symbol
  _atom_site_label
  _atom_site_symmetry_multiplicity
  _atom_site_fract_x
  _atom_site_fract_y
  _atom_site_fract_z
  _atom_site_occupancy
  Nd  Nd1       1.0  0.00000  0.00000  0.00000  1.0000
  Nd  Nd2       1.0  0.50000  0.50000  0.00000  1.0000
  Nd  Nd3       1.0  0.46800  0.32400  0.29200  1.0000
  Nd  Nd4       1.0  0.96800  0.46800  0.29200  1.0000
  Nd  Nd5       1.0  0.32400  0.82400  0.29200  1.0000
  Nd  Nd6       1.0  0.82400  0.96800  0.29200  1.0000
  Nd  Nd7       1.0  0.17600  0.03180  0.70800  1.0000
  Nd  Nd8       1.0  0.67600  0.17600  0.70800  1.0000
  Nd  Nd9       1.0  0.03180  0.53200  0.70800  1.0000
  Nd  Nd10      1.0  0.53200  0.67600  0.70800  1.0000
  Si  Si1       1.0  0.61500  0.11500  0.00000  1.0000
  Si  Si2       1.0  0.11500  0.38500  0.00000  1.0000
  Si  Si3       1.0  0.88500  0.61500  0.00000  1.0000
  Si  Si4       1.0  0.38500  0.88500  0.00000  1.0000
  Si  Si5       1.0  0.25000  0.25000  0.50000  1.0000
  Si  Si6       1.0  0.75000  0.75000  0.50000  1.0000
