data_image0
_chemical_formula_structural       Li4S8Sn2Zn2
_chemical_formula_sum              "Li4 S8 Sn2 Zn2"
_cell_length_a       6.40407
_cell_length_b       6.74839
_cell_length_c       7.97038
_cell_angle_alpha    90
_cell_angle_beta     90.1512
_cell_angle_gamma    90

_space_group_name_H-M_alt    "P 1"
_space_group_IT_number       1

loop_
  _space_group_symop_operation_xyz
  'x, y, z'

loop_
  _atom_site_type_symbol
  _atom_site_label
  _atom_site_symmetry_multiplicity
  _atom_site_fract_x
  _atom_site_fract_y
  _atom_site_fract_z
  _atom_site_occupancy
  Li  Li1       1.0  0.11200  0.66400  0.18200  1.0000
  Li  Li2       1.0  0.61000  0.83800  0.42800  1.0000
  Li  Li3       1.0  0.61200  0.33600  0.68200  1.0000
  Li  Li4       1.0  0.11000  0.16200  0.92800  1.0000
  S   S1        1.0  0.49200  0.65600  0.17800  1.0000
  S   S2        1.0  0.98100  0.32800  0.17900  1.0000
  S   S3        1.0  0.49200  0.17900  0.42600  1.0000
  S   S4        1.0  0.99100  0.83300  0.43500  1.0000
  S   S5        1.0  0.99200  0.34400  0.67800  1.0000
  S   S6        1.0  0.48100  0.67200  0.67900  1.0000
  S   S7        1.0  0.99200  0.82100  0.92600  1.0000
  S   S8        1.0  0.49100  0.16700  0.93500  1.0000
  Sn  Sn1       1.0  0.11400  0.17200  0.43000  1.0000
  Sn  Sn2       1.0  0.61400  0.82800  0.93000  1.0000
  Zn  Zn1       1.0  0.61300  0.32600  0.17900  1.0000
  Zn  Zn2       1.0  0.11300  0.67400  0.67900  1.0000
