data_image0
_chemical_formula_structural       Al6Ba6Ga4
_chemical_formula_sum              "Al6 Ba6 Ga4"
_cell_length_a       5.97152
_cell_length_b       5.97152
_cell_length_c       14.7408
_cell_angle_alpha    90
_cell_angle_beta     90
_cell_angle_gamma    120

_space_group_name_H-M_alt    "P 1"
_space_group_IT_number       1

loop_
  _space_group_symop_operation_xyz
  'x, y, z'

loop_
  _atom_site_type_symbol
  _atom_site_label
  _atom_site_symmetry_multiplicity
  _atom_site_fract_x
  _atom_site_fract_y
  _atom_site_fract_z
  _atom_site_occupancy
  Al  Al1       1.0  0.15800  0.31600  0.25000  1.0000
  Al  Al2       1.0  0.15800  0.84200  0.25000  1.0000
  Al  Al3       1.0  0.68400  0.84200  0.25000  1.0000
  Al  Al4       1.0  0.31600  0.15800  0.75000  1.0000
  Al  Al5       1.0  0.84200  0.15800  0.75000  1.0000
  Al  Al6       1.0  0.84200  0.68400  0.75000  1.0000
  Ba  Ba1       1.0  0.00000  0.00000  0.00000  1.0000
  Ba  Ba2       1.0  0.66700  0.33300  0.12400  1.0000
  Ba  Ba3       1.0  0.66700  0.33300  0.37600  1.0000
  Ba  Ba4       1.0  0.00000  0.00000  0.50000  1.0000
  Ba  Ba5       1.0  0.33300  0.66700  0.62400  1.0000
  Ba  Ba6       1.0  0.33300  0.66700  0.87600  1.0000
  Ga  Ga1       1.0  0.33300  0.66700  0.11300  1.0000
  Ga  Ga2       1.0  0.33300  0.66700  0.38700  1.0000
  Ga  Ga3       1.0  0.66700  0.33300  0.61300  1.0000
  Ga  Ga4       1.0  0.66700  0.33300  0.88700  1.0000
