data_image0
_chemical_formula_structural       Ca10Pb6
_chemical_formula_sum              "Ca10 Pb6"
_cell_length_a       9.43829
_cell_length_b       9.43829
_cell_length_c       6.88891
_cell_angle_alpha    90
_cell_angle_beta     90
_cell_angle_gamma    120

_space_group_name_H-M_alt    "P 1"
_space_group_IT_number       1

loop_
  _space_group_symop_operation_xyz
  'x, y, z'

loop_
  _atom_site_type_symbol
  _atom_site_label
  _atom_site_symmetry_multiplicity
  _atom_site_fract_x
  _atom_site_fract_y
  _atom_site_fract_z
  _atom_site_occupancy
  Ca  Ca1       1.0  0.66700  0.33300  0.00000  1.0000
  Ca  Ca2       1.0  0.33300  0.66700  0.00000  1.0000
  Ca  Ca3       1.0  0.73400  0.73400  0.25000  1.0000
  Ca  Ca4       1.0  0.26600  0.00000  0.25000  1.0000
  Ca  Ca5       1.0  0.00000  0.26600  0.25000  1.0000
  Ca  Ca6       1.0  0.66700  0.33300  0.50000  1.0000
  Ca  Ca7       1.0  0.33300  0.66700  0.50000  1.0000
  Ca  Ca8       1.0  0.26600  0.26600  0.75000  1.0000
  Ca  Ca9       1.0  0.73400  0.00000  0.75000  1.0000
  Ca  Ca10      1.0  0.00000  0.73400  0.75000  1.0000
  Pb  Pb1       1.0  0.61200  0.00000  0.25000  1.0000
  Pb  Pb2       1.0  0.00000  0.61200  0.25000  1.0000
  Pb  Pb3       1.0  0.38800  0.38800  0.25000  1.0000
  Pb  Pb4       1.0  0.38800  0.00000  0.75000  1.0000
  Pb  Pb5       1.0  0.00000  0.38800  0.75000  1.0000
  Pb  Pb6       1.0  0.61200  0.61200  0.75000  1.0000
