data_image0
_chemical_formula_structural       Cu4Pr4Se8
_chemical_formula_sum              "Cu4 Pr4 Se8"
_cell_length_a       6.76549
_cell_length_b       7.54286
_cell_length_c       7.22091
_cell_angle_alpha    90
_cell_angle_beta     96.7904
_cell_angle_gamma    90

_space_group_name_H-M_alt    "P 1"
_space_group_IT_number       1

loop_
  _space_group_symop_operation_xyz
  'x, y, z'

loop_
  _atom_site_type_symbol
  _atom_site_label
  _atom_site_symmetry_multiplicity
  _atom_site_fract_x
  _atom_site_fract_y
  _atom_site_fract_z
  _atom_site_occupancy
  Cu  Cu1       1.0  0.06940  0.16100  0.04850  1.0000
  Cu  Cu2       1.0  0.93100  0.66100  0.45100  1.0000
  Cu  Cu3       1.0  0.06940  0.33900  0.54900  1.0000
  Cu  Cu4       1.0  0.93100  0.83900  0.95100  1.0000
  Pr  Pr1       1.0  0.30700  0.54700  0.20000  1.0000
  Pr  Pr2       1.0  0.69300  0.04660  0.30000  1.0000
  Pr  Pr3       1.0  0.30700  0.95300  0.70000  1.0000
  Pr  Pr4       1.0  0.69300  0.45300  0.80000  1.0000
  Se  Se1       1.0  0.41700  0.22400  0.00161  1.0000
  Se  Se2       1.0  0.90200  0.38900  0.22200  1.0000
  Se  Se3       1.0  0.09760  0.88900  0.27800  1.0000
  Se  Se4       1.0  0.58300  0.72400  0.49800  1.0000
  Se  Se5       1.0  0.41700  0.27600  0.50200  1.0000
  Se  Se6       1.0  0.90200  0.11100  0.72200  1.0000
  Se  Se7       1.0  0.09760  0.61100  0.77800  1.0000
  Se  Se8       1.0  0.58300  0.77600  0.99800  1.0000
