data_image0
_chemical_formula_structural       Ho12Ni4
_chemical_formula_sum              "Ho12 Ni4"
_cell_length_a       6.79955
_cell_length_b       9.52341
_cell_length_c       6.26131
_cell_angle_alpha    90
_cell_angle_beta     90
_cell_angle_gamma    90

_space_group_name_H-M_alt    "P 1"
_space_group_IT_number       1

loop_
  _space_group_symop_operation_xyz
  'x, y, z'

loop_
  _atom_site_type_symbol
  _atom_site_label
  _atom_site_symmetry_multiplicity
  _atom_site_fract_x
  _atom_site_fract_y
  _atom_site_fract_z
  _atom_site_occupancy
  Ho  Ho1       1.0  0.46800  0.75000  0.13900  1.0000
  Ho  Ho2       1.0  0.17900  0.06530  0.17800  1.0000
  Ho  Ho3       1.0  0.17900  0.43500  0.17800  1.0000
  Ho  Ho4       1.0  0.67900  0.06530  0.32200  1.0000
  Ho  Ho5       1.0  0.67900  0.43500  0.32200  1.0000
  Ho  Ho6       1.0  0.96800  0.75000  0.36100  1.0000
  Ho  Ho7       1.0  0.03240  0.25000  0.63900  1.0000
  Ho  Ho8       1.0  0.32100  0.56500  0.67800  1.0000
  Ho  Ho9       1.0  0.32100  0.93500  0.67800  1.0000
  Ho  Ho10      1.0  0.82100  0.56500  0.82200  1.0000
  Ho  Ho11      1.0  0.82100  0.93500  0.82200  1.0000
  Ho  Ho12      1.0  0.53200  0.25000  0.86100  1.0000
  Ni  Ni1       1.0  0.89100  0.25000  0.05620  1.0000
  Ni  Ni2       1.0  0.39100  0.25000  0.44400  1.0000
  Ni  Ni3       1.0  0.60900  0.75000  0.55600  1.0000
  Ni  Ni4       1.0  0.10900  0.75000  0.94400  1.0000
