data_image0
_chemical_formula_structural       Ge6Ti10
_chemical_formula_sum              "Ge6 Ti10"
_cell_length_a       7.57113
_cell_length_b       7.57113
_cell_length_c       5.19386
_cell_angle_alpha    90
_cell_angle_beta     90
_cell_angle_gamma    119.999

_space_group_name_H-M_alt    "P 1"
_space_group_IT_number       1

loop_
  _space_group_symop_operation_xyz
  'x, y, z'

loop_
  _atom_site_type_symbol
  _atom_site_label
  _atom_site_symmetry_multiplicity
  _atom_site_fract_x
  _atom_site_fract_y
  _atom_site_fract_z
  _atom_site_occupancy
  Ge  Ge1       1.0  0.61100  0.00000  0.25000  1.0000
  Ge  Ge2       1.0  1.00000  0.61100  0.25000  1.0000
  Ge  Ge3       1.0  0.38900  0.38900  0.25000  1.0000
  Ge  Ge4       1.0  0.38900  0.00001  0.75000  1.0000
  Ge  Ge5       1.0  0.00001  0.38900  0.75000  1.0000
  Ge  Ge6       1.0  0.61100  0.61100  0.75000  1.0000
  Ti  Ti1       1.0  0.66700  0.33300  0.00000  1.0000
  Ti  Ti2       1.0  0.33300  0.66700  0.00000  1.0000
  Ti  Ti3       1.0  0.25000  0.00000  0.25000  1.0000
  Ti  Ti4       1.0  0.00000  0.25000  0.25000  1.0000
  Ti  Ti5       1.0  0.75000  0.75000  0.25000  1.0000
  Ti  Ti6       1.0  0.66700  0.33300  0.50000  1.0000
  Ti  Ti7       1.0  0.33300  0.66700  0.50000  1.0000
  Ti  Ti8       1.0  0.75000  0.00000  0.75000  1.0000
  Ti  Ti9       1.0  0.00000  0.75000  0.75000  1.0000
  Ti  Ti10      1.0  0.25000  0.25000  0.75000  1.0000
