data_image0
_chemical_formula_structural       Bi6In8Pb2
_chemical_formula_sum              "Bi6 In8 Pb2"
_cell_length_a       8.51749
_cell_length_b       8.51749
_cell_length_c       8.88781
_cell_angle_alpha    118.631
_cell_angle_beta     118.631
_cell_angle_gamma    90

_space_group_name_H-M_alt    "P 1"
_space_group_IT_number       1

loop_
  _space_group_symop_operation_xyz
  'x, y, z'

loop_
  _atom_site_type_symbol
  _atom_site_label
  _atom_site_symmetry_multiplicity
  _atom_site_fract_x
  _atom_site_fract_y
  _atom_site_fract_z
  _atom_site_occupancy
  Bi  Bi1       1.0  0.64400  0.14400  0.00000  1.0000
  Bi  Bi2       1.0  0.14400  0.35600  0.00000  1.0000
  Bi  Bi3       1.0  0.85600  0.64400  0.00000  1.0000
  Bi  Bi4       1.0  0.35600  0.85600  0.00000  1.0000
  Bi  Bi5       1.0  0.25000  0.25000  0.50000  1.0000
  Bi  Bi6       1.0  0.75000  0.75000  0.50000  1.0000
  In  In1       1.0  0.81500  0.01880  0.33400  1.0000
  In  In2       1.0  0.51900  0.31500  0.33400  1.0000
  In  In3       1.0  0.01880  0.51900  0.33400  1.0000
  In  In4       1.0  0.31500  0.81500  0.33400  1.0000
  In  In5       1.0  0.68500  0.18500  0.66600  1.0000
  In  In6       1.0  0.98100  0.48100  0.66600  1.0000
  In  In7       1.0  0.48100  0.68500  0.66600  1.0000
  In  In8       1.0  0.18500  0.98100  0.66600  1.0000
  Pb  Pb1       1.0  0.00000  0.00000  0.00000  1.0000
  Pb  Pb2       1.0  0.50000  0.50000  0.00000  1.0000
