data_image0
_chemical_formula_structural       Ir6Y10
_chemical_formula_sum              "Ir6 Y10"
_cell_length_a       8.3098
_cell_length_b       8.3098
_cell_length_c       6.2658
_cell_angle_alpha    90
_cell_angle_beta     90
_cell_angle_gamma    119.998

_space_group_name_H-M_alt    "P 1"
_space_group_IT_number       1

loop_
  _space_group_symop_operation_xyz
  'x, y, z'

loop_
  _atom_site_type_symbol
  _atom_site_label
  _atom_site_symmetry_multiplicity
  _atom_site_fract_x
  _atom_site_fract_y
  _atom_site_fract_z
  _atom_site_occupancy
  Ir  Ir1       1.0  0.61000  0.00000  0.25000  1.0000
  Ir  Ir2       1.0  0.00000  0.61000  0.25000  1.0000
  Ir  Ir3       1.0  0.39000  0.39000  0.25000  1.0000
  Ir  Ir4       1.0  0.39000  0.00000  0.75000  1.0000
  Ir  Ir5       1.0  0.00000  0.39000  0.75000  1.0000
  Ir  Ir6       1.0  0.61000  0.61000  0.75000  1.0000
  Y   Y1        1.0  0.66700  0.33300  0.00000  1.0000
  Y   Y2        1.0  0.33300  0.66700  0.00000  1.0000
  Y   Y3        1.0  0.74100  0.74100  0.25000  1.0000
  Y   Y4        1.0  0.25900  0.00000  0.25000  1.0000
  Y   Y5        1.0  0.00000  0.25900  0.25000  1.0000
  Y   Y6        1.0  0.66700  0.33300  0.50000  1.0000
  Y   Y7        1.0  0.33300  0.66700  0.50000  1.0000
  Y   Y8        1.0  0.25900  0.25900  0.75000  1.0000
  Y   Y9        1.0  0.74100  0.00000  0.75000  1.0000
  Y   Y10       1.0  0.00000  0.74100  0.75000  1.0000
