data_image0
_chemical_formula_structural       Cu4Pr4S8
_chemical_formula_sum              "Cu4 Pr4 S8"
_cell_length_a       6.51575
_cell_length_b       7.25679
_cell_length_c       6.91029
_cell_angle_alpha    90
_cell_angle_beta     97.7897
_cell_angle_gamma    90

_space_group_name_H-M_alt    "P 1"
_space_group_IT_number       1

loop_
  _space_group_symop_operation_xyz
  'x, y, z'

loop_
  _atom_site_type_symbol
  _atom_site_label
  _atom_site_symmetry_multiplicity
  _atom_site_fract_x
  _atom_site_fract_y
  _atom_site_fract_z
  _atom_site_occupancy
  Cu  Cu1       1.0  0.07260  0.66400  0.04990  1.0000
  Cu  Cu2       1.0  0.92700  0.16400  0.45000  1.0000
  Cu  Cu3       1.0  0.07260  0.83600  0.55000  1.0000
  Cu  Cu4       1.0  0.92700  0.33600  0.95000  1.0000
  Pr  Pr1       1.0  0.31000  0.05010  0.19900  1.0000
  Pr  Pr2       1.0  0.69000  0.55000  0.30100  1.0000
  Pr  Pr3       1.0  0.31000  0.45000  0.69900  1.0000
  Pr  Pr4       1.0  0.69000  0.95000  0.80100  1.0000
  S   S1        1.0  0.58700  0.27500  0.99900  1.0000
  S   S2        1.0  0.41300  0.72500  0.00057  1.0000
  S   S3        1.0  0.90900  0.88600  0.22300  1.0000
  S   S4        1.0  0.09140  0.38600  0.27700  1.0000
  S   S5        1.0  0.58700  0.22500  0.49900  1.0000
  S   S6        1.0  0.41300  0.77500  0.50100  1.0000
  S   S7        1.0  0.90900  0.61400  0.72300  1.0000
  S   S8        1.0  0.09140  0.11400  0.77700  1.0000
