data_image0
_chemical_formula_structural       C8Pu4W4
_chemical_formula_sum              "C8 Pu4 W4"
_cell_length_a       5.69831
_cell_length_b       3.2841
_cell_length_c       10.9347
_cell_angle_alpha    90
_cell_angle_beta     90
_cell_angle_gamma    90

_space_group_name_H-M_alt    "P 1"
_space_group_IT_number       1

loop_
  _space_group_symop_operation_xyz
  'x, y, z'

loop_
  _atom_site_type_symbol
  _atom_site_label
  _atom_site_symmetry_multiplicity
  _atom_site_fract_x
  _atom_site_fract_y
  _atom_site_fract_z
  _atom_site_occupancy
  C   C1        1.0  0.73600  0.25000  0.01080  1.0000
  C   C2        1.0  0.83700  0.75000  0.24500  1.0000
  C   C3        1.0  0.33700  0.75000  0.25500  1.0000
  C   C4        1.0  0.23600  0.25000  0.48900  1.0000
  C   C5        1.0  0.76400  0.75000  0.51100  1.0000
  C   C6        1.0  0.66300  0.25000  0.74500  1.0000
  C   C7        1.0  0.16300  0.25000  0.75500  1.0000
  C   C8        1.0  0.26400  0.75000  0.98900  1.0000
  Pu  Pu1       1.0  0.08450  0.25000  0.13900  1.0000
  Pu  Pu2       1.0  0.58400  0.25000  0.36100  1.0000
  Pu  Pu3       1.0  0.41600  0.75000  0.63900  1.0000
  Pu  Pu4       1.0  0.91600  0.75000  0.86100  1.0000
  W   W1        1.0  0.58600  0.75000  0.10700  1.0000
  W   W2        1.0  0.08600  0.75000  0.39300  1.0000
  W   W3        1.0  0.91400  0.25000  0.60700  1.0000
  W   W4        1.0  0.41400  0.25000  0.89300  1.0000
