data_image0
_chemical_formula_structural       B4Fe10Si2
_chemical_formula_sum              "B4 Fe10 Si2"
_cell_length_a       5.50539
_cell_length_b       5.50539
_cell_length_c       6.45208
_cell_angle_alpha    115.254
_cell_angle_beta     115.254
_cell_angle_gamma    90

_space_group_name_H-M_alt    "P 1"
_space_group_IT_number       1

loop_
  _space_group_symop_operation_xyz
  'x, y, z'

loop_
  _atom_site_type_symbol
  _atom_site_label
  _atom_site_symmetry_multiplicity
  _atom_site_fract_x
  _atom_site_fract_y
  _atom_site_fract_z
  _atom_site_occupancy
  B   B1        1.0  0.61900  0.11900  0.00000  1.0000
  B   B2        1.0  0.11900  0.38100  0.00000  1.0000
  B   B3        1.0  0.88100  0.61900  0.00000  1.0000
  B   B4        1.0  0.38100  0.88100  0.00000  1.0000
  Fe  Fe1       1.0  0.00000  0.00000  0.00000  1.0000
  Fe  Fe2       1.0  0.50000  0.50000  0.00000  1.0000
  Fe  Fe3       1.0  0.46700  0.30500  0.27300  1.0000
  Fe  Fe4       1.0  0.96700  0.46700  0.27300  1.0000
  Fe  Fe5       1.0  0.30500  0.80500  0.27300  1.0000
  Fe  Fe6       1.0  0.80500  0.96700  0.27300  1.0000
  Fe  Fe7       1.0  0.19500  0.03280  0.72700  1.0000
  Fe  Fe8       1.0  0.69500  0.19500  0.72700  1.0000
  Fe  Fe9       1.0  0.03280  0.53300  0.72700  1.0000
  Fe  Fe10      1.0  0.53300  0.69500  0.72700  1.0000
  Si  Si1       1.0  0.25000  0.25000  0.50000  1.0000
  Si  Si2       1.0  0.75000  0.75000  0.50000  1.0000
