data_image0
_chemical_formula_structural       Ga6Ta10
_chemical_formula_sum              "Ga6 Ta10"
_cell_length_a       5.12026
_cell_length_b       7.69173
_cell_length_c       7.69173
_cell_angle_alpha    96.3605
_cell_angle_beta     70.5586
_cell_angle_gamma    109.441

_space_group_name_H-M_alt    "P 1"
_space_group_IT_number       1

loop_
  _space_group_symop_operation_xyz
  'x, y, z'

loop_
  _atom_site_type_symbol
  _atom_site_label
  _atom_site_symmetry_multiplicity
  _atom_site_fract_x
  _atom_site_fract_y
  _atom_site_fract_z
  _atom_site_occupancy
  Ga  Ga1       1.0  0.25000  0.00000  0.00000  1.0000
  Ga  Ga2       1.0  0.75000  0.00000  0.00000  1.0000
  Ga  Ga3       1.0  0.16600  0.50000  0.16900  1.0000
  Ga  Ga4       1.0  0.33400  0.16900  0.50000  1.0000
  Ga  Ga5       1.0  0.66600  0.83100  0.50000  1.0000
  Ga  Ga6       1.0  0.83400  0.50000  0.83100  1.0000
  Ta  Ta1       1.0  0.77800  0.70200  0.14700  1.0000
  Ta  Ta2       1.0  0.57500  0.29800  0.14700  1.0000
  Ta  Ta3       1.0  0.27800  0.85300  0.29800  1.0000
  Ta  Ta4       1.0  0.92500  0.14700  0.29800  1.0000
  Ta  Ta5       1.0  0.25000  0.50000  0.50000  1.0000
  Ta  Ta6       1.0  0.75000  0.50000  0.50000  1.0000
  Ta  Ta7       1.0  0.72200  0.14700  0.70200  1.0000
  Ta  Ta8       1.0  0.07540  0.85300  0.70200  1.0000
  Ta  Ta9       1.0  0.22200  0.29800  0.85300  1.0000
  Ta  Ta10      1.0  0.42500  0.70200  0.85300  1.0000
