data_image0
_chemical_formula_structural       B4Fe10P2
_chemical_formula_sum              "B4 Fe10 P2"
_cell_length_a       5.44721
_cell_length_b       5.44721
_cell_length_c       6.43525
_cell_angle_alpha    115.039
_cell_angle_beta     115.039
_cell_angle_gamma    90

_space_group_name_H-M_alt    "P 1"
_space_group_IT_number       1

loop_
  _space_group_symop_operation_xyz
  'x, y, z'

loop_
  _atom_site_type_symbol
  _atom_site_label
  _atom_site_symmetry_multiplicity
  _atom_site_fract_x
  _atom_site_fract_y
  _atom_site_fract_z
  _atom_site_occupancy
  B   B1        1.0  0.61800  0.11800  0.00000  1.0000
  B   B2        1.0  0.11800  0.38200  0.00000  1.0000
  B   B3        1.0  0.88200  0.61800  0.00000  1.0000
  B   B4        1.0  0.38200  0.88200  0.00000  1.0000
  Fe  Fe1       1.0  0.00000  0.00000  0.00000  1.0000
  Fe  Fe2       1.0  0.50000  0.50000  0.00000  1.0000
  Fe  Fe3       1.0  0.46700  0.31000  0.27700  1.0000
  Fe  Fe4       1.0  0.96700  0.46700  0.27700  1.0000
  Fe  Fe5       1.0  0.31000  0.81000  0.27700  1.0000
  Fe  Fe6       1.0  0.81000  0.96700  0.27700  1.0000
  Fe  Fe7       1.0  0.19000  0.03350  0.72300  1.0000
  Fe  Fe8       1.0  0.69000  0.19000  0.72300  1.0000
  Fe  Fe9       1.0  0.03350  0.53300  0.72300  1.0000
  Fe  Fe10      1.0  0.53300  0.69000  0.72300  1.0000
  P   P1        1.0  0.25000  0.25000  0.50000  1.0000
  P   P2        1.0  0.75000  0.75000  0.50000  1.0000
