data_image0
_chemical_formula_structural       Cu4Se8Sm4
_chemical_formula_sum              "Cu4 Se8 Sm4"
_cell_length_a       6.62877
_cell_length_b       7.42323
_cell_length_c       7.17084
_cell_angle_alpha    90
_cell_angle_beta     96.2489
_cell_angle_gamma    90

_space_group_name_H-M_alt    "P 1"
_space_group_IT_number       1

loop_
  _space_group_symop_operation_xyz
  'x, y, z'

loop_
  _atom_site_type_symbol
  _atom_site_label
  _atom_site_symmetry_multiplicity
  _atom_site_fract_x
  _atom_site_fract_y
  _atom_site_fract_z
  _atom_site_occupancy
  Cu  Cu1       1.0  0.06250  0.16600  0.04190  1.0000
  Cu  Cu2       1.0  0.93700  0.66600  0.45800  1.0000
  Cu  Cu3       1.0  0.06250  0.33400  0.54200  1.0000
  Cu  Cu4       1.0  0.93700  0.83400  0.95800  1.0000
  Se  Se1       1.0  0.42000  0.22400  0.00195  1.0000
  Se  Se2       1.0  0.89600  0.39300  0.22000  1.0000
  Se  Se3       1.0  0.10400  0.89300  0.28000  1.0000
  Se  Se4       1.0  0.58000  0.72400  0.49800  1.0000
  Se  Se5       1.0  0.42000  0.27600  0.50200  1.0000
  Se  Se6       1.0  0.89600  0.10700  0.72000  1.0000
  Se  Se7       1.0  0.10400  0.60700  0.78000  1.0000
  Se  Se8       1.0  0.58000  0.77600  0.99800  1.0000
  Sm  Sm1       1.0  0.30700  0.54400  0.20200  1.0000
  Sm  Sm2       1.0  0.69300  0.04430  0.29800  1.0000
  Sm  Sm3       1.0  0.30700  0.95600  0.70200  1.0000
  Sm  Sm4       1.0  0.69300  0.45600  0.79800  1.0000
