data_image0
_chemical_formula_structural       Ca10Ga6
_chemical_formula_sum              "Ca10 Ga6"
_cell_length_a       7.93261
_cell_length_b       7.93261
_cell_length_c       9.32107
_cell_angle_alpha    115.184
_cell_angle_beta     115.184
_cell_angle_gamma    90

_space_group_name_H-M_alt    "P 1"
_space_group_IT_number       1

loop_
  _space_group_symop_operation_xyz
  'x, y, z'

loop_
  _atom_site_type_symbol
  _atom_site_label
  _atom_site_symmetry_multiplicity
  _atom_site_fract_x
  _atom_site_fract_y
  _atom_site_fract_z
  _atom_site_occupancy
  Ca  Ca1       1.0  0.00000  0.00000  0.00000  1.0000
  Ca  Ca2       1.0  0.50000  0.50000  0.00000  1.0000
  Ca  Ca3       1.0  0.82100  0.32100  0.28900  1.0000
  Ca  Ca4       1.0  0.32100  0.46800  0.28900  1.0000
  Ca  Ca5       1.0  0.96800  0.82100  0.28900  1.0000
  Ca  Ca6       1.0  0.46800  0.96800  0.28900  1.0000
  Ca  Ca7       1.0  0.53200  0.03220  0.71100  1.0000
  Ca  Ca8       1.0  0.03220  0.17900  0.71100  1.0000
  Ca  Ca9       1.0  0.67900  0.53200  0.71100  1.0000
  Ca  Ca10      1.0  0.17900  0.67900  0.71100  1.0000
  Ga  Ga1       1.0  0.38800  0.11200  0.00000  1.0000
  Ga  Ga2       1.0  0.88800  0.38800  0.00000  1.0000
  Ga  Ga3       1.0  0.11200  0.61200  0.00000  1.0000
  Ga  Ga4       1.0  0.61200  0.88800  0.00000  1.0000
  Ga  Ga5       1.0  0.25000  0.25000  0.50000  1.0000
  Ga  Ga6       1.0  0.75000  0.75000  0.50000  1.0000
