data_image0
_chemical_formula_structural       Dy10In6
_chemical_formula_sum              "Dy10 In6"
_cell_length_a       5.98808
_cell_length_b       9.15243
_cell_length_c       9.15243
_cell_angle_alpha    96.1433
_cell_angle_beta     109.095
_cell_angle_gamma    70.9053

_space_group_name_H-M_alt    "P 1"
_space_group_IT_number       1

loop_
  _space_group_symop_operation_xyz
  'x, y, z'

loop_
  _atom_site_type_symbol
  _atom_site_label
  _atom_site_symmetry_multiplicity
  _atom_site_fract_x
  _atom_site_fract_y
  _atom_site_fract_z
  _atom_site_occupancy
  Dy  Dy1       1.0  0.91700  0.30200  0.13700  1.0000
  Dy  Dy2       1.0  0.72000  0.69800  0.13700  1.0000
  Dy  Dy3       1.0  0.22000  0.86300  0.30200  1.0000
  Dy  Dy4       1.0  0.58300  0.13700  0.30200  1.0000
  Dy  Dy5       1.0  0.25000  0.50000  0.50000  1.0000
  Dy  Dy6       1.0  0.75000  0.50000  0.50000  1.0000
  Dy  Dy7       1.0  0.78000  0.13700  0.69800  1.0000
  Dy  Dy8       1.0  0.41700  0.86300  0.69800  1.0000
  Dy  Dy9       1.0  0.28000  0.30200  0.86300  1.0000
  Dy  Dy10      1.0  0.08270  0.69800  0.86300  1.0000
  In  In1       1.0  0.25000  0.00000  0.00000  1.0000
  In  In2       1.0  0.75000  0.00000  0.00000  1.0000
  In  In3       1.0  0.33800  0.50000  0.17700  1.0000
  In  In4       1.0  0.16200  0.17700  0.50000  1.0000
  In  In5       1.0  0.83800  0.82300  0.50000  1.0000
  In  In6       1.0  0.66200  0.50000  0.82300  1.0000
