data_image0
_chemical_formula_structural       Cu4Nd4Se8
_chemical_formula_sum              "Cu4 Nd4 Se8"
_cell_length_a       6.72868
_cell_length_b       7.49721
_cell_length_c       7.19828
_cell_angle_alpha    90
_cell_angle_beta     96.7062
_cell_angle_gamma    90

_space_group_name_H-M_alt    "P 1"
_space_group_IT_number       1

loop_
  _space_group_symop_operation_xyz
  'x, y, z'

loop_
  _atom_site_type_symbol
  _atom_site_label
  _atom_site_symmetry_multiplicity
  _atom_site_fract_x
  _atom_site_fract_y
  _atom_site_fract_z
  _atom_site_occupancy
  Cu  Cu1       1.0  0.07000  0.16000  0.04780  1.0000
  Cu  Cu2       1.0  0.93000  0.66000  0.45200  1.0000
  Cu  Cu3       1.0  0.07000  0.34000  0.54800  1.0000
  Cu  Cu4       1.0  0.93000  0.84000  0.95200  1.0000
  Nd  Nd1       1.0  0.30600  0.54500  0.20000  1.0000
  Nd  Nd2       1.0  0.69400  0.04540  0.30000  1.0000
  Nd  Nd3       1.0  0.30600  0.95500  0.70000  1.0000
  Nd  Nd4       1.0  0.69400  0.45500  0.80000  1.0000
  Se  Se1       1.0  0.58100  0.77600  0.99800  1.0000
  Se  Se2       1.0  0.41900  0.22400  0.00216  1.0000
  Se  Se3       1.0  0.90200  0.38800  0.22100  1.0000
  Se  Se4       1.0  0.09820  0.88800  0.27900  1.0000
  Se  Se5       1.0  0.58100  0.72400  0.49800  1.0000
  Se  Se6       1.0  0.41900  0.27600  0.50200  1.0000
  Se  Se7       1.0  0.90200  0.11200  0.72100  1.0000
  Se  Se8       1.0  0.09820  0.61200  0.77900  1.0000
