data_image0
_chemical_formula_structural       B4Mn10Si2
_chemical_formula_sum              "B4 Mn10 Si2"
_cell_length_a       5.55415
_cell_length_b       5.55415
_cell_length_c       6.47634
_cell_angle_alpha    115.392
_cell_angle_beta     115.392
_cell_angle_gamma    90

_space_group_name_H-M_alt    "P 1"
_space_group_IT_number       1

loop_
  _space_group_symop_operation_xyz
  'x, y, z'

loop_
  _atom_site_type_symbol
  _atom_site_label
  _atom_site_symmetry_multiplicity
  _atom_site_fract_x
  _atom_site_fract_y
  _atom_site_fract_z
  _atom_site_occupancy
  B   B1        1.0  0.62100  0.12100  0.00000  1.0000
  B   B2        1.0  0.12100  0.37900  0.00000  1.0000
  B   B3        1.0  0.87900  0.62100  0.00000  1.0000
  B   B4        1.0  0.37900  0.87900  0.00000  1.0000
  Mn  Mn1       1.0  0.00000  0.00000  0.00000  1.0000
  Mn  Mn2       1.0  0.50000  0.50000  0.00000  1.0000
  Mn  Mn3       1.0  0.46900  0.30400  0.27300  1.0000
  Mn  Mn4       1.0  0.96900  0.46900  0.27300  1.0000
  Mn  Mn5       1.0  0.30400  0.80400  0.27300  1.0000
  Mn  Mn6       1.0  0.80400  0.96900  0.27300  1.0000
  Mn  Mn7       1.0  0.19600  0.03090  0.72700  1.0000
  Mn  Mn8       1.0  0.69600  0.19600  0.72700  1.0000
  Mn  Mn9       1.0  0.03090  0.53100  0.72700  1.0000
  Mn  Mn10      1.0  0.53100  0.69600  0.72700  1.0000
  Si  Si1       1.0  0.25000  0.25000  0.50000  1.0000
  Si  Si2       1.0  0.75000  0.75000  0.50000  1.0000
