data_image0
_chemical_formula_structural       Ir6Yb10
_chemical_formula_sum              "Ir6 Yb10"
_cell_length_a       8.26973
_cell_length_b       8.26973
_cell_length_c       5.97214
_cell_angle_alpha    90
_cell_angle_beta     90
_cell_angle_gamma    120.004

_space_group_name_H-M_alt    "P 1"
_space_group_IT_number       1

loop_
  _space_group_symop_operation_xyz
  'x, y, z'

loop_
  _atom_site_type_symbol
  _atom_site_label
  _atom_site_symmetry_multiplicity
  _atom_site_fract_x
  _atom_site_fract_y
  _atom_site_fract_z
  _atom_site_occupancy
  Ir  Ir1       1.0  0.60700  0.00001  0.25000  1.0000
  Ir  Ir2       1.0  0.00000  0.60700  0.25000  1.0000
  Ir  Ir3       1.0  0.39300  0.39300  0.25000  1.0000
  Ir  Ir4       1.0  0.39300  0.00000  0.75000  1.0000
  Ir  Ir5       1.0  0.00000  0.39300  0.75000  1.0000
  Ir  Ir6       1.0  0.60700  0.60700  0.75000  1.0000
  Yb  Yb1       1.0  0.66700  0.33300  0.00000  1.0000
  Yb  Yb2       1.0  0.33300  0.66700  0.00000  1.0000
  Yb  Yb3       1.0  0.73400  0.73400  0.25000  1.0000
  Yb  Yb4       1.0  0.26600  0.00001  0.25000  1.0000
  Yb  Yb5       1.0  0.00001  0.26600  0.25000  1.0000
  Yb  Yb6       1.0  0.66700  0.33300  0.50000  1.0000
  Yb  Yb7       1.0  0.33300  0.66700  0.50000  1.0000
  Yb  Yb8       1.0  0.26600  0.26600  0.75000  1.0000
  Yb  Yb9       1.0  0.73400  0.00000  0.75000  1.0000
  Yb  Yb10      1.0  0.00000  0.73400  0.75000  1.0000
