data_image0
_chemical_formula_structural       Bi6Sm10
_chemical_formula_sum              "Bi6 Sm10"
_cell_length_a       9.36403
_cell_length_b       9.36403
_cell_length_c       6.48438
_cell_angle_alpha    90
_cell_angle_beta     90
_cell_angle_gamma    120

_space_group_name_H-M_alt    "P 1"
_space_group_IT_number       1

loop_
  _space_group_symop_operation_xyz
  'x, y, z'

loop_
  _atom_site_type_symbol
  _atom_site_label
  _atom_site_symmetry_multiplicity
  _atom_site_fract_x
  _atom_site_fract_y
  _atom_site_fract_z
  _atom_site_occupancy
  Bi  Bi1       1.0  0.61200  0.00000  0.25000  1.0000
  Bi  Bi2       1.0  0.00000  0.61200  0.25000  1.0000
  Bi  Bi3       1.0  0.38800  0.38800  0.25000  1.0000
  Bi  Bi4       1.0  0.38800  0.00000  0.75000  1.0000
  Bi  Bi5       1.0  0.00000  0.38800  0.75000  1.0000
  Bi  Bi6       1.0  0.61200  0.61200  0.75000  1.0000
  Sm  Sm1       1.0  0.66700  0.33300  0.00000  1.0000
  Sm  Sm2       1.0  0.33300  0.66700  0.00000  1.0000
  Sm  Sm3       1.0  0.24600  0.00000  0.25000  1.0000
  Sm  Sm4       1.0  0.00000  0.24600  0.25000  1.0000
  Sm  Sm5       1.0  0.75400  0.75400  0.25000  1.0000
  Sm  Sm6       1.0  0.66700  0.33300  0.50000  1.0000
  Sm  Sm7       1.0  0.33300  0.66700  0.50000  1.0000
  Sm  Sm8       1.0  0.75400  0.00000  0.75000  1.0000
  Sm  Sm9       1.0  0.00000  0.75400  0.75000  1.0000
  Sm  Sm10      1.0  0.24600  0.24600  0.75000  1.0000
