data_image0
_chemical_formula_structural       Ba10Sn6
_chemical_formula_sum              "Ba10 Sn6"
_cell_length_a       9.009
_cell_length_b       9.009
_cell_length_c       10.7194
_cell_angle_alpha    114.848
_cell_angle_beta     114.848
_cell_angle_gamma    90

_space_group_name_H-M_alt    "P 1"
_space_group_IT_number       1

loop_
  _space_group_symop_operation_xyz
  'x, y, z'

loop_
  _atom_site_type_symbol
  _atom_site_label
  _atom_site_symmetry_multiplicity
  _atom_site_fract_x
  _atom_site_fract_y
  _atom_site_fract_z
  _atom_site_occupancy
  Ba  Ba1       1.0  0.00000  0.00000  0.00000  1.0000
  Ba  Ba2       1.0  0.50000  0.50000  0.00000  1.0000
  Ba  Ba3       1.0  0.46500  0.32200  0.28700  1.0000
  Ba  Ba4       1.0  0.96500  0.46500  0.28700  1.0000
  Ba  Ba5       1.0  0.32200  0.82200  0.28700  1.0000
  Ba  Ba6       1.0  0.82200  0.96500  0.28700  1.0000
  Ba  Ba7       1.0  0.17800  0.03490  0.71300  1.0000
  Ba  Ba8       1.0  0.67800  0.17800  0.71300  1.0000
  Ba  Ba9       1.0  0.03490  0.53500  0.71300  1.0000
  Ba  Ba10      1.0  0.53500  0.67800  0.71300  1.0000
  Sn  Sn1       1.0  0.61600  0.11600  0.00000  1.0000
  Sn  Sn2       1.0  0.11600  0.38400  0.00000  1.0000
  Sn  Sn3       1.0  0.88400  0.61600  0.00000  1.0000
  Sn  Sn4       1.0  0.38400  0.88400  0.00000  1.0000
  Sn  Sn5       1.0  0.25000  0.25000  0.50000  1.0000
  Sn  Sn6       1.0  0.75000  0.75000  0.50000  1.0000
