data_image0
_chemical_formula_structural       La10Sb6
_chemical_formula_sum              "La10 Sb6"
_cell_length_a       9.563
_cell_length_b       9.563
_cell_length_c       6.64515
_cell_angle_alpha    90
_cell_angle_beta     90
_cell_angle_gamma    120

_space_group_name_H-M_alt    "P 1"
_space_group_IT_number       1

loop_
  _space_group_symop_operation_xyz
  'x, y, z'

loop_
  _atom_site_type_symbol
  _atom_site_label
  _atom_site_symmetry_multiplicity
  _atom_site_fract_x
  _atom_site_fract_y
  _atom_site_fract_z
  _atom_site_occupancy
  La  La1       1.0  0.66700  0.33300  0.00000  1.0000
  La  La2       1.0  0.33300  0.66700  0.00000  1.0000
  La  La3       1.0  0.25500  0.00000  0.25000  1.0000
  La  La4       1.0  0.00000  0.25500  0.25000  1.0000
  La  La5       1.0  0.74500  0.74500  0.25000  1.0000
  La  La6       1.0  0.66700  0.33300  0.50000  1.0000
  La  La7       1.0  0.33300  0.66700  0.50000  1.0000
  La  La8       1.0  0.74500  0.00000  0.75000  1.0000
  La  La9       1.0  0.00000  0.74500  0.75000  1.0000
  La  La10      1.0  0.25500  0.25500  0.75000  1.0000
  Sb  Sb1       1.0  0.61600  0.00000  0.25000  1.0000
  Sb  Sb2       1.0  0.00000  0.61600  0.25000  1.0000
  Sb  Sb3       1.0  0.38400  0.38400  0.25000  1.0000
  Sb  Sb4       1.0  0.38400  0.00000  0.75000  1.0000
  Sb  Sb5       1.0  0.00000  0.38400  0.75000  1.0000
  Sb  Sb6       1.0  0.61600  0.61600  0.75000  1.0000
