data_image0
_chemical_formula_structural       Cu2Te6Tl8
_chemical_formula_sum              "Cu2 Te6 Tl8"
_cell_length_a       8.77919
_cell_length_b       8.77919
_cell_length_c       8.78373
_cell_angle_alpha    119.983
_cell_angle_beta     119.983
_cell_angle_gamma    90

_space_group_name_H-M_alt    "P 1"
_space_group_IT_number       1

loop_
  _space_group_symop_operation_xyz
  'x, y, z'

loop_
  _atom_site_type_symbol
  _atom_site_label
  _atom_site_symmetry_multiplicity
  _atom_site_fract_x
  _atom_site_fract_y
  _atom_site_fract_z
  _atom_site_occupancy
  Cu  Cu1       1.0  0.00000  0.00000  0.00000  1.0000
  Cu  Cu2       1.0  0.50000  0.50000  0.00000  1.0000
  Te  Te1       1.0  0.66000  0.16000  0.00000  1.0000
  Te  Te2       1.0  0.16000  0.34000  0.00000  1.0000
  Te  Te3       1.0  0.84000  0.66000  0.00000  1.0000
  Te  Te4       1.0  0.34000  0.84000  0.00000  1.0000
  Te  Te5       1.0  0.25000  0.25000  0.50000  1.0000
  Te  Te6       1.0  0.75000  0.75000  0.50000  1.0000
  Tl  Tl1       1.0  0.80700  0.01030  0.31700  1.0000
  Tl  Tl2       1.0  0.51000  0.30700  0.31700  1.0000
  Tl  Tl3       1.0  0.01030  0.51000  0.31700  1.0000
  Tl  Tl4       1.0  0.30700  0.80700  0.31700  1.0000
  Tl  Tl5       1.0  0.69300  0.19300  0.68300  1.0000
  Tl  Tl6       1.0  0.99000  0.49000  0.68300  1.0000
  Tl  Tl7       1.0  0.49000  0.69300  0.68300  1.0000
  Tl  Tl8       1.0  0.19300  0.99000  0.68300  1.0000
