data_image0
_chemical_formula_structural       Ga6V10
_chemical_formula_sum              "Ga6 V10"
_cell_length_a       7.33414
_cell_length_b       7.33414
_cell_length_c       4.84697
_cell_angle_alpha    90
_cell_angle_beta     90
_cell_angle_gamma    120.074

_space_group_name_H-M_alt    "P 1"
_space_group_IT_number       1

loop_
  _space_group_symop_operation_xyz
  'x, y, z'

loop_
  _atom_site_type_symbol
  _atom_site_label
  _atom_site_symmetry_multiplicity
  _atom_site_fract_x
  _atom_site_fract_y
  _atom_site_fract_z
  _atom_site_occupancy
  Ga  Ga1       1.0  0.60300  0.00004  0.25000  1.0000
  Ga  Ga2       1.0  0.00004  0.60300  0.25000  1.0000
  Ga  Ga3       1.0  0.39700  0.39700  0.25000  1.0000
  Ga  Ga4       1.0  0.39700  0.00000  0.75000  1.0000
  Ga  Ga5       1.0  0.00000  0.39700  0.75000  1.0000
  Ga  Ga6       1.0  0.60300  0.60300  0.75000  1.0000
  V   V1        1.0  0.66700  0.33300  0.00000  1.0000
  V   V2        1.0  0.33300  0.66700  0.00000  1.0000
  V   V3        1.0  0.23700  0.00000  0.25000  1.0000
  V   V4        1.0  0.00000  0.23700  0.25000  1.0000
  V   V5        1.0  0.76300  0.76300  0.25000  1.0000
  V   V6        1.0  0.66700  0.33300  0.50000  1.0000
  V   V7        1.0  0.33300  0.66700  0.50000  1.0000
  V   V8        1.0  0.76300  0.00004  0.75000  1.0000
  V   V9        1.0  0.00004  0.76300  0.75000  1.0000
  V   V10       1.0  0.23700  0.23700  0.75000  1.0000
