data_image0
_chemical_formula_structural       Ge6Mo10
_chemical_formula_sum              "Ge6 Mo10"
_cell_length_a       4.99971
_cell_length_b       7.43036
_cell_length_c       7.43036
_cell_angle_alpha    96.4993
_cell_angle_beta     109.66
_cell_angle_gamma    70.34

_space_group_name_H-M_alt    "P 1"
_space_group_IT_number       1

loop_
  _space_group_symop_operation_xyz
  'x, y, z'

loop_
  _atom_site_type_symbol
  _atom_site_label
  _atom_site_symmetry_multiplicity
  _atom_site_fract_x
  _atom_site_fract_y
  _atom_site_fract_z
  _atom_site_occupancy
  Ge  Ge1       1.0  0.25000  0.00000  0.00000  1.0000
  Ge  Ge2       1.0  0.75000  0.00000  0.00000  1.0000
  Ge  Ge3       1.0  0.33200  0.50000  0.16400  1.0000
  Ge  Ge4       1.0  0.83200  0.83600  0.50000  1.0000
  Ge  Ge5       1.0  0.16800  0.16400  0.50000  1.0000
  Ge  Ge6       1.0  0.66800  0.50000  0.83600  1.0000
  Mo  Mo1       1.0  0.73000  0.69300  0.15300  1.0000
  Mo  Mo2       1.0  0.92300  0.30700  0.15300  1.0000
  Mo  Mo3       1.0  0.23000  0.84700  0.30700  1.0000
  Mo  Mo4       1.0  0.57700  0.15300  0.30700  1.0000
  Mo  Mo5       1.0  0.25000  0.50000  0.50000  1.0000
  Mo  Mo6       1.0  0.75000  0.50000  0.50000  1.0000
  Mo  Mo7       1.0  0.77000  0.15300  0.69300  1.0000
  Mo  Mo8       1.0  0.42300  0.84700  0.69300  1.0000
  Mo  Mo9       1.0  0.27000  0.30700  0.84700  1.0000
  Mo  Mo10      1.0  0.07700  0.69300  0.84700  1.0000
