data_image0
_chemical_formula_structural       Cu4S8Tb4
_chemical_formula_sum              "Cu4 S8 Tb4"
_cell_length_a       6.39166
_cell_length_b       7.02623
_cell_length_c       6.73141
_cell_angle_alpha    90
_cell_angle_beta     97.727
_cell_angle_gamma    90

_space_group_name_H-M_alt    "P 1"
_space_group_IT_number       1

loop_
  _space_group_symop_operation_xyz
  'x, y, z'

loop_
  _atom_site_type_symbol
  _atom_site_label
  _atom_site_symmetry_multiplicity
  _atom_site_fract_x
  _atom_site_fract_y
  _atom_site_fract_z
  _atom_site_occupancy
  Cu  Cu1       1.0  0.08700  0.15600  0.05850  1.0000
  Cu  Cu2       1.0  0.91300  0.65600  0.44200  1.0000
  Cu  Cu3       1.0  0.08700  0.34400  0.55800  1.0000
  Cu  Cu4       1.0  0.91300  0.84400  0.94200  1.0000
  S   S1        1.0  0.57400  0.77400  0.99800  1.0000
  S   S2        1.0  0.42600  0.22600  0.00172  1.0000
  S   S3        1.0  0.91000  0.38500  0.21800  1.0000
  S   S4        1.0  0.09030  0.88500  0.28200  1.0000
  S   S5        1.0  0.57400  0.72600  0.49800  1.0000
  S   S6        1.0  0.42600  0.27400  0.50200  1.0000
  S   S7        1.0  0.91000  0.11500  0.71800  1.0000
  S   S8        1.0  0.09030  0.61500  0.78200  1.0000
  Tb  Tb1       1.0  0.30500  0.54800  0.19800  1.0000
  Tb  Tb2       1.0  0.69500  0.04840  0.30200  1.0000
  Tb  Tb3       1.0  0.30500  0.95200  0.69800  1.0000
  Tb  Tb4       1.0  0.69500  0.45200  0.80200  1.0000
