data_image0
_chemical_formula_structural       Ca10Pt6
_chemical_formula_sum              "Ca10 Pt6"
_cell_length_a       5.9091
_cell_length_b       8.62675
_cell_length_c       8.62675
_cell_angle_alpha    96.7361
_cell_angle_beta     69.9715
_cell_angle_gamma    110.028

_space_group_name_H-M_alt    "P 1"
_space_group_IT_number       1

loop_
  _space_group_symop_operation_xyz
  'x, y, z'

loop_
  _atom_site_type_symbol
  _atom_site_label
  _atom_site_symmetry_multiplicity
  _atom_site_fract_x
  _atom_site_fract_y
  _atom_site_fract_z
  _atom_site_occupancy
  Ca  Ca1       1.0  0.08260  0.29400  0.12900  1.0000
  Ca  Ca2       1.0  0.28800  0.70600  0.12900  1.0000
  Ca  Ca3       1.0  0.78800  0.87100  0.29400  1.0000
  Ca  Ca4       1.0  0.41700  0.12900  0.29400  1.0000
  Ca  Ca5       1.0  0.25000  0.50000  0.50000  1.0000
  Ca  Ca6       1.0  0.75000  0.50000  0.50000  1.0000
  Ca  Ca7       1.0  0.21200  0.12900  0.70600  1.0000
  Ca  Ca8       1.0  0.58300  0.87100  0.70600  1.0000
  Ca  Ca9       1.0  0.71200  0.29400  0.87100  1.0000
  Ca  Ca10      1.0  0.91700  0.70600  0.87100  1.0000
  Pt  Pt1       1.0  0.25000  0.00000  0.00000  1.0000
  Pt  Pt2       1.0  0.75000  0.00000  0.00000  1.0000
  Pt  Pt3       1.0  0.65600  0.50000  0.18800  1.0000
  Pt  Pt4       1.0  0.84400  0.18800  0.50000  1.0000
  Pt  Pt5       1.0  0.15600  0.81200  0.50000  1.0000
  Pt  Pt6       1.0  0.34400  0.50000  0.81200  1.0000
