data_image0
_chemical_formula_structural       Dy10Ir6
_chemical_formula_sum              "Dy10 Ir6"
_cell_length_a       8.28508
_cell_length_b       8.28508
_cell_length_c       6.23813
_cell_angle_alpha    90
_cell_angle_beta     90
_cell_angle_gamma    120.004

_space_group_name_H-M_alt    "P 1"
_space_group_IT_number       1

loop_
  _space_group_symop_operation_xyz
  'x, y, z'

loop_
  _atom_site_type_symbol
  _atom_site_label
  _atom_site_symmetry_multiplicity
  _atom_site_fract_x
  _atom_site_fract_y
  _atom_site_fract_z
  _atom_site_occupancy
  Dy  Dy1       1.0  0.66700  0.33300  0.00000  1.0000
  Dy  Dy2       1.0  0.33300  0.66700  0.00000  1.0000
  Dy  Dy3       1.0  0.74000  0.74000  0.25000  1.0000
  Dy  Dy4       1.0  0.26000  0.00000  0.25000  1.0000
  Dy  Dy5       1.0  0.00000  0.26000  0.25000  1.0000
  Dy  Dy6       1.0  0.66700  0.33300  0.50000  1.0000
  Dy  Dy7       1.0  0.33300  0.66700  0.50000  1.0000
  Dy  Dy8       1.0  0.26000  0.26000  0.75000  1.0000
  Dy  Dy9       1.0  0.74000  0.00001  0.75000  1.0000
  Dy  Dy10      1.0  0.00001  0.74000  0.75000  1.0000
  Ir  Ir1       1.0  0.61000  0.00000  0.25000  1.0000
  Ir  Ir2       1.0  0.00000  0.61000  0.25000  1.0000
  Ir  Ir3       1.0  0.39000  0.39000  0.25000  1.0000
  Ir  Ir4       1.0  0.39000  1.00000  0.75000  1.0000
  Ir  Ir5       1.0  0.00000  0.39000  0.75000  1.0000
  Ir  Ir6       1.0  0.61000  0.61000  0.75000  1.0000
