data_image0
_chemical_formula_structural       B4Cr10P2
_chemical_formula_sum              "B4 Cr10 P2"
_cell_length_a       5.53591
_cell_length_b       5.53591
_cell_length_c       6.46804
_cell_angle_alpha    115.337
_cell_angle_beta     115.337
_cell_angle_gamma    90

_space_group_name_H-M_alt    "P 1"
_space_group_IT_number       1

loop_
  _space_group_symop_operation_xyz
  'x, y, z'

loop_
  _atom_site_type_symbol
  _atom_site_label
  _atom_site_symmetry_multiplicity
  _atom_site_fract_x
  _atom_site_fract_y
  _atom_site_fract_z
  _atom_site_occupancy
  B   B1        1.0  0.61800  0.11800  0.00000  1.0000
  B   B2        1.0  0.11800  0.38200  0.00000  1.0000
  B   B3        1.0  0.88200  0.61800  0.00000  1.0000
  B   B4        1.0  0.38200  0.88200  0.00000  1.0000
  Cr  Cr1       1.0  0.00000  0.00000  0.00000  1.0000
  Cr  Cr2       1.0  0.50000  0.50000  0.00000  1.0000
  Cr  Cr3       1.0  0.46900  0.30800  0.27700  1.0000
  Cr  Cr4       1.0  0.96900  0.46900  0.27700  1.0000
  Cr  Cr5       1.0  0.30800  0.80800  0.27700  1.0000
  Cr  Cr6       1.0  0.80800  0.96900  0.27700  1.0000
  Cr  Cr7       1.0  0.19200  0.03050  0.72300  1.0000
  Cr  Cr8       1.0  0.69200  0.19200  0.72300  1.0000
  Cr  Cr9       1.0  0.03050  0.53100  0.72300  1.0000
  Cr  Cr10      1.0  0.53100  0.69200  0.72300  1.0000
  P   P1        1.0  0.25000  0.25000  0.50000  1.0000
  P   P2        1.0  0.75000  0.75000  0.50000  1.0000
