data_image0
_chemical_formula_structural       Ag2As2Cs4S8
_chemical_formula_sum              "Ag2 As2 Cs4 S8"
_cell_length_a       6.92378
_cell_length_b       7.28825
_cell_length_c       11.3541
_cell_angle_alpha    73.0829
_cell_angle_beta     74.1623
_cell_angle_gamma    71.1306

_space_group_name_H-M_alt    "P 1"
_space_group_IT_number       1

loop_
  _space_group_symop_operation_xyz
  'x, y, z'

loop_
  _atom_site_type_symbol
  _atom_site_label
  _atom_site_symmetry_multiplicity
  _atom_site_fract_x
  _atom_site_fract_y
  _atom_site_fract_z
  _atom_site_occupancy
  Ag  Ag1       1.0  0.63500  0.08680  0.07990  1.0000
  Ag  Ag2       1.0  0.36500  0.91300  0.92000  1.0000
  As  As1       1.0  0.13900  0.86600  0.23000  1.0000
  As  As2       1.0  0.86100  0.13400  0.77000  1.0000
  Cs  Cs1       1.0  0.76300  0.51700  0.18600  1.0000
  Cs  Cs2       1.0  0.26600  0.23700  0.40400  1.0000
  Cs  Cs3       1.0  0.73400  0.76300  0.59600  1.0000
  Cs  Cs4       1.0  0.23700  0.48300  0.81400  1.0000
  S   S1        1.0  0.26100  0.64400  0.11300  1.0000
  S   S2        1.0  0.24100  0.13700  0.12000  1.0000
  S   S3        1.0  0.79300  0.94800  0.27100  1.0000
  S   S4        1.0  0.25100  0.74200  0.40600  1.0000
  S   S5        1.0  0.74900  0.25800  0.59400  1.0000
  S   S6        1.0  0.20700  0.05190  0.72900  1.0000
  S   S7        1.0  0.75900  0.86300  0.88000  1.0000
  S   S8        1.0  0.73900  0.35600  0.88700  1.0000
