data_image0
_chemical_formula_structural       Cu4S8Tm4
_chemical_formula_sum              "Cu4 S8 Tm4"
_cell_length_a       13.2753
_cell_length_b       3.90661
_cell_length_c       6.2126
_cell_angle_alpha    90
_cell_angle_beta     90
_cell_angle_gamma    90

_space_group_name_H-M_alt    "P 1"
_space_group_IT_number       1

loop_
  _space_group_symop_operation_xyz
  'x, y, z'

loop_
  _atom_site_type_symbol
  _atom_site_label
  _atom_site_symmetry_multiplicity
  _atom_site_fract_x
  _atom_site_fract_y
  _atom_site_fract_z
  _atom_site_occupancy
  Cu  Cu1       1.0  0.95200  0.25000  0.12400  1.0000
  Cu  Cu2       1.0  0.45200  0.25000  0.37600  1.0000
  Cu  Cu3       1.0  0.54800  0.75000  0.62400  1.0000
  Cu  Cu4       1.0  0.04820  0.75000  0.87600  1.0000
  S   S1        1.0  0.29200  0.25000  0.23300  1.0000
  S   S2        1.0  0.53900  0.75000  0.24400  1.0000
  S   S3        1.0  0.03930  0.75000  0.25600  1.0000
  S   S4        1.0  0.79200  0.25000  0.26700  1.0000
  S   S5        1.0  0.20800  0.75000  0.73300  1.0000
  S   S6        1.0  0.96100  0.25000  0.74400  1.0000
  S   S7        1.0  0.46100  0.25000  0.75600  1.0000
  S   S8        1.0  0.70800  0.75000  0.76700  1.0000
  Tm  Tm1       1.0  0.63300  0.25000  0.99900  1.0000
  Tm  Tm2       1.0  0.36700  0.75000  0.00074  1.0000
  Tm  Tm3       1.0  0.86700  0.75000  0.49900  1.0000
  Tm  Tm4       1.0  0.13300  0.25000  0.50100  1.0000
