data_image0
_chemical_formula_structural       Ba4S8Sn4
_chemical_formula_sum              "Ba4 S8 Sn4"
_cell_length_a       6.17442
_cell_length_b       12.3729
_cell_length_c       6.34409
_cell_angle_alpha    90
_cell_angle_beta     95.5602
_cell_angle_gamma    90

_space_group_name_H-M_alt    "P 1"
_space_group_IT_number       1

loop_
  _space_group_symop_operation_xyz
  'x, y, z'

loop_
  _atom_site_type_symbol
  _atom_site_label
  _atom_site_symmetry_multiplicity
  _atom_site_fract_x
  _atom_site_fract_y
  _atom_site_fract_z
  _atom_site_occupancy
  Ba  Ba1       1.0  0.94200  0.87900  0.23700  1.0000
  Ba  Ba2       1.0  0.05790  0.37900  0.26300  1.0000
  Ba  Ba3       1.0  0.94200  0.62100  0.73700  1.0000
  Ba  Ba4       1.0  0.05790  0.12100  0.76300  1.0000
  S   S1        1.0  0.43400  0.83800  0.11400  1.0000
  S   S2        1.0  0.88300  0.62400  0.23100  1.0000
  S   S3        1.0  0.11700  0.12400  0.26900  1.0000
  S   S4        1.0  0.56600  0.33800  0.38600  1.0000
  S   S5        1.0  0.43400  0.66200  0.61400  1.0000
  S   S6        1.0  0.88300  0.87600  0.73100  1.0000
  S   S7        1.0  0.11700  0.37600  0.76900  1.0000
  S   S8        1.0  0.56600  0.16200  0.88600  1.0000
  Sn  Sn1       1.0  0.46400  0.63200  0.20600  1.0000
  Sn  Sn2       1.0  0.53600  0.13200  0.29400  1.0000
  Sn  Sn3       1.0  0.46400  0.86800  0.70600  1.0000
  Sn  Sn4       1.0  0.53600  0.36800  0.79400  1.0000
