data_image0
_chemical_formula_structural       Cs2F10Pd4
_chemical_formula_sum              "Cs2 F10 Pd4"
_cell_length_a       6.08013
_cell_length_b       7.30071
_cell_length_c       7.30071
_cell_angle_alpha    93.5079
_cell_angle_beta     114.608
_cell_angle_gamma    114.608

_space_group_name_H-M_alt    "P 1"
_space_group_IT_number       1

loop_
  _space_group_symop_operation_xyz
  'x, y, z'

loop_
  _atom_site_type_symbol
  _atom_site_label
  _atom_site_symmetry_multiplicity
  _atom_site_fract_x
  _atom_site_fract_y
  _atom_site_fract_z
  _atom_site_occupancy
  Cs  Cs1       1.0  0.75000  0.36600  0.13400  1.0000
  Cs  Cs2       1.0  0.25000  0.63400  0.86600  1.0000
  F   F1        1.0  0.25000  0.32800  0.17200  1.0000
  F   F2        1.0  0.33300  0.95100  0.18900  1.0000
  F   F3        1.0  0.80700  0.95100  0.18900  1.0000
  F   F4        1.0  0.30700  0.68900  0.45100  1.0000
  F   F5        1.0  0.83300  0.68900  0.45100  1.0000
  F   F6        1.0  0.16700  0.31100  0.54900  1.0000
  F   F7        1.0  0.69300  0.31100  0.54900  1.0000
  F   F8        1.0  0.19300  0.04920  0.81100  1.0000
  F   F9        1.0  0.66700  0.04920  0.81100  1.0000
  F   F10       1.0  0.75000  0.67200  0.82800  1.0000
  Pd  Pd1       1.0  0.00000  0.00000  0.00000  1.0000
  Pd  Pd2       1.0  0.50000  0.50000  0.50000  1.0000
  Pd  Pd3       1.0  0.00000  0.00000  0.50000  1.0000
  Pd  Pd4       1.0  0.50000  0.00000  0.50000  1.0000
