data_image0
_chemical_formula_structural       Dy10Ga6
_chemical_formula_sum              "Dy10 Ga6"
_cell_length_a       7.60133
_cell_length_b       7.60133
_cell_length_c       8.89999
_cell_angle_alpha    115.28
_cell_angle_beta     115.28
_cell_angle_gamma    90

_space_group_name_H-M_alt    "P 1"
_space_group_IT_number       1

loop_
  _space_group_symop_operation_xyz
  'x, y, z'

loop_
  _atom_site_type_symbol
  _atom_site_label
  _atom_site_symmetry_multiplicity
  _atom_site_fract_x
  _atom_site_fract_y
  _atom_site_fract_z
  _atom_site_occupancy
  Dy  Dy1       1.0  0.00000  0.00000  0.00000  1.0000
  Dy  Dy2       1.0  0.50000  0.50000  0.00000  1.0000
  Dy  Dy3       1.0  0.47700  0.31800  0.29500  1.0000
  Dy  Dy4       1.0  0.97700  0.47700  0.29500  1.0000
  Dy  Dy5       1.0  0.31800  0.81800  0.29500  1.0000
  Dy  Dy6       1.0  0.81800  0.97700  0.29500  1.0000
  Dy  Dy7       1.0  0.18200  0.02300  0.70500  1.0000
  Dy  Dy8       1.0  0.68200  0.18200  0.70500  1.0000
  Dy  Dy9       1.0  0.02300  0.52300  0.70500  1.0000
  Dy  Dy10      1.0  0.52300  0.68200  0.70500  1.0000
  Ga  Ga1       1.0  0.62200  0.12200  0.00000  1.0000
  Ga  Ga2       1.0  0.12200  0.37800  0.00000  1.0000
  Ga  Ga3       1.0  0.87800  0.62200  0.00000  1.0000
  Ga  Ga4       1.0  0.37800  0.87800  0.00000  1.0000
  Ga  Ga5       1.0  0.25000  0.25000  0.50000  1.0000
  Ga  Ga6       1.0  0.75000  0.75000  0.50000  1.0000
