data_image0
_chemical_formula_structural       F12K2Nb2
_chemical_formula_sum              "F12 K2 Nb2"
_cell_length_a       5.00891
_cell_length_b       5.00891
_cell_length_c       9.45507
_cell_angle_alpha    90
_cell_angle_beta     90
_cell_angle_gamma    90

_space_group_name_H-M_alt    "P 1"
_space_group_IT_number       1

loop_
  _space_group_symop_operation_xyz
  'x, y, z'

loop_
  _atom_site_type_symbol
  _atom_site_label
  _atom_site_symmetry_multiplicity
  _atom_site_fract_x
  _atom_site_fract_y
  _atom_site_fract_z
  _atom_site_occupancy
  F   F1        1.0  0.19700  0.18200  0.10500  1.0000
  F   F2        1.0  0.80300  0.81800  0.10500  1.0000
  F   F3        1.0  0.72500  0.27500  0.25000  1.0000
  F   F4        1.0  0.27500  0.72500  0.25000  1.0000
  F   F5        1.0  0.18200  0.19700  0.39500  1.0000
  F   F6        1.0  0.81800  0.80300  0.39500  1.0000
  F   F7        1.0  0.80300  0.18200  0.60500  1.0000
  F   F8        1.0  0.19700  0.81800  0.60500  1.0000
  F   F9        1.0  0.27500  0.27500  0.75000  1.0000
  F   F10       1.0  0.72500  0.72500  0.75000  1.0000
  F   F11       1.0  0.81800  0.19700  0.89500  1.0000
  F   F12       1.0  0.18200  0.80300  0.89500  1.0000
  K   K1        1.0  0.50000  0.50000  0.00000  1.0000
  K   K2        1.0  0.50000  0.50000  0.50000  1.0000
  Nb  Nb1       1.0  0.00000  0.00000  0.25000  1.0000
  Nb  Nb2       1.0  0.00000  0.00000  0.75000  1.0000
