data_image0
_chemical_formula_structural       Cs10Te6
_chemical_formula_sum              "Cs10 Te6"
_cell_length_a       7.14325
_cell_length_b       11.2561
_cell_length_c       11.2496
_cell_angle_alpha    95.7777
_cell_angle_beta     108.511
_cell_angle_gamma    71.5

_space_group_name_H-M_alt    "P 1"
_space_group_IT_number       1

loop_
  _space_group_symop_operation_xyz
  'x, y, z'

loop_
  _atom_site_type_symbol
  _atom_site_label
  _atom_site_symmetry_multiplicity
  _atom_site_fract_x
  _atom_site_fract_y
  _atom_site_fract_z
  _atom_site_occupancy
  Cs  Cs1       1.0  0.21600  0.69600  0.12900  1.0000
  Cs  Cs2       1.0  0.40900  0.31700  0.13400  1.0000
  Cs  Cs3       1.0  0.08800  0.12900  0.30500  1.0000
  Cs  Cs4       1.0  0.72500  0.86700  0.31700  1.0000
  Cs  Cs5       1.0  0.25000  0.50000  0.50000  1.0000
  Cs  Cs6       1.0  0.75000  0.50000  0.50000  1.0000
  Cs  Cs7       1.0  0.27500  0.13300  0.68300  1.0000
  Cs  Cs8       1.0  0.91200  0.87100  0.69500  1.0000
  Cs  Cs9       1.0  0.59100  0.68300  0.86600  1.0000
  Cs  Cs10      1.0  0.78400  0.30400  0.87100  1.0000
  Te  Te1       1.0  0.30200  0.00000  0.00000  1.0000
  Te  Te2       1.0  0.69800  0.00000  0.00000  1.0000
  Te  Te3       1.0  0.84500  0.49800  0.18800  1.0000
  Te  Te4       1.0  0.34300  0.81200  0.49700  1.0000
  Te  Te5       1.0  0.65700  0.18800  0.50300  1.0000
  Te  Te6       1.0  0.15500  0.50200  0.81200  1.0000
