data_image0
_chemical_formula_structural       Cr2O10Ti4
_chemical_formula_sum              "Cr2 O10 Ti4"
_cell_length_a       5.09124
_cell_length_b       5.66167
_cell_length_c       7.01658
_cell_angle_alpha    108.468
_cell_angle_beta     90
_cell_angle_gamma    116.72

_space_group_name_H-M_alt    "P 1"
_space_group_IT_number       1

loop_
  _space_group_symop_operation_xyz
  'x, y, z'

loop_
  _atom_site_type_symbol
  _atom_site_label
  _atom_site_symmetry_multiplicity
  _atom_site_fract_x
  _atom_site_fract_y
  _atom_site_fract_z
  _atom_site_occupancy
  Cr  Cr1       1.0  0.00000  0.00000  0.00000  1.0000
  Cr  Cr2       1.0  0.00000  0.00000  0.50000  1.0000
  O   O1        1.0  0.57500  0.83500  0.05400  1.0000
  O   O2        1.0  0.02720  0.38100  0.15600  1.0000
  O   O3        1.0  0.20500  0.00000  0.25000  1.0000
  O   O4        1.0  0.64700  0.61900  0.34400  1.0000
  O   O5        1.0  0.74000  0.16500  0.44600  1.0000
  O   O6        1.0  0.26000  0.83500  0.55400  1.0000
  O   O7        1.0  0.35300  0.38100  0.65600  1.0000
  O   O8        1.0  0.79500  0.00000  0.75000  1.0000
  O   O9        1.0  0.97300  0.61900  0.84400  1.0000
  O   O10       1.0  0.42500  0.16500  0.94600  1.0000
  Ti  Ti1       1.0  0.63000  0.26700  0.22400  1.0000
  Ti  Ti2       1.0  0.36300  0.73300  0.27600  1.0000
  Ti  Ti3       1.0  0.63700  0.26700  0.72400  1.0000
  Ti  Ti4       1.0  0.37000  0.73300  0.77600  1.0000
