data_image0
_chemical_formula_structural       Cu6P2S8
_chemical_formula_sum              "Cu6 P2 S8"
_cell_length_a       6.32947
_cell_length_b       7.26686
_cell_length_c       6.07341
_cell_angle_alpha    90
_cell_angle_beta     90
_cell_angle_gamma    90

_space_group_name_H-M_alt    "P 1"
_space_group_IT_number       1

loop_
  _space_group_symop_operation_xyz
  'x, y, z'

loop_
  _atom_site_type_symbol
  _atom_site_label
  _atom_site_symmetry_multiplicity
  _atom_site_fract_x
  _atom_site_fract_y
  _atom_site_fract_z
  _atom_site_occupancy
  Cu  Cu1       1.0  0.32600  0.24800  0.00055  1.0000
  Cu  Cu2       1.0  0.32600  0.75200  0.00055  1.0000
  Cu  Cu3       1.0  0.15300  0.00000  0.49600  1.0000
  Cu  Cu4       1.0  0.67400  0.25200  0.50100  1.0000
  Cu  Cu5       1.0  0.67400  0.74800  0.50100  1.0000
  Cu  Cu6       1.0  0.84700  0.50000  0.99600  1.0000
  P   P1        1.0  0.17300  0.50000  0.49200  1.0000
  P   P2        1.0  0.82700  0.00000  0.99200  1.0000
  S   S1        1.0  0.82300  0.00000  0.33700  1.0000
  S   S2        1.0  0.86300  0.50000  0.37300  1.0000
  S   S3        1.0  0.33100  0.26300  0.37600  1.0000
  S   S4        1.0  0.33100  0.73700  0.37600  1.0000
  S   S5        1.0  0.17700  0.50000  0.83700  1.0000
  S   S6        1.0  0.13700  0.00000  0.87300  1.0000
  S   S7        1.0  0.66900  0.23700  0.87600  1.0000
  S   S8        1.0  0.66900  0.76300  0.87600  1.0000
