data_image0
_chemical_formula_structural       Dy10Sn6
_chemical_formula_sum              "Dy10 Sn6"
_cell_length_a       8.94956
_cell_length_b       8.94956
_cell_length_c       6.54062
_cell_angle_alpha    90
_cell_angle_beta     90
_cell_angle_gamma    119.999

_space_group_name_H-M_alt    "P 1"
_space_group_IT_number       1

loop_
  _space_group_symop_operation_xyz
  'x, y, z'

loop_
  _atom_site_type_symbol
  _atom_site_label
  _atom_site_symmetry_multiplicity
  _atom_site_fract_x
  _atom_site_fract_y
  _atom_site_fract_z
  _atom_site_occupancy
  Dy  Dy1       1.0  0.66700  0.33300  0.00000  1.0000
  Dy  Dy2       1.0  0.33300  0.66700  0.00000  1.0000
  Dy  Dy3       1.0  0.76200  0.76200  0.25000  1.0000
  Dy  Dy4       1.0  0.23800  0.00000  0.25000  1.0000
  Dy  Dy5       1.0  0.00000  0.23800  0.25000  1.0000
  Dy  Dy6       1.0  0.66700  0.33300  0.50000  1.0000
  Dy  Dy7       1.0  0.33300  0.66700  0.50000  1.0000
  Dy  Dy8       1.0  0.23800  0.23800  0.75000  1.0000
  Dy  Dy9       1.0  0.76200  0.00000  0.75000  1.0000
  Dy  Dy10      1.0  0.00000  0.76200  0.75000  1.0000
  Sn  Sn1       1.0  0.60500  0.00000  0.25000  1.0000
  Sn  Sn2       1.0  0.00000  0.60500  0.25000  1.0000
  Sn  Sn3       1.0  0.39500  0.39500  0.25000  1.0000
  Sn  Sn4       1.0  0.39500  0.00000  0.75000  1.0000
  Sn  Sn5       1.0  0.00000  0.39500  0.75000  1.0000
  Sn  Sn6       1.0  0.60500  0.60500  0.75000  1.0000
