data_image0
_chemical_formula_structural       S8Sb4Tl4
_chemical_formula_sum              "S8 Sb4 Tl4"
_cell_length_a       6.25898
_cell_length_b       6.51136
_cell_length_c       11.9482
_cell_angle_alpha    101.476
_cell_angle_beta     97.4368
_cell_angle_gamma    104.388

_space_group_name_H-M_alt    "P 1"
_space_group_IT_number       1

loop_
  _space_group_symop_operation_xyz
  'x, y, z'

loop_
  _atom_site_type_symbol
  _atom_site_label
  _atom_site_symmetry_multiplicity
  _atom_site_fract_x
  _atom_site_fract_y
  _atom_site_fract_z
  _atom_site_occupancy
  S   S1        1.0  0.41500  0.81700  0.09350  1.0000
  S   S2        1.0  0.00117  0.21700  0.17600  1.0000
  S   S3        1.0  0.98100  0.81400  0.36300  1.0000
  S   S4        1.0  0.63200  0.21400  0.38100  1.0000
  S   S5        1.0  0.36800  0.78600  0.61900  1.0000
  S   S6        1.0  0.01860  0.18600  0.63700  1.0000
  S   S7        1.0  0.99900  0.78300  0.82400  1.0000
  S   S8        1.0  0.58500  0.18300  0.90700  1.0000
  Sb  Sb1       1.0  0.59900  0.21000  0.15600  1.0000
  Sb  Sb2       1.0  0.03160  0.21000  0.40600  1.0000
  Sb  Sb3       1.0  0.96800  0.79000  0.59400  1.0000
  Sb  Sb4       1.0  0.40100  0.79000  0.84400  1.0000
  Tl  Tl1       1.0  0.90100  0.72300  0.08560  1.0000
  Tl  Tl2       1.0  0.43600  0.69800  0.33700  1.0000
  Tl  Tl3       1.0  0.56400  0.30200  0.66300  1.0000
  Tl  Tl4       1.0  0.09860  0.27700  0.91400  1.0000
