data_image0
_chemical_formula_structural       Al2I12Sb2
_chemical_formula_sum              "Al2 I12 Sb2"
_cell_length_a       7.87429
_cell_length_b       10.8488
_cell_length_c       10.8488
_cell_angle_alpha    100.765
_cell_angle_beta     109.216
_cell_angle_gamma    70.7838

_space_group_name_H-M_alt    "P 1"
_space_group_IT_number       1

loop_
  _space_group_symop_operation_xyz
  'x, y, z'

loop_
  _atom_site_type_symbol
  _atom_site_label
  _atom_site_symmetry_multiplicity
  _atom_site_fract_x
  _atom_site_fract_y
  _atom_site_fract_z
  _atom_site_occupancy
  Al  Al1       1.0  0.34900  0.80300  0.19700  1.0000
  Al  Al2       1.0  0.65100  0.19700  0.80300  1.0000
  I   I1        1.0  0.57200  0.28000  0.02590  1.0000
  I   I2        1.0  0.98800  0.85700  0.14300  1.0000
  I   I3        1.0  0.07650  0.42700  0.21500  1.0000
  I   I4        1.0  0.42800  0.02590  0.28000  1.0000
  I   I5        1.0  0.53000  0.63800  0.36200  1.0000
  I   I6        1.0  0.92300  0.21500  0.42700  1.0000
  I   I7        1.0  0.07650  0.78500  0.57300  1.0000
  I   I8        1.0  0.47000  0.36200  0.63800  1.0000
  I   I9        1.0  0.57200  0.97400  0.72000  1.0000
  I   I10       1.0  0.92300  0.57300  0.78500  1.0000
  I   I11       1.0  0.01240  0.14300  0.85700  1.0000
  I   I12       1.0  0.42800  0.72000  0.97400  1.0000
  Sb  Sb1       1.0  0.00000  0.19100  0.19100  1.0000
  Sb  Sb2       1.0  0.00000  0.80900  0.80900  1.0000
