data_image0
_chemical_formula_structural       Mn6Si6V4
_chemical_formula_sum              "Mn6 Si6 V4"
_cell_length_a       7.04357
_cell_length_b       7.04357
_cell_length_c       4.76435
_cell_angle_alpha    90
_cell_angle_beta     90
_cell_angle_gamma    119.975

_space_group_name_H-M_alt    "P 1"
_space_group_IT_number       1

loop_
  _space_group_symop_operation_xyz
  'x, y, z'

loop_
  _atom_site_type_symbol
  _atom_site_label
  _atom_site_symmetry_multiplicity
  _atom_site_fract_x
  _atom_site_fract_y
  _atom_site_fract_z
  _atom_site_occupancy
  Mn  Mn1       1.0  0.73700  0.73700  0.25000  1.0000
  Mn  Mn2       1.0  0.26300  0.00001  0.25000  1.0000
  Mn  Mn3       1.0  0.00002  0.26300  0.25000  1.0000
  Mn  Mn4       1.0  0.26300  0.26300  0.75000  1.0000
  Mn  Mn5       1.0  0.73700  0.00000  0.75000  1.0000
  Mn  Mn6       1.0  0.00000  0.73700  0.75000  1.0000
  Si  Si1       1.0  0.38100  0.38100  0.25000  1.0000
  Si  Si2       1.0  0.62000  0.00000  0.25000  1.0000
  Si  Si3       1.0  0.00000  0.62000  0.25000  1.0000
  Si  Si4       1.0  0.38000  0.00004  0.75000  1.0000
  Si  Si5       1.0  0.00004  0.38000  0.75000  1.0000
  Si  Si6       1.0  0.61900  0.61900  0.75000  1.0000
  V   V1        1.0  0.66700  0.33300  0.00000  1.0000
  V   V2        1.0  0.33300  0.66700  0.00000  1.0000
  V   V3        1.0  0.66700  0.33300  0.50000  1.0000
  V   V4        1.0  0.33300  0.66700  0.50000  1.0000
