data_image0
_chemical_formula_structural       Br4Cs4I8
_chemical_formula_sum              "Br4 Cs4 I8"
_cell_length_a       6.86403
_cell_length_b       11.078
_cell_length_c       9.91517
_cell_angle_alpha    90
_cell_angle_beta     90
_cell_angle_gamma    90

_space_group_name_H-M_alt    "P 1"
_space_group_IT_number       1

loop_
  _space_group_symop_operation_xyz
  'x, y, z'

loop_
  _atom_site_type_symbol
  _atom_site_label
  _atom_site_symmetry_multiplicity
  _atom_site_fract_x
  _atom_site_fract_y
  _atom_site_fract_z
  _atom_site_occupancy
  Br  Br1       1.0  0.25000  0.66700  0.12600  1.0000
  Br  Br2       1.0  0.25000  0.16700  0.37400  1.0000
  Br  Br3       1.0  0.75000  0.83300  0.62600  1.0000
  Br  Br4       1.0  0.75000  0.33300  0.87400  1.0000
  Cs  Cs1       1.0  0.25000  0.33300  0.04890  1.0000
  Cs  Cs2       1.0  0.25000  0.83300  0.45100  1.0000
  Cs  Cs3       1.0  0.75000  0.16700  0.54900  1.0000
  Cs  Cs4       1.0  0.75000  0.66700  0.95100  1.0000
  I   I1        1.0  0.75000  0.13200  0.05350  1.0000
  I   I2        1.0  0.75000  0.93100  0.23400  1.0000
  I   I3        1.0  0.75000  0.43100  0.26600  1.0000
  I   I4        1.0  0.75000  0.63200  0.44600  1.0000
  I   I5        1.0  0.25000  0.36800  0.55400  1.0000
  I   I6        1.0  0.25000  0.56900  0.73400  1.0000
  I   I7        1.0  0.25000  0.06920  0.76600  1.0000
  I   I8        1.0  0.25000  0.86800  0.94600  1.0000
