data_image0
_chemical_formula_structural       As4Cu2K10
_chemical_formula_sum              "As4 Cu2 K10"
_cell_length_a       5.75408
_cell_length_b       5.75414
_cell_length_c       18.8787
_cell_angle_alpha    90
_cell_angle_beta     90
_cell_angle_gamma    120

_space_group_name_H-M_alt    "P 1"
_space_group_IT_number       1

loop_
  _space_group_symop_operation_xyz
  'x, y, z'

loop_
  _atom_site_type_symbol
  _atom_site_label
  _atom_site_symmetry_multiplicity
  _atom_site_fract_x
  _atom_site_fract_y
  _atom_site_fract_z
  _atom_site_occupancy
  As  As1       1.0  0.33300  0.66700  0.12600  1.0000
  As  As2       1.0  0.33300  0.66700  0.37400  1.0000
  As  As3       1.0  0.66700  0.33300  0.62600  1.0000
  As  As4       1.0  0.66700  0.33300  0.87400  1.0000
  Cu  Cu1       1.0  0.33300  0.66700  0.25000  1.0000
  Cu  Cu2       1.0  0.66700  0.33300  0.75000  1.0000
  K   K1        1.0  0.66700  0.33300  0.04960  1.0000
  K   K2        1.0  0.00000  0.00000  0.14600  1.0000
  K   K3        1.0  0.66700  0.33300  0.25000  1.0000
  K   K4        1.0  0.00000  0.00000  0.35400  1.0000
  K   K5        1.0  0.66700  0.33300  0.45000  1.0000
  K   K6        1.0  0.33300  0.66700  0.55000  1.0000
  K   K7        1.0  0.00001  0.00001  0.64600  1.0000
  K   K8        1.0  0.33300  0.66700  0.75000  1.0000
  K   K9        1.0  0.00001  0.00001  0.85400  1.0000
  K   K10       1.0  0.33300  0.66700  0.95000  1.0000
