data_image0
_chemical_formula_structural       Rb4Sn2Te10
_chemical_formula_sum              "Rb4 Sn2 Te10"
_cell_length_a       8.87408
_cell_length_b       8.87408
_cell_length_c       10.0443
_cell_angle_alpha    116.215
_cell_angle_beta     116.215
_cell_angle_gamma    90

_space_group_name_H-M_alt    "P 1"
_space_group_IT_number       1

loop_
  _space_group_symop_operation_xyz
  'x, y, z'

loop_
  _atom_site_type_symbol
  _atom_site_label
  _atom_site_symmetry_multiplicity
  _atom_site_fract_x
  _atom_site_fract_y
  _atom_site_fract_z
  _atom_site_occupancy
  Rb  Rb1       1.0  0.24600  0.24600  0.49200  1.0000
  Rb  Rb2       1.0  0.74600  0.74600  0.49200  1.0000
  Rb  Rb3       1.0  0.49600  0.49600  0.99100  1.0000
  Rb  Rb4       1.0  0.99600  0.99600  0.99100  1.0000
  Sn  Sn1       1.0  0.74700  0.24700  0.49400  1.0000
  Sn  Sn2       1.0  0.24700  0.74700  0.49400  1.0000
  Te  Te1       1.0  0.80800  0.30800  0.26700  1.0000
  Te  Te2       1.0  0.30800  0.45900  0.26700  1.0000
  Te  Te3       1.0  0.95900  0.80800  0.26700  1.0000
  Te  Te4       1.0  0.45900  0.95900  0.26700  1.0000
  Te  Te5       1.0  0.53500  0.03480  0.72000  1.0000
  Te  Te6       1.0  0.03480  0.18600  0.72000  1.0000
  Te  Te7       1.0  0.68600  0.53500  0.72000  1.0000
  Te  Te8       1.0  0.18600  0.68600  0.72000  1.0000
  Te  Te9       1.0  0.99700  0.49700  0.99400  1.0000
  Te  Te10      1.0  0.49700  0.99700  0.99400  1.0000
