data_image0
_chemical_formula_structural       Ni4Y12
_chemical_formula_sum              "Ni4 Y12"
_cell_length_a       6.86825
_cell_length_b       9.62027
_cell_length_c       6.35395
_cell_angle_alpha    90
_cell_angle_beta     90
_cell_angle_gamma    90

_space_group_name_H-M_alt    "P 1"
_space_group_IT_number       1

loop_
  _space_group_symop_operation_xyz
  'x, y, z'

loop_
  _atom_site_type_symbol
  _atom_site_label
  _atom_site_symmetry_multiplicity
  _atom_site_fract_x
  _atom_site_fract_y
  _atom_site_fract_z
  _atom_site_occupancy
  Ni  Ni1       1.0  0.89100  0.25000  0.05320  1.0000
  Ni  Ni2       1.0  0.39100  0.25000  0.44700  1.0000
  Ni  Ni3       1.0  0.60900  0.75000  0.55300  1.0000
  Ni  Ni4       1.0  0.10900  0.75000  0.94700  1.0000
  Y   Y1        1.0  0.46700  0.75000  0.14000  1.0000
  Y   Y2        1.0  0.17800  0.06630  0.17900  1.0000
  Y   Y3        1.0  0.17800  0.43400  0.17900  1.0000
  Y   Y4        1.0  0.67800  0.06630  0.32100  1.0000
  Y   Y5        1.0  0.67800  0.43400  0.32100  1.0000
  Y   Y6        1.0  0.96700  0.75000  0.36000  1.0000
  Y   Y7        1.0  0.03320  0.25000  0.64000  1.0000
  Y   Y8        1.0  0.32200  0.56600  0.67900  1.0000
  Y   Y9        1.0  0.32200  0.93400  0.67900  1.0000
  Y   Y10       1.0  0.82200  0.56600  0.82100  1.0000
  Y   Y11       1.0  0.82200  0.93400  0.82100  1.0000
  Y   Y12       1.0  0.53300  0.25000  0.86000  1.0000
