data_image0
_chemical_formula_structural       B8Hf2Ir6
_chemical_formula_sum              "B8 Hf2 Ir6"
_cell_length_a       7.61309
_cell_length_b       7.61305
_cell_length_c       3.51894
_cell_angle_alpha    90
_cell_angle_beta     90
_cell_angle_gamma    120

_space_group_name_H-M_alt    "P 1"
_space_group_IT_number       1

loop_
  _space_group_symop_operation_xyz
  'x, y, z'

loop_
  _atom_site_type_symbol
  _atom_site_label
  _atom_site_symmetry_multiplicity
  _atom_site_fract_x
  _atom_site_fract_y
  _atom_site_fract_z
  _atom_site_occupancy
  B   B1        1.0  0.00000  0.00000  0.00000  1.0000
  B   B2        1.0  0.39800  0.44900  0.25000  1.0000
  B   B3        1.0  0.05070  0.60200  0.25000  1.0000
  B   B4        1.0  0.55100  0.94900  0.25000  1.0000
  B   B5        1.0  0.00000  0.00000  0.50000  1.0000
  B   B6        1.0  0.44900  0.05070  0.75000  1.0000
  B   B7        1.0  0.94900  0.39800  0.75000  1.0000
  B   B8        1.0  0.60200  0.55100  0.75000  1.0000
  Hf  Hf1       1.0  0.66700  0.33300  0.25000  1.0000
  Hf  Hf2       1.0  0.33300  0.66700  0.75000  1.0000
  Ir  Ir1       1.0  0.07550  0.33200  0.25000  1.0000
  Ir  Ir2       1.0  0.66800  0.74300  0.25000  1.0000
  Ir  Ir3       1.0  0.25700  0.92500  0.25000  1.0000
  Ir  Ir4       1.0  0.74300  0.07550  0.75000  1.0000
  Ir  Ir5       1.0  0.33200  0.25700  0.75000  1.0000
  Ir  Ir6       1.0  0.92500  0.66800  0.75000  1.0000
