data_image0
_chemical_formula_structural       F12K2Sb2
_chemical_formula_sum              "F12 K2 Sb2"
_cell_length_a       4.9782
_cell_length_b       4.9782
_cell_length_c       9.45138
_cell_angle_alpha    90
_cell_angle_beta     90
_cell_angle_gamma    90

_space_group_name_H-M_alt    "P 1"
_space_group_IT_number       1

loop_
  _space_group_symop_operation_xyz
  'x, y, z'

loop_
  _atom_site_type_symbol
  _atom_site_label
  _atom_site_symmetry_multiplicity
  _atom_site_fract_x
  _atom_site_fract_y
  _atom_site_fract_z
  _atom_site_occupancy
  F   F1        1.0  0.18900  0.18900  0.10800  1.0000
  F   F2        1.0  0.81100  0.81100  0.10800  1.0000
  F   F3        1.0  0.72700  0.27300  0.25100  1.0000
  F   F4        1.0  0.27300  0.72700  0.25100  1.0000
  F   F5        1.0  0.18900  0.18900  0.39400  1.0000
  F   F6        1.0  0.81100  0.81100  0.39400  1.0000
  F   F7        1.0  0.81100  0.18900  0.60600  1.0000
  F   F8        1.0  0.18900  0.81100  0.60600  1.0000
  F   F9        1.0  0.27300  0.27300  0.74900  1.0000
  F   F10       1.0  0.72700  0.72700  0.74900  1.0000
  F   F11       1.0  0.81100  0.18900  0.89200  1.0000
  F   F12       1.0  0.18900  0.81100  0.89200  1.0000
  K   K1        1.0  0.50000  0.50000  0.00000  1.0000
  K   K2        1.0  0.50000  0.50000  0.50000  1.0000
  Sb  Sb1       1.0  0.00000  0.00000  0.25100  1.0000
  Sb  Sb2       1.0  0.00000  0.00000  0.74900  1.0000
