data_image0
_chemical_formula_structural       Cs4S8Sb4
_chemical_formula_sum              "Cs4 S8 Sb4"
_cell_length_a       9.47002
_cell_length_b       9.83627
_cell_length_c       7.19998
_cell_angle_alpha    90
_cell_angle_beta     125.782
_cell_angle_gamma    90

_space_group_name_H-M_alt    "P 1"
_space_group_IT_number       1

loop_
  _space_group_symop_operation_xyz
  'x, y, z'

loop_
  _atom_site_type_symbol
  _atom_site_label
  _atom_site_symmetry_multiplicity
  _atom_site_fract_x
  _atom_site_fract_y
  _atom_site_fract_z
  _atom_site_occupancy
  Cs  Cs1       1.0  0.34900  0.43000  0.13700  1.0000
  Cs  Cs2       1.0  0.65100  0.93000  0.36300  1.0000
  Cs  Cs3       1.0  0.34900  0.07040  0.63700  1.0000
  Cs  Cs4       1.0  0.65100  0.57000  0.86300  1.0000
  S   S1        1.0  0.81500  0.92900  0.00781  1.0000
  S   S2        1.0  0.69300  0.25400  0.14800  1.0000
  S   S3        1.0  0.30700  0.75400  0.35200  1.0000
  S   S4        1.0  0.18500  0.42900  0.49200  1.0000
  S   S5        1.0  0.81500  0.57100  0.50800  1.0000
  S   S6        1.0  0.69300  0.24600  0.64800  1.0000
  S   S7        1.0  0.30700  0.74600  0.85200  1.0000
  S   S8        1.0  0.18500  0.07090  0.99200  1.0000
  Sb  Sb1       1.0  0.90400  0.16400  0.04630  1.0000
  Sb  Sb2       1.0  0.09550  0.66400  0.45400  1.0000
  Sb  Sb3       1.0  0.90400  0.33600  0.54600  1.0000
  Sb  Sb4       1.0  0.09550  0.83600  0.95400  1.0000
