data_image0
_chemical_formula_structural       N8U4V4
_chemical_formula_sum              "N8 U4 V4"
_cell_length_a       5.43565
_cell_length_b       3.13929
_cell_length_c       10.6418
_cell_angle_alpha    90
_cell_angle_beta     90
_cell_angle_gamma    90

_space_group_name_H-M_alt    "P 1"
_space_group_IT_number       1

loop_
  _space_group_symop_operation_xyz
  'x, y, z'

loop_
  _atom_site_type_symbol
  _atom_site_label
  _atom_site_symmetry_multiplicity
  _atom_site_fract_x
  _atom_site_fract_y
  _atom_site_fract_z
  _atom_site_occupancy
  N   N1        1.0  0.74100  0.25000  0.00728  1.0000
  N   N2        1.0  0.83300  0.75000  0.24600  1.0000
  N   N3        1.0  0.33300  0.75000  0.25400  1.0000
  N   N4        1.0  0.24100  0.25000  0.49300  1.0000
  N   N5        1.0  0.75900  0.75000  0.50700  1.0000
  N   N6        1.0  0.66700  0.25000  0.74600  1.0000
  N   N7        1.0  0.16700  0.25000  0.75400  1.0000
  N   N8        1.0  0.25900  0.75000  0.99300  1.0000
  U   U1        1.0  0.07700  0.25000  0.14300  1.0000
  U   U2        1.0  0.57700  0.25000  0.35700  1.0000
  U   U3        1.0  0.42300  0.75000  0.64300  1.0000
  U   U4        1.0  0.92300  0.75000  0.85700  1.0000
  V   V1        1.0  0.57400  0.75000  0.09770  1.0000
  V   V2        1.0  0.07350  0.75000  0.40200  1.0000
  V   V3        1.0  0.92600  0.25000  0.59800  1.0000
  V   V4        1.0  0.42600  0.25000  0.90200  1.0000
