data_image0
_chemical_formula_structural       Bi6Nd10
_chemical_formula_sum              "Bi6 Nd10"
_cell_length_a       9.48661
_cell_length_b       9.48661
_cell_length_c       6.57703
_cell_angle_alpha    90
_cell_angle_beta     90
_cell_angle_gamma    120

_space_group_name_H-M_alt    "P 1"
_space_group_IT_number       1

loop_
  _space_group_symop_operation_xyz
  'x, y, z'

loop_
  _atom_site_type_symbol
  _atom_site_label
  _atom_site_symmetry_multiplicity
  _atom_site_fract_x
  _atom_site_fract_y
  _atom_site_fract_z
  _atom_site_occupancy
  Bi  Bi1       1.0  0.38900  0.38900  0.25000  1.0000
  Bi  Bi2       1.0  0.61100  1.00000  0.25000  1.0000
  Bi  Bi3       1.0  0.00000  0.61100  0.25000  1.0000
  Bi  Bi4       1.0  0.61100  0.61100  0.75000  1.0000
  Bi  Bi5       1.0  0.38900  0.00000  0.75000  1.0000
  Bi  Bi6       1.0  0.00000  0.38900  0.75000  1.0000
  Nd  Nd1       1.0  0.66700  0.33300  0.00000  1.0000
  Nd  Nd2       1.0  0.33300  0.66700  0.00000  1.0000
  Nd  Nd3       1.0  0.24600  0.00001  0.25000  1.0000
  Nd  Nd4       1.0  0.00001  0.24600  0.25000  1.0000
  Nd  Nd5       1.0  0.75400  0.75400  0.25000  1.0000
  Nd  Nd6       1.0  0.66700  0.33300  0.50000  1.0000
  Nd  Nd7       1.0  0.33300  0.66700  0.50000  1.0000
  Nd  Nd8       1.0  0.75400  1.00000  0.75000  1.0000
  Nd  Nd9       1.0  0.00000  0.75400  0.75000  1.0000
  Nd  Nd10      1.0  0.24600  0.24600  0.75000  1.0000
