data_image0
_chemical_formula_structural       Rb4S8Sb4
_chemical_formula_sum              "Rb4 S8 Sb4"
_cell_length_a       6.64534
_cell_length_b       6.65738
_cell_length_c       12.621
_cell_angle_alpha    103.812
_cell_angle_beta     102.15
_cell_angle_gamma    104.348

_space_group_name_H-M_alt    "P 1"
_space_group_IT_number       1

loop_
  _space_group_symop_operation_xyz
  'x, y, z'

loop_
  _atom_site_type_symbol
  _atom_site_label
  _atom_site_symmetry_multiplicity
  _atom_site_fract_x
  _atom_site_fract_y
  _atom_site_fract_z
  _atom_site_occupancy
  Rb  Rb1       1.0  0.58900  0.33000  0.15400  1.0000
  Rb  Rb2       1.0  0.31400  0.63900  0.41900  1.0000
  Rb  Rb3       1.0  0.68600  0.36100  0.58100  1.0000
  Rb  Rb4       1.0  0.41100  0.67000  0.84600  1.0000
  S   S1        1.0  0.75100  0.82800  0.12400  1.0000
  S   S2        1.0  0.11300  0.46300  0.13200  1.0000
  S   S3        1.0  0.28900  0.05240  0.31700  1.0000
  S   S4        1.0  0.83500  0.71400  0.41000  1.0000
  S   S5        1.0  0.16500  0.28600  0.59000  1.0000
  S   S6        1.0  0.71100  0.94800  0.68300  1.0000
  S   S7        1.0  0.88700  0.53700  0.86800  1.0000
  S   S8        1.0  0.24900  0.17200  0.87600  1.0000
  Sb  Sb1       1.0  0.09380  0.79700  0.08770  1.0000
  Sb  Sb2       1.0  0.93200  0.03400  0.34700  1.0000
  Sb  Sb3       1.0  0.06770  0.96600  0.65300  1.0000
  Sb  Sb4       1.0  0.90600  0.20300  0.91200  1.0000
