data_image0
_chemical_formula_structural       Si6V10
_chemical_formula_sum              "Si6 V10"
_cell_length_a       4.70815
_cell_length_b       7.03909
_cell_length_c       7.03909
_cell_angle_alpha    96.4215
_cell_angle_beta     70.4622
_cell_angle_gamma    109.538

_space_group_name_H-M_alt    "P 1"
_space_group_IT_number       1

loop_
  _space_group_symop_operation_xyz
  'x, y, z'

loop_
  _atom_site_type_symbol
  _atom_site_label
  _atom_site_symmetry_multiplicity
  _atom_site_fract_x
  _atom_site_fract_y
  _atom_site_fract_z
  _atom_site_occupancy
  Si  Si1       1.0  0.25000  0.00000  0.00000  1.0000
  Si  Si2       1.0  0.75000  0.00000  0.00000  1.0000
  Si  Si3       1.0  0.16600  0.50000  0.16800  1.0000
  Si  Si4       1.0  0.33400  0.16800  0.50000  1.0000
  Si  Si5       1.0  0.66600  0.83200  0.50000  1.0000
  Si  Si6       1.0  0.83400  0.50000  0.83200  1.0000
  V   V1        1.0  0.77400  0.70000  0.15100  1.0000
  V   V2        1.0  0.57500  0.30000  0.15100  1.0000
  V   V3        1.0  0.27400  0.84900  0.30000  1.0000
  V   V4        1.0  0.92500  0.15100  0.30000  1.0000
  V   V5        1.0  0.25000  0.50000  0.50000  1.0000
  V   V6        1.0  0.75000  0.50000  0.50000  1.0000
  V   V7        1.0  0.72600  0.15100  0.70000  1.0000
  V   V8        1.0  0.07450  0.84900  0.70000  1.0000
  V   V9        1.0  0.22600  0.30000  0.84900  1.0000
  V   V10       1.0  0.42500  0.70000  0.84900  1.0000
