data_image0
_chemical_formula_structural       Cl2Fe2Li2Mo2O8
_chemical_formula_sum              "Cl2 Fe2 Li2 Mo2 O8"
_cell_length_a       7.03835
_cell_length_b       6.90362
_cell_length_c       4.98608
_cell_angle_alpha    90
_cell_angle_beta     91.4343
_cell_angle_gamma    90

_space_group_name_H-M_alt    "P 1"
_space_group_IT_number       1

loop_
  _space_group_symop_operation_xyz
  'x, y, z'

loop_
  _atom_site_type_symbol
  _atom_site_label
  _atom_site_symmetry_multiplicity
  _atom_site_fract_x
  _atom_site_fract_y
  _atom_site_fract_z
  _atom_site_occupancy
  Cl  Cl1       1.0  0.73100  0.75000  0.30800  1.0000
  Cl  Cl2       1.0  0.26900  0.25000  0.69200  1.0000
  Fe  Fe1       1.0  0.25000  0.25000  0.18500  1.0000
  Fe  Fe2       1.0  0.75000  0.75000  0.81500  1.0000
  Li  Li1       1.0  0.50000  0.00000  0.50000  1.0000
  Li  Li2       1.0  0.50000  0.50000  0.50000  1.0000
  Mo  Mo1       1.0  0.26200  0.75000  0.00058  1.0000
  Mo  Mo2       1.0  0.73800  0.25000  0.99900  1.0000
  O   O1        1.0  0.96200  0.25000  0.16100  1.0000
  O   O2        1.0  0.29000  0.54000  0.21000  1.0000
  O   O3        1.0  0.29000  0.96000  0.21000  1.0000
  O   O4        1.0  0.56300  0.25000  0.25700  1.0000
  O   O5        1.0  0.43700  0.75000  0.74300  1.0000
  O   O6        1.0  0.71000  0.04000  0.79000  1.0000
  O   O7        1.0  0.71000  0.46000  0.79000  1.0000
  O   O8        1.0  0.03830  0.75000  0.83900  1.0000
