data_image0
_chemical_formula_structural       C8Ce4Rh4
_chemical_formula_sum              "C8 Ce4 Rh4"
_cell_length_a       3.97363
_cell_length_b       3.97363
_cell_length_c       15.4052
_cell_angle_alpha    90
_cell_angle_beta     90
_cell_angle_gamma    90

_space_group_name_H-M_alt    "P 1"
_space_group_IT_number       1

loop_
  _space_group_symop_operation_xyz
  'x, y, z'

loop_
  _atom_site_type_symbol
  _atom_site_label
  _atom_site_symmetry_multiplicity
  _atom_site_fract_x
  _atom_site_fract_y
  _atom_site_fract_z
  _atom_site_occupancy
  C   C1        1.0  0.84700  0.34900  0.13800  1.0000
  C   C2        1.0  0.83600  0.15100  0.21000  1.0000
  C   C3        1.0  0.34900  0.15300  0.38800  1.0000
  C   C4        1.0  0.15100  0.16400  0.46000  1.0000
  C   C5        1.0  0.15300  0.65100  0.63800  1.0000
  C   C6        1.0  0.16400  0.84900  0.71000  1.0000
  C   C7        1.0  0.65100  0.84700  0.88800  1.0000
  C   C8        1.0  0.84900  0.83600  0.96000  1.0000
  Ce  Ce1       1.0  0.34900  0.35200  0.00000  1.0000
  Ce  Ce2       1.0  0.35200  0.65100  0.25000  1.0000
  Ce  Ce3       1.0  0.65100  0.64800  0.50000  1.0000
  Ce  Ce4       1.0  0.64800  0.34900  0.75000  1.0000
  Rh  Rh1       1.0  0.85300  0.84400  0.09410  1.0000
  Rh  Rh2       1.0  0.84400  0.14700  0.34400  1.0000
  Rh  Rh3       1.0  0.14700  0.15600  0.59400  1.0000
  Rh  Rh4       1.0  0.15600  0.85300  0.84400  1.0000
