data_image0
_chemical_formula_structural       Nb10Si6
_chemical_formula_sum              "Nb10 Si6"
_cell_length_a       6.60582
_cell_length_b       6.60582
_cell_length_c       7.57657
_cell_angle_alpha    115.845
_cell_angle_beta     115.845
_cell_angle_gamma    90

_space_group_name_H-M_alt    "P 1"
_space_group_IT_number       1

loop_
  _space_group_symop_operation_xyz
  'x, y, z'

loop_
  _atom_site_type_symbol
  _atom_site_label
  _atom_site_symmetry_multiplicity
  _atom_site_fract_x
  _atom_site_fract_y
  _atom_site_fract_z
  _atom_site_occupancy
  Nb  Nb1       1.0  0.00000  0.00000  0.00000  1.0000
  Nb  Nb2       1.0  0.50000  0.50000  0.00000  1.0000
  Nb  Nb3       1.0  0.48300  0.31600  0.29800  1.0000
  Nb  Nb4       1.0  0.98300  0.48300  0.29800  1.0000
  Nb  Nb5       1.0  0.31600  0.81600  0.29800  1.0000
  Nb  Nb6       1.0  0.81600  0.98300  0.29800  1.0000
  Nb  Nb7       1.0  0.18400  0.01720  0.70200  1.0000
  Nb  Nb8       1.0  0.68400  0.18400  0.70200  1.0000
  Nb  Nb9       1.0  0.01720  0.51700  0.70200  1.0000
  Nb  Nb10      1.0  0.51700  0.68400  0.70200  1.0000
  Si  Si1       1.0  0.62900  0.12900  0.00000  1.0000
  Si  Si2       1.0  0.12900  0.37100  0.00000  1.0000
  Si  Si3       1.0  0.87100  0.62900  0.00000  1.0000
  Si  Si4       1.0  0.37100  0.87100  0.00000  1.0000
  Si  Si5       1.0  0.25000  0.25000  0.50000  1.0000
  Si  Si6       1.0  0.75000  0.75000  0.50000  1.0000
