data_image0
_chemical_formula_structural       Ag2Cs4S8Sb2
_chemical_formula_sum              "Ag2 Cs4 S8 Sb2"
_cell_length_a       7.05039
_cell_length_b       7.46218
_cell_length_c       11.2214
_cell_angle_alpha    73.5032
_cell_angle_beta     75.766
_cell_angle_gamma    72.1316

_space_group_name_H-M_alt    "P 1"
_space_group_IT_number       1

loop_
  _space_group_symop_operation_xyz
  'x, y, z'

loop_
  _atom_site_type_symbol
  _atom_site_label
  _atom_site_symmetry_multiplicity
  _atom_site_fract_x
  _atom_site_fract_y
  _atom_site_fract_z
  _atom_site_occupancy
  Ag  Ag1       1.0  0.62000  0.09200  0.07210  1.0000
  Ag  Ag2       1.0  0.38000  0.90800  0.92800  1.0000
  Cs  Cs1       1.0  0.76500  0.51100  0.18800  1.0000
  Cs  Cs2       1.0  0.28200  0.24300  0.40600  1.0000
  Cs  Cs3       1.0  0.71800  0.75700  0.59400  1.0000
  Cs  Cs4       1.0  0.23500  0.48900  0.81200  1.0000
  S   S1        1.0  0.26700  0.63400  0.11000  1.0000
  S   S2        1.0  0.23500  0.15300  0.11800  1.0000
  S   S3        1.0  0.76900  0.94700  0.27000  1.0000
  S   S4        1.0  0.24500  0.73800  0.43000  1.0000
  S   S5        1.0  0.75500  0.26200  0.57000  1.0000
  S   S6        1.0  0.23100  0.05290  0.73000  1.0000
  S   S7        1.0  0.76500  0.84700  0.88200  1.0000
  S   S8        1.0  0.73300  0.36600  0.89000  1.0000
  Sb  Sb1       1.0  0.13000  0.86700  0.23600  1.0000
  Sb  Sb2       1.0  0.87000  0.13300  0.76400  1.0000
