data_image0
_chemical_formula_structural       C2Cl2H8N10
_chemical_formula_sum              "C2 Cl2 H8 N10"
_cell_length_a       4.90451
_cell_length_b       5.81231
_cell_length_c       9.34617
_cell_angle_alpha    92.368
_cell_angle_beta     95.6199
_cell_angle_gamma    65.0449

_space_group_name_H-M_alt    "P 1"
_space_group_IT_number       1

loop_
  _space_group_symop_operation_xyz
  'x, y, z'

loop_
  _atom_site_type_symbol
  _atom_site_label
  _atom_site_symmetry_multiplicity
  _atom_site_fract_x
  _atom_site_fract_y
  _atom_site_fract_z
  _atom_site_occupancy
  C   C1        1.0  0.49100  0.09680  0.06020  1.0000
  C   C2        1.0  0.58800  0.90300  0.56000  1.0000
  Cl  Cl1       1.0  0.15900  0.68400  0.25200  1.0000
  Cl  Cl2       1.0  0.84300  0.31600  0.75200  1.0000
  H   H1        1.0  0.47800  0.44600  0.08920  1.0000
  H   H2        1.0  0.25200  0.97300  0.18200  1.0000
  H   H3        1.0  0.18800  0.30100  0.19900  1.0000
  H   H4        1.0  0.95900  0.72300  0.44300  1.0000
  H   H5        1.0  0.92400  0.55400  0.58900  1.0000
  H   H6        1.0  0.22500  0.02700  0.68200  1.0000
  H   H7        1.0  0.48900  0.69900  0.69900  1.0000
  H   H8        1.0  0.68200  0.27700  0.94300  1.0000
  N   N1        1.0  0.57600  0.27800  0.03410  1.0000
  N   N2        1.0  0.29100  0.12600  0.15100  1.0000
  N   N3        1.0  0.78900  0.26900  0.37300  1.0000
  N   N4        1.0  0.65400  0.19100  0.43200  1.0000
  N   N5        1.0  0.47200  0.13800  0.49300  1.0000
  N   N6        1.0  0.85400  0.72200  0.53400  1.0000
  N   N7        1.0  0.41600  0.87400  0.65100  1.0000
  N   N8        1.0  0.05830  0.73100  0.87300  1.0000
  N   N9        1.0  0.84500  0.80900  0.93200  1.0000
  N   N10       1.0  0.61000  0.86200  0.99300  1.0000
