data_image0
_chemical_formula_structural       Cl6H8K2Mn2O4
_chemical_formula_sum              "Cl6 H8 K2 Mn2 O4"
_cell_length_a       6.41686
_cell_length_b       6.86924
_cell_length_c       9.83034
_cell_angle_alpha    96.5755
_cell_angle_beta     113.871
_cell_angle_gamma    112.935

_space_group_name_H-M_alt    "P 1"
_space_group_IT_number       1

loop_
  _space_group_symop_operation_xyz
  'x, y, z'

loop_
  _atom_site_type_symbol
  _atom_site_label
  _atom_site_symmetry_multiplicity
  _atom_site_fract_x
  _atom_site_fract_y
  _atom_site_fract_z
  _atom_site_occupancy
  Cl  Cl1       1.0  0.17800  0.33300  0.16700  1.0000
  Cl  Cl2       1.0  0.64200  0.88700  0.18600  1.0000
  Cl  Cl3       1.0  0.25800  0.71200  0.49900  1.0000
  Cl  Cl4       1.0  0.74200  0.28800  0.50100  1.0000
  Cl  Cl5       1.0  0.35800  0.11300  0.81400  1.0000
  Cl  Cl6       1.0  0.82200  0.66700  0.83300  1.0000
  H   H1        1.0  0.59300  0.30700  0.05390  1.0000
  H   H2        1.0  0.56400  0.41600  0.18900  1.0000
  H   H3        1.0  0.75700  0.81700  0.41100  1.0000
  H   H4        1.0  0.59700  0.73100  0.49800  1.0000
  H   H5        1.0  0.40300  0.26900  0.50200  1.0000
  H   H6        1.0  0.24300  0.18300  0.58900  1.0000
  H   H7        1.0  0.43600  0.58400  0.81100  1.0000
  H   H8        1.0  0.40700  0.69300  0.94600  1.0000
  K   K1        1.0  0.13200  0.84600  0.19600  1.0000
  K   K2        1.0  0.86800  0.15400  0.80400  1.0000
  Mn  Mn1       1.0  0.95300  0.29800  0.32600  1.0000
  Mn  Mn2       1.0  0.04690  0.70200  0.67400  1.0000
  O   O1        1.0  0.69500  0.40400  0.16600  1.0000
  O   O2        1.0  0.22700  0.21100  0.49000  1.0000
  O   O3        1.0  0.77300  0.78900  0.51000  1.0000
  O   O4        1.0  0.30500  0.59600  0.83400  1.0000
