data_image0
_chemical_formula_structural       As2H8Na2O10
_chemical_formula_sum              "As2 H8 Na2 O10"
_cell_length_a       5.78594
_cell_length_b       6.96441
_cell_length_c       5.39708
_cell_angle_alpha    90
_cell_angle_beta     92.3296
_cell_angle_gamma    90

_space_group_name_H-M_alt    "P 1"
_space_group_IT_number       1

loop_
  _space_group_symop_operation_xyz
  'x, y, z'

loop_
  _atom_site_type_symbol
  _atom_site_label
  _atom_site_symmetry_multiplicity
  _atom_site_fract_x
  _atom_site_fract_y
  _atom_site_fract_z
  _atom_site_occupancy
  As  As1       1.0  0.52300  0.75000  0.31100  1.0000
  As  As2       1.0  0.47700  0.25000  0.68900  1.0000
  H   H1        1.0  0.41700  0.06810  0.26000  1.0000
  H   H2        1.0  0.41700  0.43200  0.26000  1.0000
  H   H3        1.0  0.79300  0.25000  0.32800  1.0000
  H   H4        1.0  0.04310  0.25000  0.45600  1.0000
  H   H5        1.0  0.95700  0.75000  0.54400  1.0000
  H   H6        1.0  0.20700  0.75000  0.67200  1.0000
  H   H7        1.0  0.58300  0.56800  0.74000  1.0000
  H   H8        1.0  0.58300  0.93200  0.74000  1.0000
  Na  Na1       1.0  0.00000  0.00000  0.00000  1.0000
  Na  Na2       1.0  0.00000  0.50000  0.00000  1.0000
  O   O1        1.0  0.35300  0.56300  0.19300  1.0000
  O   O2        1.0  0.35300  0.93700  0.19300  1.0000
  O   O3        1.0  0.80200  0.75000  0.23700  1.0000
  O   O4        1.0  0.96100  0.25000  0.29200  1.0000
  O   O5        1.0  0.50600  0.25000  0.37100  1.0000
  O   O6        1.0  0.49400  0.75000  0.62900  1.0000
  O   O7        1.0  0.03900  0.75000  0.70800  1.0000
  O   O8        1.0  0.19800  0.25000  0.76300  1.0000
  O   O9        1.0  0.64700  0.06260  0.80700  1.0000
  O   O10       1.0  0.64700  0.43700  0.80700  1.0000
