data_image0
_chemical_formula_structural       H6Na4O10P2
_chemical_formula_sum              "H6 Na4 O10 P2"
_cell_length_a       5.48907
_cell_length_b       7.82848
_cell_length_c       5.65939
_cell_angle_alpha    103.38
_cell_angle_beta     102.362
_cell_angle_gamma    107.856

_space_group_name_H-M_alt    "P 1"
_space_group_IT_number       1

loop_
  _space_group_symop_operation_xyz
  'x, y, z'

loop_
  _atom_site_type_symbol
  _atom_site_label
  _atom_site_symmetry_multiplicity
  _atom_site_fract_x
  _atom_site_fract_y
  _atom_site_fract_z
  _atom_site_occupancy
  H   H1        1.0  0.74800  0.94900  0.86300  1.0000
  H   H2        1.0  0.25200  0.05090  0.13700  1.0000
  H   H3        1.0  0.80100  0.11500  0.28000  1.0000
  H   H4        1.0  0.04630  0.83900  0.42500  1.0000
  H   H5        1.0  0.95400  0.16100  0.57500  1.0000
  H   H6        1.0  0.19900  0.88500  0.72000  1.0000
  Na  Na1       1.0  0.73100  0.43000  0.27800  1.0000
  Na  Na2       1.0  0.48300  0.78600  0.33500  1.0000
  Na  Na3       1.0  0.51700  0.21400  0.66500  1.0000
  Na  Na4       1.0  0.26900  0.57000  0.72200  1.0000
  O   O1        1.0  0.82600  0.16600  0.00577  1.0000
  O   O2        1.0  0.77300  0.69100  0.14600  1.0000
  O   O3        1.0  0.29800  0.19000  0.23400  1.0000
  O   O4        1.0  0.19200  0.48100  0.28400  1.0000
  O   O5        1.0  0.77500  0.09880  0.44300  1.0000
  O   O6        1.0  0.22500  0.90100  0.55700  1.0000
  O   O7        1.0  0.80800  0.51900  0.71600  1.0000
  O   O8        1.0  0.70200  0.81000  0.76600  1.0000
  O   O9        1.0  0.22700  0.30900  0.85400  1.0000
  O   O10       1.0  0.17400  0.83400  0.99400  1.0000
  P   P1        1.0  0.12900  0.29200  0.08460  1.0000
  P   P2        1.0  0.87100  0.70800  0.91500  1.0000
