data_image0
_chemical_formula_structural       H8N4O4S2
_chemical_formula_sum              "H8 N4 O4 S2"
_cell_length_a       4.35631
_cell_length_b       4.88538
_cell_length_c       8.45785
_cell_angle_alpha    96.5933
_cell_angle_beta     75.0764
_cell_angle_gamma    116.478

_space_group_name_H-M_alt    "P 1"
_space_group_IT_number       1

loop_
  _space_group_symop_operation_xyz
  'x, y, z'

loop_
  _atom_site_type_symbol
  _atom_site_label
  _atom_site_symmetry_multiplicity
  _atom_site_fract_x
  _atom_site_fract_y
  _atom_site_fract_z
  _atom_site_occupancy
  H   H1        1.0  0.14800  0.70600  0.10700  1.0000
  H   H2        1.0  0.21000  0.04390  0.21400  1.0000
  H   H3        1.0  0.67400  0.54400  0.28600  1.0000
  H   H4        1.0  0.50500  0.20600  0.39300  1.0000
  H   H5        1.0  0.69200  0.79400  0.60700  1.0000
  H   H6        1.0  0.41600  0.45600  0.71400  1.0000
  H   H7        1.0  0.38000  0.95600  0.78600  1.0000
  H   H8        1.0  0.54900  0.29400  0.89300  1.0000
  N   N1        1.0  0.05310  0.86700  0.14900  1.0000
  N   N2        1.0  0.45200  0.36700  0.35100  1.0000
  N   N3        1.0  0.43600  0.63300  0.64900  1.0000
  N   N4        1.0  0.33500  0.13300  0.85100  1.0000
  O   O1        1.0  0.90800  0.25400  0.06820  1.0000
  O   O2        1.0  0.22700  0.75400  0.43200  1.0000
  O   O3        1.0  0.90400  0.24600  0.56800  1.0000
  O   O4        1.0  0.72200  0.74600  0.93200  1.0000
  S   S1        1.0  0.98400  0.00000  0.00000  1.0000
  S   S2        1.0  0.23400  0.50000  0.50000  1.0000
