data_image0
_chemical_formula_structural       As2F12H4Li2O2
_chemical_formula_sum              "As2 F12 H4 Li2 O2"
_cell_length_a       5.84825
_cell_length_b       6.86354
_cell_length_c       6.86354
_cell_angle_alpha    95.8321
_cell_angle_beta     115.216
_cell_angle_gamma    115.216

_space_group_name_H-M_alt    "P 1"
_space_group_IT_number       1

loop_
  _space_group_symop_operation_xyz
  'x, y, z'

loop_
  _atom_site_type_symbol
  _atom_site_label
  _atom_site_symmetry_multiplicity
  _atom_site_fract_x
  _atom_site_fract_y
  _atom_site_fract_z
  _atom_site_occupancy
  As  As1       1.0  0.00000  0.00000  0.00000  1.0000
  As  As2       1.0  0.00000  0.50000  0.50000  1.0000
  F   F1        1.0  0.70300  0.97800  0.02190  1.0000
  F   F2        1.0  0.15500  0.29700  0.05430  1.0000
  F   F3        1.0  0.84500  0.44600  0.20300  1.0000
  F   F4        1.0  0.19600  0.05430  0.29700  1.0000
  F   F5        1.0  0.80400  0.20300  0.44600  1.0000
  F   F6        1.0  0.70300  0.52200  0.47800  1.0000
  F   F7        1.0  0.29700  0.47800  0.52200  1.0000
  F   F8        1.0  0.19600  0.79700  0.55400  1.0000
  F   F9        1.0  0.80400  0.94600  0.70300  1.0000
  F   F10       1.0  0.15500  0.55400  0.79700  1.0000
  F   F11       1.0  0.84500  0.70300  0.94600  1.0000
  F   F12       1.0  0.29700  0.02190  0.97800  1.0000
  H   H1        1.0  0.52600  0.82700  0.17300  1.0000
  H   H2        1.0  0.52600  0.67300  0.32700  1.0000
  H   H3        1.0  0.47400  0.32700  0.67300  1.0000
  H   H4        1.0  0.47400  0.17300  0.82700  1.0000
  Li  Li1       1.0  0.50000  0.00000  0.50000  1.0000
  Li  Li2       1.0  0.00000  0.50000  0.00000  1.0000
  O   O1        1.0  0.42600  0.75000  0.25000  1.0000
  O   O2        1.0  0.57400  0.25000  0.75000  1.0000
