data_image0
_chemical_formula_structural       H8N10Zn
_chemical_formula_sum              "H8 N10 Zn1"
_cell_length_a       4.02571
_cell_length_b       6.07865
_cell_length_c       6.91019
_cell_angle_alpha    67.606
_cell_angle_beta     90.2337
_cell_angle_gamma    89.6945

_space_group_name_H-M_alt    "P 1"
_space_group_IT_number       1

loop_
  _space_group_symop_operation_xyz
  'x, y, z'

loop_
  _atom_site_type_symbol
  _atom_site_label
  _atom_site_symmetry_multiplicity
  _atom_site_fract_x
  _atom_site_fract_y
  _atom_site_fract_z
  _atom_site_occupancy
  H   H1        1.0  0.74600  0.77100  0.12500  1.0000
  H   H2        1.0  0.25300  0.87100  0.18800  1.0000
  H   H3        1.0  0.96200  0.51500  0.21600  1.0000
  H   H4        1.0  0.04170  0.84700  0.40400  1.0000
  H   H5        1.0  0.95800  0.15300  0.59600  1.0000
  H   H6        1.0  0.03830  0.48500  0.78400  1.0000
  H   H7        1.0  0.74700  0.12900  0.81200  1.0000
  H   H8        1.0  0.25400  0.22900  0.87500  1.0000
  N   N1        1.0  0.64300  0.17500  0.10500  1.0000
  N   N2        1.0  0.48700  0.21700  0.23100  1.0000
  N   N3        1.0  0.86200  0.64900  0.25500  1.0000
  N   N4        1.0  0.13600  0.75500  0.31800  1.0000
  N   N5        1.0  0.32500  0.25500  0.35900  1.0000
  N   N6        1.0  0.67500  0.74500  0.64100  1.0000
  N   N7        1.0  0.86400  0.24500  0.68200  1.0000
  N   N8        1.0  0.13800  0.35100  0.74500  1.0000
  N   N9        1.0  0.51300  0.78300  0.76900  1.0000
  N   N10       1.0  0.35700  0.82500  0.89500  1.0000
  Zn  Zn1       1.0  0.50000  0.50000  0.50000  1.0000
