data_image0
_chemical_formula_structural       Ca2H8O8P4
_chemical_formula_sum              "Ca2 H8 O8 P4"
_cell_length_a       5.65963
_cell_length_b       6.5566
_cell_length_c       7.93895
_cell_angle_alpha    100.786
_cell_angle_beta     110.882
_cell_angle_gamma    90

_space_group_name_H-M_alt    "P 1"
_space_group_IT_number       1

loop_
  _space_group_symop_operation_xyz
  'x, y, z'

loop_
  _atom_site_type_symbol
  _atom_site_label
  _atom_site_symmetry_multiplicity
  _atom_site_fract_x
  _atom_site_fract_y
  _atom_site_fract_z
  _atom_site_occupancy
  Ca  Ca1       1.0  0.83300  0.75000  0.00000  1.0000
  Ca  Ca2       1.0  0.16700  0.25000  0.00000  1.0000
  H   H1        1.0  0.40000  0.92500  0.34600  1.0000
  H   H2        1.0  0.94600  0.42500  0.34600  1.0000
  H   H3        1.0  0.53700  0.63500  0.44900  1.0000
  H   H4        1.0  0.91300  0.13500  0.44900  1.0000
  H   H5        1.0  0.46300  0.36500  0.55100  1.0000
  H   H6        1.0  0.08740  0.86500  0.55100  1.0000
  H   H7        1.0  0.05420  0.57500  0.65400  1.0000
  H   H8        1.0  0.60000  0.07510  0.65400  1.0000
  O   O1        1.0  0.21200  0.60300  0.15200  1.0000
  O   O2        1.0  0.93900  0.10300  0.15200  1.0000
  O   O3        1.0  0.54300  0.23000  0.22600  1.0000
  O   O4        1.0  0.68300  0.73000  0.22600  1.0000
  O   O5        1.0  0.31700  0.27000  0.77400  1.0000
  O   O6        1.0  0.45700  0.77000  0.77400  1.0000
  O   O7        1.0  0.06090  0.89700  0.84800  1.0000
  O   O8        1.0  0.78800  0.39700  0.84800  1.0000
  P   P1        1.0  0.82700  0.22000  0.28800  1.0000
  P   P2        1.0  0.46100  0.72000  0.28800  1.0000
  P   P3        1.0  0.17300  0.78000  0.71200  1.0000
  P   P4        1.0  0.53900  0.28000  0.71200  1.0000
