data_image0
_chemical_formula_structural       Ni2Se10Ta4
_chemical_formula_sum              "Ni2 Se10 Ta4"
_cell_length_a       3.50432
_cell_length_b       6.90897
_cell_length_c       15.7497
_cell_angle_alpha    90.0956
_cell_angle_beta     90.377
_cell_angle_gamma    75.309

_space_group_name_H-M_alt    "P 1"
_space_group_IT_number       1

loop_
  _space_group_symop_operation_xyz
  'x, y, z'

loop_
  _atom_site_type_symbol
  _atom_site_label
  _atom_site_symmetry_multiplicity
  _atom_site_fract_x
  _atom_site_fract_y
  _atom_site_fract_z
  _atom_site_occupancy
  Ni  Ni1       1.0  0.29800  0.40400  0.25000  1.0000
  Ni  Ni2       1.0  0.70200  0.59600  0.75000  1.0000
  Se  Se1       1.0  0.15400  0.70100  0.04940  1.0000
  Se  Se2       1.0  0.41900  0.17000  0.13800  1.0000
  Se  Se3       1.0  0.67600  0.64700  0.25000  1.0000
  Se  Se4       1.0  0.41100  0.17000  0.36200  1.0000
  Se  Se5       1.0  0.14500  0.70100  0.45100  1.0000
  Se  Se6       1.0  0.85500  0.29900  0.54900  1.0000
  Se  Se7       1.0  0.58900  0.83000  0.63800  1.0000
  Se  Se8       1.0  0.32400  0.35300  0.75000  1.0000
  Se  Se9       1.0  0.58100  0.83000  0.86200  1.0000
  Se  Se10      1.0  0.84600  0.29900  0.95100  1.0000
  Ta  Ta1       1.0  0.77100  0.44300  0.11000  1.0000
  Ta  Ta2       1.0  0.78500  0.44300  0.39000  1.0000
  Ta  Ta3       1.0  0.21500  0.55700  0.61000  1.0000
  Ta  Ta4       1.0  0.22900  0.55700  0.89000  1.0000
