data_image0
_chemical_formula_structural       K2P2Se10Ti2
_chemical_formula_sum              "K2 P2 Se10 Ti2"
_cell_length_a       6.8775
_cell_length_b       7.42885
_cell_length_c       10.0932
_cell_angle_alpha    111.593
_cell_angle_beta     97.8831
_cell_angle_gamma    90

_space_group_name_H-M_alt    "P 1"
_space_group_IT_number       1

loop_
  _space_group_symop_operation_xyz
  'x, y, z'

loop_
  _atom_site_type_symbol
  _atom_site_label
  _atom_site_symmetry_multiplicity
  _atom_site_fract_x
  _atom_site_fract_y
  _atom_site_fract_z
  _atom_site_occupancy
  K   K1        1.0  0.23300  0.73100  0.46200  1.0000
  K   K2        1.0  0.76700  0.26900  0.53800  1.0000
  P   P1        1.0  0.21100  0.13600  0.27300  1.0000
  P   P2        1.0  0.78900  0.86400  0.72700  1.0000
  Se  Se1       1.0  0.81600  0.55900  0.11700  1.0000
  Se  Se2       1.0  0.89300  0.08400  0.16800  1.0000
  Se  Se3       1.0  0.32700  0.32700  0.17000  1.0000
  Se  Se4       1.0  0.32700  0.84300  0.17000  1.0000
  Se  Se5       1.0  0.74200  0.74600  0.49300  1.0000
  Se  Se6       1.0  0.25800  0.25400  0.50700  1.0000
  Se  Se7       1.0  0.67300  0.15700  0.83000  1.0000
  Se  Se8       1.0  0.67300  0.67300  0.83000  1.0000
  Se  Se9       1.0  0.10700  0.91600  0.83200  1.0000
  Se  Se10      1.0  0.18400  0.44100  0.88300  1.0000
  Ti  Ti1       1.0  0.00000  0.27600  0.00000  1.0000
  Ti  Ti2       1.0  0.00000  0.72400  0.00000  1.0000
