data_image0
_chemical_formula_structural       F2K2O8S2Sn2
_chemical_formula_sum              "F2 K2 O8 S2 Sn2"
_cell_length_a       5.89905
_cell_length_b       7.01209
_cell_length_c       6.98721
_cell_angle_alpha    107.665
_cell_angle_beta     101.142
_cell_angle_gamma    110.058

_space_group_name_H-M_alt    "P 1"
_space_group_IT_number       1

loop_
  _space_group_symop_operation_xyz
  'x, y, z'

loop_
  _atom_site_type_symbol
  _atom_site_label
  _atom_site_symmetry_multiplicity
  _atom_site_fract_x
  _atom_site_fract_y
  _atom_site_fract_z
  _atom_site_occupancy
  F   F1        1.0  0.23200  0.02390  0.02040  1.0000
  F   F2        1.0  0.76800  0.97600  0.98000  1.0000
  K   K1        1.0  0.69000  0.33900  0.13100  1.0000
  K   K2        1.0  0.31000  0.66100  0.86900  1.0000
  O   O1        1.0  0.14200  0.70500  0.22700  1.0000
  O   O2        1.0  0.53300  0.65300  0.25000  1.0000
  O   O3        1.0  0.18400  0.42100  0.33700  1.0000
  O   O4        1.0  0.55300  0.19200  0.42700  1.0000
  O   O5        1.0  0.44700  0.80800  0.57300  1.0000
  O   O6        1.0  0.81600  0.57900  0.66300  1.0000
  O   O7        1.0  0.46700  0.34700  0.75000  1.0000
  O   O8        1.0  0.85800  0.29500  0.77300  1.0000
  S   S1        1.0  0.33000  0.64600  0.34400  1.0000
  S   S2        1.0  0.67000  0.35400  0.65600  1.0000
  Sn  Sn1       1.0  0.11000  0.04960  0.29400  1.0000
  Sn  Sn2       1.0  0.89000  0.95000  0.70600  1.0000
