data_image0
_chemical_formula_structural       Br4Cu4Te8
_chemical_formula_sum              "Br4 Cu4 Te8"
_cell_length_a       8.41981
_cell_length_b       5.10696
_cell_length_c       15.9982
_cell_angle_alpha    90
_cell_angle_beta     134.828
_cell_angle_gamma    90

_space_group_name_H-M_alt    "P 1"
_space_group_IT_number       1

loop_
  _space_group_symop_operation_xyz
  'x, y, z'

loop_
  _atom_site_type_symbol
  _atom_site_label
  _atom_site_symmetry_multiplicity
  _atom_site_fract_x
  _atom_site_fract_y
  _atom_site_fract_z
  _atom_site_occupancy
  Br  Br1       1.0  0.32400  0.37900  0.11800  1.0000
  Br  Br2       1.0  0.67600  0.87900  0.38200  1.0000
  Br  Br3       1.0  0.32400  0.12100  0.61800  1.0000
  Br  Br4       1.0  0.67600  0.62100  0.88200  1.0000
  Cu  Cu1       1.0  0.31700  0.63300  0.25000  1.0000
  Cu  Cu2       1.0  0.68300  0.13300  0.25000  1.0000
  Cu  Cu3       1.0  0.31700  0.86700  0.75000  1.0000
  Cu  Cu4       1.0  0.68300  0.36700  0.75000  1.0000
  Te  Te1       1.0  0.00856  0.97800  0.14200  1.0000
  Te  Te2       1.0  0.70800  0.78400  0.14600  1.0000
  Te  Te3       1.0  0.29200  0.28400  0.35400  1.0000
  Te  Te4       1.0  0.99100  0.47800  0.35800  1.0000
  Te  Te5       1.0  0.00856  0.52200  0.64200  1.0000
  Te  Te6       1.0  0.70800  0.71600  0.64600  1.0000
  Te  Te7       1.0  0.29200  0.21600  0.85400  1.0000
  Te  Te8       1.0  0.99100  0.02190  0.85800  1.0000
