data_image0
_chemical_formula_structural       Cs2H6O10STe
_chemical_formula_sum              "Cs2 H6 O10 S1 Te1"
_cell_length_a       6.89698
_cell_length_b       6.89698
_cell_length_c       6.89698
_cell_angle_alpha    113.27
_cell_angle_beta     113.27
_cell_angle_gamma    66.7303

_space_group_name_H-M_alt    "P 1"
_space_group_IT_number       1

loop_
  _space_group_symop_operation_xyz
  'x, y, z'

loop_
  _atom_site_type_symbol
  _atom_site_label
  _atom_site_symmetry_multiplicity
  _atom_site_fract_x
  _atom_site_fract_y
  _atom_site_fract_z
  _atom_site_occupancy
  Cs  Cs1       1.0  0.74500  0.74500  0.25500  1.0000
  Cs  Cs2       1.0  0.25400  0.25400  0.74600  1.0000
  H   H1        1.0  0.14800  0.65500  0.12500  1.0000
  H   H2        1.0  0.08250  0.33600  0.18400  1.0000
  H   H3        1.0  0.87500  0.14800  0.34500  1.0000
  H   H4        1.0  0.81600  0.08250  0.66400  1.0000
  H   H5        1.0  0.65500  0.87500  0.85200  1.0000
  H   H6        1.0  0.33600  0.81600  0.91800  1.0000
  O   O1        1.0  0.29900  0.93600  0.05150  1.0000
  O   O2        1.0  0.94900  0.29900  0.06350  1.0000
  O   O3        1.0  0.01900  0.05270  0.32100  1.0000
  O   O4        1.0  0.25400  0.48100  0.37600  1.0000
  O   O5        1.0  0.57600  0.57600  0.42400  1.0000
  O   O6        1.0  0.62400  0.25400  0.51900  1.0000
  O   O7        1.0  0.93600  0.94900  0.70100  1.0000
  O   O8        1.0  0.48100  0.62400  0.74600  1.0000
  O   O9        1.0  0.67900  0.01900  0.94700  1.0000
  O   O10       1.0  0.05270  0.67900  0.98100  1.0000
  S   S1        1.0  0.48400  0.48400  0.51600  1.0000
  Te  Te1       1.0  0.99100  0.99100  0.00914  1.0000
