data_image0
_chemical_formula_structural       B16Ca8H64
_chemical_formula_sum              "B16 Ca8 H64"
_cell_length_a       12.52
_cell_length_b       8.05759
_cell_length_c       7.25618
_cell_angle_alpha    90
_cell_angle_beta     90
_cell_angle_gamma    90

_space_group_name_H-M_alt    "P 1"
_space_group_IT_number       1

loop_
  _space_group_symop_operation_xyz
  'x, y, z'

loop_
  _atom_site_type_symbol
  _atom_site_label
  _atom_site_symmetry_multiplicity
  _atom_site_fract_x
  _atom_site_fract_y
  _atom_site_fract_z
  _atom_site_occupancy
  B   B1        1.0  0.51100  0.66800  0.32900  1.0000
  B   B2        1.0  0.98900  0.33200  0.82900  1.0000
  B   B3        1.0  0.01120  0.83200  0.67100  1.0000
  B   B4        1.0  0.48900  0.16800  0.17100  1.0000
  B   B5        1.0  0.48900  0.33200  0.67100  1.0000
  B   B6        1.0  0.22100  0.08560  0.98400  1.0000
  B   B7        1.0  0.27900  0.91400  0.48400  1.0000
  B   B8        1.0  0.01120  0.66800  0.17100  1.0000
  B   B9        1.0  0.98900  0.16800  0.32900  1.0000
  B   B10       1.0  0.51100  0.83200  0.82900  1.0000
  B   B11       1.0  0.72100  0.41400  0.01600  1.0000
  B   B12       1.0  0.77900  0.58600  0.51600  1.0000
  B   B13       1.0  0.77900  0.91400  0.01600  1.0000
  B   B14       1.0  0.72100  0.08560  0.51600  1.0000
  B   B15       1.0  0.27900  0.58600  0.98400  1.0000
  B   B16       1.0  0.22100  0.41400  0.48400  1.0000
  Ca  Ca1       1.0  0.62600  0.12700  0.85600  1.0000
  Ca  Ca2       1.0  0.87400  0.87300  0.35600  1.0000
  Ca  Ca3       1.0  0.12600  0.37300  0.14400  1.0000
  Ca  Ca4       1.0  0.37400  0.62700  0.64400  1.0000
  Ca  Ca5       1.0  0.37400  0.87300  0.14400  1.0000
  Ca  Ca6       1.0  0.12600  0.12700  0.64400  1.0000
  Ca  Ca7       1.0  0.87400  0.62700  0.85600  1.0000
  Ca  Ca8       1.0  0.62600  0.37300  0.35600  1.0000
  H   H1        1.0  0.26700  0.15800  0.85700  1.0000
  H   H2        1.0  0.23300  0.84200  0.35700  1.0000
  H   H3        1.0  0.76700  0.34200  0.14300  1.0000
  H   H4        1.0  0.73300  0.65800  0.64300  1.0000
  H   H5        1.0  0.73300  0.84200  0.14300  1.0000
  H   H6        1.0  0.76700  0.15800  0.64300  1.0000
  H   H7        1.0  0.23300  0.65800  0.85700  1.0000
  H   H8        1.0  0.26700  0.34200  0.35700  1.0000
  H   H9        1.0  0.22900  0.93500  0.96500  1.0000
  H   H10       1.0  0.27100  0.06460  0.46500  1.0000
  H   H11       1.0  0.72900  0.56500  0.03490  1.0000
  H   H12       1.0  0.77100  0.43500  0.53500  1.0000
  H   H13       1.0  0.77100  0.06460  0.03490  1.0000
  H   H14       1.0  0.72900  0.93500  0.53500  1.0000
  H   H15       1.0  0.27100  0.43500  0.96500  1.0000
  H   H16       1.0  0.22900  0.56500  0.46500  1.0000
  H   H17       1.0  0.25900  0.13500  0.13000  1.0000
  H   H18       1.0  0.24100  0.86500  0.63000  1.0000
  H   H19       1.0  0.75900  0.36500  0.87000  1.0000
  H   H20       1.0  0.74100  0.63500  0.37000  1.0000
  H   H21       1.0  0.74100  0.86500  0.87000  1.0000
  H   H22       1.0  0.75900  0.13500  0.37000  1.0000
  H   H23       1.0  0.24100  0.63500  0.13000  1.0000
  H   H24       1.0  0.25900  0.36500  0.63000  1.0000
  H   H25       1.0  0.52900  0.81600  0.30800  1.0000
  H   H26       1.0  0.97100  0.18400  0.80800  1.0000
  H   H27       1.0  0.02890  0.68400  0.69200  1.0000
  H   H28       1.0  0.47100  0.31600  0.19200  1.0000
  H   H29       1.0  0.47100  0.18400  0.69200  1.0000
  H   H30       1.0  0.02890  0.81600  0.19200  1.0000
  H   H31       1.0  0.97100  0.31600  0.30800  1.0000
  H   H32       1.0  0.52900  0.68400  0.80800  1.0000
  H   H33       1.0  0.12400  0.11000  0.98400  1.0000
  H   H34       1.0  0.37600  0.89000  0.48400  1.0000
  H   H35       1.0  0.62400  0.39000  0.01560  1.0000
  H   H36       1.0  0.87600  0.61000  0.51600  1.0000
  H   H37       1.0  0.87600  0.89000  0.01560  1.0000
  H   H38       1.0  0.62400  0.11000  0.51600  1.0000
  H   H39       1.0  0.37600  0.61000  0.98400  1.0000
  H   H40       1.0  0.12400  0.39000  0.48400  1.0000
  H   H41       1.0  0.54700  0.63100  0.48000  1.0000
  H   H42       1.0  0.95300  0.36900  0.98000  1.0000
  H   H43       1.0  0.04700  0.86900  0.52000  1.0000
  H   H44       1.0  0.45300  0.13100  0.01980  1.0000
  H   H45       1.0  0.45300  0.36900  0.52000  1.0000
  H   H46       1.0  0.04700  0.63100  0.01980  1.0000
  H   H47       1.0  0.95300  0.13100  0.48000  1.0000
  H   H48       1.0  0.54700  0.86900  0.98000  1.0000
  H   H49       1.0  0.41500  0.63300  0.32100  1.0000
  H   H50       1.0  0.08500  0.36700  0.82100  1.0000
  H   H51       1.0  0.91500  0.86700  0.67900  1.0000
  H   H52       1.0  0.58500  0.13300  0.17900  1.0000
  H   H53       1.0  0.58500  0.36700  0.67900  1.0000
  H   H54       1.0  0.91500  0.63300  0.17900  1.0000
  H   H55       1.0  0.08500  0.13300  0.32100  1.0000
  H   H56       1.0  0.41500  0.86700  0.82100  1.0000
  H   H57       1.0  0.55400  0.59300  0.20200  1.0000
  H   H58       1.0  0.94600  0.40700  0.70200  1.0000
  H   H59       1.0  0.05360  0.90700  0.79800  1.0000
  H   H60       1.0  0.44600  0.09290  0.29800  1.0000
  H   H61       1.0  0.44600  0.40700  0.79800  1.0000
  H   H62       1.0  0.05360  0.59300  0.29800  1.0000
  H   H63       1.0  0.94600  0.09290  0.20200  1.0000
  H   H64       1.0  0.55400  0.90700  0.70200  1.0000
