data_image0
_chemical_formula_structural       Cl6Cs3H8O4V
_chemical_formula_sum              "Cl6 Cs3 H8 O4 V1"
_cell_length_a       6.04771
_cell_length_b       8.33652
_cell_length_c       10.1968
_cell_angle_alpha    114.128
_cell_angle_beta     107.251
_cell_angle_gamma    90

_space_group_name_H-M_alt    "P 1"
_space_group_IT_number       1

loop_
  _space_group_symop_operation_xyz
  'x, y, z'

loop_
  _atom_site_type_symbol
  _atom_site_label
  _atom_site_symmetry_multiplicity
  _atom_site_fract_x
  _atom_site_fract_y
  _atom_site_fract_z
  _atom_site_occupancy
  Cl  Cl1       1.0  0.50000  0.21200  0.00000  1.0000
  Cl  Cl2       1.0  0.50000  0.78800  0.00000  1.0000
  Cl  Cl3       1.0  0.15800  0.39900  0.31600  1.0000
  Cl  Cl4       1.0  0.15800  0.91700  0.31600  1.0000
  Cl  Cl5       1.0  0.84200  0.08250  0.68400  1.0000
  Cl  Cl6       1.0  0.84200  0.60100  0.68400  1.0000
  Cs  Cs1       1.0  0.00000  0.00000  0.00000  1.0000
  Cs  Cs2       1.0  0.68700  0.18700  0.37400  1.0000
  Cs  Cs3       1.0  0.31300  0.81300  0.62600  1.0000
  H   H1        1.0  0.91200  0.50700  0.20700  1.0000
  H   H2        1.0  0.29500  0.70000  0.20700  1.0000
  H   H3        1.0  0.30000  0.50600  0.20900  1.0000
  H   H4        1.0  0.90900  0.70300  0.20900  1.0000
  H   H5        1.0  0.70000  0.29700  0.79100  1.0000
  H   H6        1.0  0.09120  0.49400  0.79100  1.0000
  H   H7        1.0  0.08780  0.30000  0.79300  1.0000
  H   H8        1.0  0.70500  0.49300  0.79300  1.0000
  O   O1        1.0  0.34800  0.58100  0.16400  1.0000
  O   O2        1.0  0.81500  0.58200  0.16400  1.0000
  O   O3        1.0  0.65200  0.41800  0.83600  1.0000
  O   O4        1.0  0.18500  0.41900  0.83600  1.0000
  V   V1        1.0  0.50000  0.50000  0.00000  1.0000
