data_image0
_chemical_formula_structural       I4Te4
_chemical_formula_sum              "I4 Te4"
_cell_length_a       4.25557
_cell_length_b       8.451
_cell_length_c       9.94743
_cell_angle_alpha    92.5896
_cell_angle_beta     102.351
_cell_angle_gamma    75.4172

_space_group_name_H-M_alt    "P 1"
_space_group_IT_number       1

loop_
  _space_group_symop_operation_xyz
  'x, y, z'

loop_
  _atom_site_type_symbol
  _atom_site_label
  _atom_site_symmetry_multiplicity
  _atom_site_fract_x
  _atom_site_fract_y
  _atom_site_fract_z
  _atom_site_occupancy
  I   I1        1.0  0.66400  0.86000  0.18900  1.0000
  I   I2        1.0  0.10000  0.23400  0.43500  1.0000
  I   I3        1.0  0.90000  0.76600  0.56500  1.0000
  I   I4        1.0  0.33600  0.14000  0.81100  1.0000
  Te  Te1       1.0  0.91300  0.33100  0.15800  1.0000
  Te  Te2       1.0  0.29700  0.58300  0.17700  1.0000
  Te  Te3       1.0  0.70300  0.41700  0.82300  1.0000
  Te  Te4       1.0  0.08690  0.66900  0.84200  1.0000
