data_image0
_chemical_formula_structural       Ag4Hg2Se8Sn2
_chemical_formula_sum              "Ag4 Hg2 Se8 Sn2"
_cell_length_a       8.59832
_cell_length_b       7.50037
_cell_length_c       7.15329
_cell_angle_alpha    90
_cell_angle_beta     90
_cell_angle_gamma    90

_space_group_name_H-M_alt    "P 1"
_space_group_IT_number       1

loop_
  _space_group_symop_operation_xyz
  'x, y, z'

loop_
  _atom_site_type_symbol
  _atom_site_label
  _atom_site_symmetry_multiplicity
  _atom_site_fract_x
  _atom_site_fract_y
  _atom_site_fract_z
  _atom_site_occupancy
  Ag  Ag1       1.0  0.24500  0.83200  0.00713  1.0000
  Ag  Ag2       1.0  0.75500  0.83200  0.00713  1.0000
  Ag  Ag3       1.0  0.25500  0.16800  0.50700  1.0000
  Ag  Ag4       1.0  0.74500  0.16800  0.50700  1.0000
  Hg  Hg1       1.0  0.50000  0.36200  0.02150  1.0000
  Hg  Hg2       1.0  0.00000  0.63800  0.52200  1.0000
  Se  Se1       1.0  0.24600  0.16600  0.13800  1.0000
  Se  Se2       1.0  0.75400  0.16600  0.13800  1.0000
  Se  Se3       1.0  0.00000  0.66000  0.14100  1.0000
  Se  Se4       1.0  0.50000  0.69200  0.16000  1.0000
  Se  Se5       1.0  0.25400  0.83400  0.63800  1.0000
  Se  Se6       1.0  0.74600  0.83400  0.63800  1.0000
  Se  Se7       1.0  0.50000  0.34000  0.64100  1.0000
  Se  Se8       1.0  0.00000  0.30800  0.66000  1.0000
  Sn  Sn1       1.0  0.00000  0.33500  0.02240  1.0000
  Sn  Sn2       1.0  0.50000  0.66500  0.52200  1.0000
