data_image0
_chemical_formula_structural       Cl4Cu4Se8
_chemical_formula_sum              "Cl4 Cu4 Se8"
_cell_length_a       7.75234
_cell_length_b       4.89794
_cell_length_c       14.8746
_cell_angle_alpha    90
_cell_angle_beta     134.825
_cell_angle_gamma    90

_space_group_name_H-M_alt    "P 1"
_space_group_IT_number       1

loop_
  _space_group_symop_operation_xyz
  'x, y, z'

loop_
  _atom_site_type_symbol
  _atom_site_label
  _atom_site_symmetry_multiplicity
  _atom_site_fract_x
  _atom_site_fract_y
  _atom_site_fract_z
  _atom_site_occupancy
  Cl  Cl1       1.0  0.32300  0.39100  0.11800  1.0000
  Cl  Cl2       1.0  0.67700  0.89100  0.38200  1.0000
  Cl  Cl3       1.0  0.32300  0.10900  0.61800  1.0000
  Cl  Cl4       1.0  0.67700  0.60900  0.88200  1.0000
  Cu  Cu1       1.0  0.32000  0.64100  0.24800  1.0000
  Cu  Cu2       1.0  0.68000  0.14100  0.25200  1.0000
  Cu  Cu3       1.0  0.32000  0.85900  0.74800  1.0000
  Cu  Cu4       1.0  0.68000  0.35900  0.75200  1.0000
  Se  Se1       1.0  0.00787  0.97400  0.15400  1.0000
  Se  Se2       1.0  0.73500  0.80600  0.15700  1.0000
  Se  Se3       1.0  0.26500  0.30600  0.34300  1.0000
  Se  Se4       1.0  0.99200  0.47400  0.34600  1.0000
  Se  Se5       1.0  0.00787  0.52600  0.65400  1.0000
  Se  Se6       1.0  0.73500  0.69400  0.65700  1.0000
  Se  Se7       1.0  0.26500  0.19400  0.84300  1.0000
  Se  Se8       1.0  0.99200  0.02580  0.84600  1.0000
