data_image0
_chemical_formula_structural       H8O8P4Zn2
_chemical_formula_sum              "H8 O8 P4 Zn2"
_cell_length_a       6.43046
_cell_length_b       5.34621
_cell_length_c       7.25626
_cell_angle_alpha    90
_cell_angle_beta     90
_cell_angle_gamma    90

_space_group_name_H-M_alt    "P 1"
_space_group_IT_number       1

loop_
  _space_group_symop_operation_xyz
  'x, y, z'

loop_
  _atom_site_type_symbol
  _atom_site_label
  _atom_site_symmetry_multiplicity
  _atom_site_fract_x
  _atom_site_fract_y
  _atom_site_fract_z
  _atom_site_occupancy
  H   H1        1.0  0.57400  0.00000  0.26300  1.0000
  H   H2        1.0  0.92600  0.00000  0.26300  1.0000
  H   H3        1.0  0.75000  0.29200  0.49800  1.0000
  H   H4        1.0  0.75000  0.70800  0.49800  1.0000
  H   H5        1.0  0.25000  0.29200  0.50200  1.0000
  H   H6        1.0  0.25000  0.70800  0.50200  1.0000
  H   H7        1.0  0.07380  0.00000  0.73700  1.0000
  H   H8        1.0  0.42600  0.00000  0.73700  1.0000
  O   O1        1.0  0.75000  0.24000  0.03260  1.0000
  O   O2        1.0  0.75000  0.76000  0.03260  1.0000
  O   O3        1.0  0.04580  0.50000  0.27600  1.0000
  O   O4        1.0  0.45400  0.50000  0.27600  1.0000
  O   O5        1.0  0.54600  0.50000  0.72400  1.0000
  O   O6        1.0  0.95400  0.50000  0.72400  1.0000
  O   O7        1.0  0.25000  0.24000  0.96700  1.0000
  O   O8        1.0  0.25000  0.76000  0.96700  1.0000
  P   P1        1.0  0.75000  0.00000  0.14700  1.0000
  P   P2        1.0  0.25000  0.50000  0.38300  1.0000
  P   P3        1.0  0.75000  0.50000  0.61700  1.0000
  P   P4        1.0  0.25000  0.00000  0.85300  1.0000
  Zn  Zn1       1.0  0.00000  0.50000  0.00000  1.0000
  Zn  Zn2       1.0  0.50000  0.50000  0.00000  1.0000
