data_image0
_chemical_formula_structural       F4H2N2O8S4
_chemical_formula_sum              "F4 H2 N2 O8 S4"
_cell_length_a       4.94772
_cell_length_b       7.25381
_cell_length_c       6.37789
_cell_angle_alpha    90
_cell_angle_beta     102.162
_cell_angle_gamma    90

_space_group_name_H-M_alt    "P 1"
_space_group_IT_number       1

loop_
  _space_group_symop_operation_xyz
  'x, y, z'

loop_
  _atom_site_type_symbol
  _atom_site_label
  _atom_site_symmetry_multiplicity
  _atom_site_fract_x
  _atom_site_fract_y
  _atom_site_fract_z
  _atom_site_occupancy
  F   F1        1.0  0.74800  0.95000  0.11300  1.0000
  F   F2        1.0  0.52900  0.84800  0.44900  1.0000
  F   F3        1.0  0.47100  0.34800  0.55100  1.0000
  F   F4        1.0  0.25200  0.45000  0.88700  1.0000
  H   H1        1.0  0.93400  0.51400  0.22500  1.0000
  H   H2        1.0  0.06640  0.01440  0.77500  1.0000
  N   N1        1.0  0.14200  0.48000  0.24900  1.0000
  N   N2        1.0  0.85800  0.98000  0.75100  1.0000
  O   O1        1.0  0.20400  0.75100  0.03480  1.0000
  O   O2        1.0  0.60300  0.54700  0.18700  1.0000
  O   O3        1.0  0.34400  0.15800  0.24000  1.0000
  O   O4        1.0  0.00000  0.23400  0.46500  1.0000
  O   O5        1.0  0.00023  0.73400  0.53500  1.0000
  O   O6        1.0  0.65600  0.65800  0.76000  1.0000
  O   O7        1.0  0.39700  0.04730  0.81300  1.0000
  O   O8        1.0  0.79600  0.25100  0.96500  1.0000
  S   S1        1.0  0.31900  0.57500  0.09300  1.0000
  S   S2        1.0  0.22400  0.28000  0.36900  1.0000
  S   S3        1.0  0.77600  0.78000  0.63100  1.0000
  S   S4        1.0  0.68100  0.07500  0.90700  1.0000
