data_image0
_chemical_formula_structural       H6LaO12P3
_chemical_formula_sum              "H6 La1 O12 P3"
_cell_length_a       6.57634
_cell_length_b       6.57632
_cell_length_c       6.1417
_cell_angle_alpha    90
_cell_angle_beta     90
_cell_angle_gamma    120

_space_group_name_H-M_alt    "P 1"
_space_group_IT_number       1

loop_
  _space_group_symop_operation_xyz
  'x, y, z'

loop_
  _atom_site_type_symbol
  _atom_site_label
  _atom_site_symmetry_multiplicity
  _atom_site_fract_x
  _atom_site_fract_y
  _atom_site_fract_z
  _atom_site_occupancy
  H   H1        1.0  0.79500  0.17400  0.12500  1.0000
  H   H2        1.0  0.38000  0.20500  0.12500  1.0000
  H   H3        1.0  0.82600  0.62000  0.12500  1.0000
  H   H4        1.0  0.79500  0.17400  0.87500  1.0000
  H   H5        1.0  0.38000  0.20500  0.87500  1.0000
  H   H6        1.0  0.82600  0.62000  0.87500  1.0000
  La  La1       1.0  0.33300  0.66700  0.00000  1.0000
  O   O1        1.0  0.70900  0.07610  0.00000  1.0000
  O   O2        1.0  0.36800  0.29100  0.00000  1.0000
  O   O3        1.0  0.92400  0.63200  0.00000  1.0000
  O   O4        1.0  0.59900  0.65800  0.28900  1.0000
  O   O5        1.0  0.34200  0.94100  0.28900  1.0000
  O   O6        1.0  0.05920  0.40100  0.28900  1.0000
  O   O7        1.0  0.80100  0.03870  0.50000  1.0000
  O   O8        1.0  0.23800  0.19900  0.50000  1.0000
  O   O9        1.0  0.96100  0.76200  0.50000  1.0000
  O   O10       1.0  0.05920  0.40100  0.71100  1.0000
  O   O11       1.0  0.59900  0.65800  0.71100  1.0000
  O   O12       1.0  0.34200  0.94100  0.71100  1.0000
  P   P1        1.0  0.04590  0.28200  0.50000  1.0000
  P   P2        1.0  0.71800  0.76400  0.50000  1.0000
  P   P3        1.0  0.23600  0.95400  0.50000  1.0000
