data_image0
_chemical_formula_structural       C4Cs4H4O10
_chemical_formula_sum              "C4 Cs4 H4 O10"
_cell_length_a       5.95573
_cell_length_b       5.95573
_cell_length_c       11.1371
_cell_angle_alpha    104.498
_cell_angle_beta     75.5019
_cell_angle_gamma    113.144

_space_group_name_H-M_alt    "P 1"
_space_group_IT_number       1

loop_
  _space_group_symop_operation_xyz
  'x, y, z'

loop_
  _atom_site_type_symbol
  _atom_site_label
  _atom_site_symmetry_multiplicity
  _atom_site_fract_x
  _atom_site_fract_y
  _atom_site_fract_z
  _atom_site_occupancy
  C   C1        1.0  0.07730  0.55600  0.05520  1.0000
  C   C2        1.0  0.55600  0.07730  0.44500  1.0000
  C   C3        1.0  0.44400  0.92300  0.55500  1.0000
  C   C4        1.0  0.92300  0.44400  0.94500  1.0000
  Cs  Cs1       1.0  0.67700  0.93300  0.12700  1.0000
  Cs  Cs2       1.0  0.93300  0.67700  0.37300  1.0000
  Cs  Cs3       1.0  0.06690  0.32300  0.62700  1.0000
  Cs  Cs4       1.0  0.32300  0.06690  0.87300  1.0000
  H   H1        1.0  0.31700  0.40800  0.20100  1.0000
  H   H2        1.0  0.40800  0.31700  0.29900  1.0000
  H   H3        1.0  0.59200  0.68300  0.70100  1.0000
  H   H4        1.0  0.68300  0.59200  0.79900  1.0000
  O   O1        1.0  0.13300  0.40500  0.09540  1.0000
  O   O2        1.0  0.13400  0.78600  0.09700  1.0000
  O   O3        1.0  0.45000  0.45000  0.25000  1.0000
  O   O4        1.0  0.78600  0.13400  0.40300  1.0000
  O   O5        1.0  0.40500  0.13300  0.40500  1.0000
  O   O6        1.0  0.59500  0.86700  0.59500  1.0000
  O   O7        1.0  0.21400  0.86600  0.59700  1.0000
  O   O8        1.0  0.55000  0.55000  0.75000  1.0000
  O   O9        1.0  0.86600  0.21400  0.90300  1.0000
  O   O10       1.0  0.86700  0.59500  0.90500  1.0000
