data_image0
_chemical_formula_structural       As2Au2K4S8
_chemical_formula_sum              "As2 Au2 K4 S8"
_cell_length_a       6.69683
_cell_length_b       6.95778
_cell_length_c       9.67601
_cell_angle_alpha    90
_cell_angle_beta     92.5604
_cell_angle_gamma    90

_space_group_name_H-M_alt    "P 1"
_space_group_IT_number       1

loop_
  _space_group_symop_operation_xyz
  'x, y, z'

loop_
  _atom_site_type_symbol
  _atom_site_label
  _atom_site_symmetry_multiplicity
  _atom_site_fract_x
  _atom_site_fract_y
  _atom_site_fract_z
  _atom_site_occupancy
  As  As1       1.0  0.27500  0.25000  0.28000  1.0000
  As  As2       1.0  0.72500  0.75000  0.72000  1.0000
  Au  Au1       1.0  0.00000  0.00000  0.00000  1.0000
  Au  Au2       1.0  0.00000  0.50000  0.00000  1.0000
  K   K1        1.0  0.53400  0.75000  0.15900  1.0000
  K   K2        1.0  0.79700  0.25000  0.46300  1.0000
  K   K3        1.0  0.20300  0.75000  0.53700  1.0000
  K   K4        1.0  0.46600  0.25000  0.84100  1.0000
  S   S1        1.0  0.55000  0.25000  0.17200  1.0000
  S   S2        1.0  0.09610  0.51600  0.23300  1.0000
  S   S3        1.0  0.09610  0.98400  0.23300  1.0000
  S   S4        1.0  0.69600  0.75000  0.49700  1.0000
  S   S5        1.0  0.30400  0.25000  0.50300  1.0000
  S   S6        1.0  0.90400  0.01550  0.76700  1.0000
  S   S7        1.0  0.90400  0.48400  0.76700  1.0000
  S   S8        1.0  0.45000  0.75000  0.82800  1.0000
