data_image0
_chemical_formula_structural       C6CuH4N8O4
_chemical_formula_sum              "C6 Cu1 H4 N8 O4"
_cell_length_a       6.25955
_cell_length_b       6.74753
_cell_length_c       6.76515
_cell_angle_alpha    112.389
_cell_angle_beta     102.623
_cell_angle_gamma    104.419

_space_group_name_H-M_alt    "P 1"
_space_group_IT_number       1

loop_
  _space_group_symop_operation_xyz
  'x, y, z'

loop_
  _atom_site_type_symbol
  _atom_site_label
  _atom_site_symmetry_multiplicity
  _atom_site_fract_x
  _atom_site_fract_y
  _atom_site_fract_z
  _atom_site_occupancy
  C   C1        1.0  0.71100  0.36000  0.12500  1.0000
  C   C2        1.0  0.67500  0.12400  0.46000  1.0000
  C   C3        1.0  0.67100  0.91900  0.46600  1.0000
  C   C4        1.0  0.32900  0.08080  0.53400  1.0000
  C   C5        1.0  0.32500  0.87600  0.54000  1.0000
  C   C6        1.0  0.28900  0.64000  0.87500  1.0000
  Cu  Cu1       1.0  0.50000  0.50000  0.50000  1.0000
  H   H1        1.0  0.81700  0.22400  0.42900  1.0000
  H   H2        1.0  0.80600  0.85000  0.43400  1.0000
  H   H3        1.0  0.19400  0.15000  0.56600  1.0000
  H   H4        1.0  0.18300  0.77600  0.57100  1.0000
  N   N1        1.0  0.20100  0.72800  0.03140  1.0000
  N   N2        1.0  0.01060  0.26200  0.05620  1.0000
  N   N3        1.0  0.61700  0.44100  0.24800  1.0000
  N   N4        1.0  0.50300  0.20100  0.49400  1.0000
  N   N5        1.0  0.49700  0.79900  0.50600  1.0000
  N   N6        1.0  0.38300  0.55900  0.75200  1.0000
  N   N7        1.0  0.98900  0.73800  0.94400  1.0000
  N   N8        1.0  0.79900  0.27200  0.96900  1.0000
  O   O1        1.0  0.89000  0.81300  0.07940  1.0000
  O   O2        1.0  0.09590  0.32700  0.26900  1.0000
  O   O3        1.0  0.90400  0.67300  0.73100  1.0000
  O   O4        1.0  0.11000  0.18700  0.92100  1.0000
