data_image0
_chemical_formula_structural       Ca2H12N6Rb2
_chemical_formula_sum              "Ca2 H12 N6 Rb2"
_cell_length_a       6.56561
_cell_length_b       6.79806
_cell_length_c       6.79806
_cell_angle_alpha    118.669
_cell_angle_beta     99.9863
_cell_angle_gamma    99.9863

_space_group_name_H-M_alt    "P 1"
_space_group_IT_number       1

loop_
  _space_group_symop_operation_xyz
  'x, y, z'

loop_
  _atom_site_type_symbol
  _atom_site_label
  _atom_site_symmetry_multiplicity
  _atom_site_fract_x
  _atom_site_fract_y
  _atom_site_fract_z
  _atom_site_occupancy
  Ca  Ca1       1.0  0.00000  0.00000  0.00000  1.0000
  Ca  Ca2       1.0  0.50000  0.00000  0.00000  1.0000
  H   H1        1.0  0.16400  0.66800  0.10400  1.0000
  H   H2        1.0  0.30300  0.47900  0.20700  1.0000
  H   H3        1.0  0.33600  0.89600  0.33200  1.0000
  H   H4        1.0  0.39100  0.36500  0.34900  1.0000
  H   H5        1.0  0.89100  0.34900  0.36500  1.0000
  H   H6        1.0  0.80300  0.20700  0.47900  1.0000
  H   H7        1.0  0.19700  0.79300  0.52100  1.0000
  H   H8        1.0  0.10900  0.65100  0.63500  1.0000
  H   H9        1.0  0.60900  0.63500  0.65100  1.0000
  H   H10       1.0  0.66400  0.10400  0.66800  1.0000
  H   H11       1.0  0.69700  0.52100  0.79300  1.0000
  H   H12       1.0  0.83600  0.33200  0.89600  1.0000
  N   N1        1.0  0.66000  0.67200  0.82100  1.0000
  N   N2        1.0  0.25000  0.83700  0.16300  1.0000
  N   N3        1.0  0.34000  0.32800  0.17900  1.0000
  N   N4        1.0  0.84000  0.17900  0.32800  1.0000
  N   N5        1.0  0.16000  0.82100  0.67200  1.0000
  N   N6        1.0  0.75000  0.16300  0.83700  1.0000
  Rb  Rb1       1.0  0.75000  0.71000  0.29000  1.0000
  Rb  Rb2       1.0  0.25000  0.29000  0.71000  1.0000
