data_image0
_chemical_formula_structural       Al2F10Tl4
_chemical_formula_sum              "Al2 F10 Tl4"
_cell_length_a       6.07795
_cell_length_b       6.07795
_cell_length_c       7.32802
_cell_angle_alpha    90
_cell_angle_beta     90
_cell_angle_gamma    81.4836

_space_group_name_H-M_alt    "P 1"
_space_group_IT_number       1

loop_
  _space_group_symop_operation_xyz
  'x, y, z'

loop_
  _atom_site_type_symbol
  _atom_site_label
  _atom_site_symmetry_multiplicity
  _atom_site_fract_x
  _atom_site_fract_y
  _atom_site_fract_z
  _atom_site_occupancy
  Al  Al1       1.0  0.00000  0.00000  0.25000  1.0000
  Al  Al2       1.0  0.00000  0.00000  0.75000  1.0000
  F   F1        1.0  0.96700  0.96700  0.00000  1.0000
  F   F2        1.0  0.19400  0.19400  0.20800  1.0000
  F   F3        1.0  0.77300  0.22700  0.25000  1.0000
  F   F4        1.0  0.22700  0.77300  0.25000  1.0000
  F   F5        1.0  0.80600  0.80600  0.29200  1.0000
  F   F6        1.0  0.03270  0.03270  0.50000  1.0000
  F   F7        1.0  0.80600  0.80600  0.70800  1.0000
  F   F8        1.0  0.77300  0.22700  0.75000  1.0000
  F   F9        1.0  0.22700  0.77300  0.75000  1.0000
  F   F10       1.0  0.19400  0.19400  0.79200  1.0000
  Tl  Tl1       1.0  0.92700  0.49300  0.00000  1.0000
  Tl  Tl2       1.0  0.49300  0.92700  0.00000  1.0000
  Tl  Tl3       1.0  0.50700  0.07260  0.50000  1.0000
  Tl  Tl4       1.0  0.07260  0.50700  0.50000  1.0000
