data_image0
_chemical_formula_structural       H10K6Zn2
_chemical_formula_sum              "H10 K6 Zn2"
_cell_length_a       7.36594
_cell_length_b       7.36594
_cell_length_c       7.59373
_cell_angle_alpha    119.013
_cell_angle_beta     119.013
_cell_angle_gamma    90

_space_group_name_H-M_alt    "P 1"
_space_group_IT_number       1

loop_
  _space_group_symop_operation_xyz
  'x, y, z'

loop_
  _atom_site_type_symbol
  _atom_site_label
  _atom_site_symmetry_multiplicity
  _atom_site_fract_x
  _atom_site_fract_y
  _atom_site_fract_z
  _atom_site_occupancy
  H   H1        1.0  0.00000  0.00000  0.00000  1.0000
  H   H2        1.0  0.50000  0.50000  0.00000  1.0000
  H   H3        1.0  0.78800  0.03310  0.32200  1.0000
  H   H4        1.0  0.53300  0.28800  0.32200  1.0000
  H   H5        1.0  0.03310  0.53300  0.32200  1.0000
  H   H6        1.0  0.28800  0.78800  0.32200  1.0000
  H   H7        1.0  0.71200  0.21200  0.67800  1.0000
  H   H8        1.0  0.96700  0.46700  0.67800  1.0000
  H   H9        1.0  0.46700  0.71200  0.67800  1.0000
  H   H10       1.0  0.21200  0.96700  0.67800  1.0000
  K   K1        1.0  0.67900  0.17900  0.00000  1.0000
  K   K2        1.0  0.17900  0.32100  0.00000  1.0000
  K   K3        1.0  0.82100  0.67900  0.00000  1.0000
  K   K4        1.0  0.32100  0.82100  0.00000  1.0000
  K   K5        1.0  0.25000  0.25000  0.50000  1.0000
  K   K6        1.0  0.75000  0.75000  0.50000  1.0000
  Zn  Zn1       1.0  0.75000  0.25000  0.50000  1.0000
  Zn  Zn2       1.0  0.25000  0.75000  0.50000  1.0000
