data_image0
_chemical_formula_structural       Cs2F10Ni2Pd2
_chemical_formula_sum              "Cs2 F10 Ni2 Pd2"
_cell_length_a       6.14459
_cell_length_b       7.11421
_cell_length_c       7.11421
_cell_angle_alpha    93.9833
_cell_angle_beta     115.585
_cell_angle_gamma    115.585

_space_group_name_H-M_alt    "P 1"
_space_group_IT_number       1

loop_
  _space_group_symop_operation_xyz
  'x, y, z'

loop_
  _atom_site_type_symbol
  _atom_site_label
  _atom_site_symmetry_multiplicity
  _atom_site_fract_x
  _atom_site_fract_y
  _atom_site_fract_z
  _atom_site_occupancy
  Cs  Cs1       1.0  0.75000  0.37300  0.12700  1.0000
  Cs  Cs2       1.0  0.25000  0.62700  0.87300  1.0000
  F   F1        1.0  0.25000  0.32500  0.17500  1.0000
  F   F2        1.0  0.82100  0.94500  0.17900  1.0000
  F   F3        1.0  0.30200  0.94500  0.17900  1.0000
  F   F4        1.0  0.80200  0.67900  0.44500  1.0000
  F   F5        1.0  0.32100  0.67900  0.44500  1.0000
  F   F6        1.0  0.67900  0.32100  0.55500  1.0000
  F   F7        1.0  0.19800  0.32100  0.55500  1.0000
  F   F8        1.0  0.69800  0.05530  0.82100  1.0000
  F   F9        1.0  0.17900  0.05530  0.82100  1.0000
  F   F10       1.0  0.75000  0.67500  0.82500  1.0000
  Ni  Ni1       1.0  0.00000  0.00000  0.00000  1.0000
  Ni  Ni2       1.0  0.50000  0.50000  0.50000  1.0000
  Pd  Pd1       1.0  0.00000  0.00000  0.50000  1.0000
  Pd  Pd2       1.0  0.50000  0.00000  0.50000  1.0000
