data_image0
_chemical_formula_structural       H12Na8Ru2
_chemical_formula_sum              "H12 Na8 Ru2"
_cell_length_a       6.31109
_cell_length_b       6.31109
_cell_length_c       6.31109
_cell_angle_alpha    90.8754
_cell_angle_beta     89.1246
_cell_angle_gamma    90.8754

_space_group_name_H-M_alt    "P 1"
_space_group_IT_number       1

loop_
  _space_group_symop_operation_xyz
  'x, y, z'

loop_
  _atom_site_type_symbol
  _atom_site_label
  _atom_site_symmetry_multiplicity
  _atom_site_fract_x
  _atom_site_fract_y
  _atom_site_fract_z
  _atom_site_occupancy
  H   H1        1.0  0.73500  0.05950  0.05450  1.0000
  H   H2        1.0  0.94600  0.73500  0.05950  1.0000
  H   H3        1.0  0.55400  0.55900  0.23500  1.0000
  H   H4        1.0  0.05950  0.05450  0.26500  1.0000
  H   H5        1.0  0.23500  0.44600  0.44100  1.0000
  H   H6        1.0  0.55900  0.23500  0.44600  1.0000
  H   H7        1.0  0.44100  0.76500  0.55400  1.0000
  H   H8        1.0  0.76500  0.55400  0.55900  1.0000
  H   H9        1.0  0.94100  0.94600  0.73500  1.0000
  H   H10       1.0  0.44600  0.44100  0.76500  1.0000
  H   H11       1.0  0.05450  0.26500  0.94100  1.0000
  H   H12       1.0  0.26500  0.94100  0.94600  1.0000
  Na  Na1       1.0  0.37800  0.25000  0.12200  1.0000
  Na  Na2       1.0  0.25000  0.75000  0.25000  1.0000
  Na  Na3       1.0  0.87800  0.37800  0.25000  1.0000
  Na  Na4       1.0  0.75000  0.87800  0.37800  1.0000
  Na  Na5       1.0  0.25000  0.12200  0.62200  1.0000
  Na  Na6       1.0  0.75000  0.25000  0.75000  1.0000
  Na  Na7       1.0  0.12200  0.62200  0.75000  1.0000
  Na  Na8       1.0  0.62200  0.75000  0.87800  1.0000
  Ru  Ru1       1.0  0.00000  0.00000  0.00000  1.0000
  Ru  Ru2       1.0  0.50000  0.50000  0.50000  1.0000
