data_image0
_chemical_formula_structural       Cd2H8O8P4
_chemical_formula_sum              "Cd2 H8 O8 P4"
_cell_length_a       5.45242
_cell_length_b       6.47732
_cell_length_c       7.89617
_cell_angle_alpha    100.914
_cell_angle_beta     110.198
_cell_angle_gamma    90

_space_group_name_H-M_alt    "P 1"
_space_group_IT_number       1

loop_
  _space_group_symop_operation_xyz
  'x, y, z'

loop_
  _atom_site_type_symbol
  _atom_site_label
  _atom_site_symmetry_multiplicity
  _atom_site_fract_x
  _atom_site_fract_y
  _atom_site_fract_z
  _atom_site_occupancy
  Cd  Cd1       1.0  0.17500  0.25000  0.00000  1.0000
  Cd  Cd2       1.0  0.82500  0.75000  0.00000  1.0000
  H   H1        1.0  0.39800  0.92200  0.35500  1.0000
  H   H2        1.0  0.95700  0.42200  0.35500  1.0000
  H   H3        1.0  0.52700  0.62400  0.45100  1.0000
  H   H4        1.0  0.92400  0.12400  0.45100  1.0000
  H   H5        1.0  0.47300  0.37600  0.54900  1.0000
  H   H6        1.0  0.07620  0.87600  0.54900  1.0000
  H   H7        1.0  0.60200  0.07840  0.64500  1.0000
  H   H8        1.0  0.04290  0.57800  0.64500  1.0000
  O   O1        1.0  0.21200  0.60200  0.14700  1.0000
  O   O2        1.0  0.93400  0.10200  0.14700  1.0000
  O   O3        1.0  0.70700  0.72900  0.24300  1.0000
  O   O4        1.0  0.53600  0.22900  0.24300  1.0000
  O   O5        1.0  0.46400  0.77100  0.75700  1.0000
  O   O6        1.0  0.29300  0.27100  0.75700  1.0000
  O   O7        1.0  0.06570  0.89800  0.85300  1.0000
  O   O8        1.0  0.78800  0.39800  0.85300  1.0000
  P   P1        1.0  0.83000  0.21700  0.29400  1.0000
  P   P2        1.0  0.46400  0.71700  0.29400  1.0000
  P   P3        1.0  0.17000  0.78300  0.70600  1.0000
  P   P4        1.0  0.53600  0.28300  0.70600  1.0000
