data_image0
_chemical_formula_structural       Ge2Te12Ti2
_chemical_formula_sum              "Ge2 Te12 Ti2"
_cell_length_a       3.93221
_cell_length_b       7.69948
_cell_length_c       17.5743
_cell_angle_alpha    97.3164
_cell_angle_beta     96.4234
_cell_angle_gamma    104.795

_space_group_name_H-M_alt    "P 1"
_space_group_IT_number       1

loop_
  _space_group_symop_operation_xyz
  'x, y, z'

loop_
  _atom_site_type_symbol
  _atom_site_label
  _atom_site_symmetry_multiplicity
  _atom_site_fract_x
  _atom_site_fract_y
  _atom_site_fract_z
  _atom_site_occupancy
  Ge  Ge1       1.0  0.68500  0.96400  0.40600  1.0000
  Ge  Ge2       1.0  0.31500  0.03610  0.59400  1.0000
  Te  Te1       1.0  0.86300  0.70500  0.02040  1.0000
  Te  Te2       1.0  0.52400  0.92900  0.11800  1.0000
  Te  Te3       1.0  0.86700  0.55500  0.17900  1.0000
  Te  Te4       1.0  0.16400  0.07330  0.25500  1.0000
  Te  Te5       1.0  0.97900  0.61200  0.34500  1.0000
  Te  Te6       1.0  0.33600  0.20800  0.46400  1.0000
  Te  Te7       1.0  0.66400  0.79200  0.53600  1.0000
  Te  Te8       1.0  0.02130  0.38800  0.65500  1.0000
  Te  Te9       1.0  0.83600  0.92700  0.74500  1.0000
  Te  Te10      1.0  0.13300  0.44500  0.82100  1.0000
  Te  Te11      1.0  0.47600  0.07050  0.88200  1.0000
  Te  Te12      1.0  0.13700  0.29500  0.98000  1.0000
  Ti  Ti1       1.0  0.52400  0.78800  0.26000  1.0000
  Ti  Ti2       1.0  0.47600  0.21200  0.74000  1.0000
