data_image0
_chemical_formula_structural       Ba2GaHO14P4
_chemical_formula_sum              "Ba2 Ga1 H1 O14 P4"
_cell_length_a       4.76948
_cell_length_b       7.5069
_cell_length_c       8.52611
_cell_angle_alpha    108.018
_cell_angle_beta     97.4239
_cell_angle_gamma    105.407

_space_group_name_H-M_alt    "P 1"
_space_group_IT_number       1

loop_
  _space_group_symop_operation_xyz
  'x, y, z'

loop_
  _atom_site_type_symbol
  _atom_site_label
  _atom_site_symmetry_multiplicity
  _atom_site_fract_x
  _atom_site_fract_y
  _atom_site_fract_z
  _atom_site_occupancy
  Ba  Ba1       1.0  0.85200  0.52600  0.25900  1.0000
  Ba  Ba2       1.0  0.14800  0.47400  0.74100  1.0000
  Ga  Ga1       1.0  0.00000  0.00000  0.00000  1.0000
  H   H1        1.0  0.00000  1.00000  0.50000  1.0000
  O   O1        1.0  0.73600  0.16200  0.00744  1.0000
  O   O2        1.0  0.78700  0.86500  0.13500  1.0000
  O   O3        1.0  0.34200  0.60600  0.14000  1.0000
  O   O4        1.0  0.25300  0.21100  0.21700  1.0000
  O   O5        1.0  0.41900  0.95800  0.31400  1.0000
  O   O6        1.0  0.67100  0.33400  0.47200  1.0000
  O   O7        1.0  0.15400  0.15100  0.49100  1.0000
  O   O8        1.0  0.84600  0.84900  0.50900  1.0000
  O   O9        1.0  0.32900  0.66600  0.52800  1.0000
  O   O10       1.0  0.58100  0.04200  0.68600  1.0000
  O   O11       1.0  0.74700  0.78900  0.78300  1.0000
  O   O12       1.0  0.65800  0.39400  0.86000  1.0000
  O   O13       1.0  0.21300  0.13500  0.86500  1.0000
  O   O14       1.0  0.26400  0.83800  0.99300  1.0000
  P   P1        1.0  0.45600  0.81400  0.13900  1.0000
  P   P2        1.0  0.37600  0.17400  0.37700  1.0000
  P   P3        1.0  0.62400  0.82600  0.62300  1.0000
  P   P4        1.0  0.54400  0.18600  0.86100  1.0000
