data_image0
_chemical_formula_structural       C2Cd2Cl4H8N4O2
_chemical_formula_sum              "C2 Cd2 Cl4 H8 N4 O2"
_cell_length_a       3.7253
_cell_length_b       8.1154
_cell_length_c       9.90393
_cell_angle_alpha    75.6277
_cell_angle_beta     82.6193
_cell_angle_gamma    82.3291

_space_group_name_H-M_alt    "P 1"
_space_group_IT_number       1

loop_
  _space_group_symop_operation_xyz
  'x, y, z'

loop_
  _atom_site_type_symbol
  _atom_site_label
  _atom_site_symmetry_multiplicity
  _atom_site_fract_x
  _atom_site_fract_y
  _atom_site_fract_z
  _atom_site_occupancy
  C   C1        1.0  0.80800  0.96900  0.31100  1.0000
  C   C2        1.0  0.19200  0.03110  0.68900  1.0000
  Cd  Cd1       1.0  0.73400  0.38300  0.17900  1.0000
  Cd  Cd2       1.0  0.26600  0.61700  0.82100  1.0000
  Cl  Cl1       1.0  0.31500  0.30100  0.00990  1.0000
  Cl  Cl2       1.0  0.15100  0.49700  0.31400  1.0000
  Cl  Cl3       1.0  0.84900  0.50300  0.68600  1.0000
  Cl  Cl4       1.0  0.68500  0.69900  0.99000  1.0000
  H   H1        1.0  0.11200  0.03510  0.12300  1.0000
  H   H2        1.0  0.11400  0.81600  0.19300  1.0000
  H   H3        1.0  0.83000  0.71500  0.41200  1.0000
  H   H4        1.0  0.41900  0.14400  0.49300  1.0000
  H   H5        1.0  0.58100  0.85600  0.50700  1.0000
  H   H6        1.0  0.17000  0.28500  0.58800  1.0000
  H   H7        1.0  0.88600  0.18400  0.80700  1.0000
  H   H8        1.0  0.88800  0.96500  0.87700  1.0000
  N   N1        1.0  0.00125  0.93700  0.19400  1.0000
  N   N2        1.0  0.72100  0.83600  0.41500  1.0000
  N   N3        1.0  0.27900  0.16400  0.58500  1.0000
  N   N4        1.0  0.99900  0.06310  0.80600  1.0000
  O   O1        1.0  0.69700  0.12100  0.32400  1.0000
  O   O2        1.0  0.30300  0.87900  0.67600  1.0000
