data_image0
_chemical_formula_structural       Hg8I4O4
_chemical_formula_sum              "Hg8 I4 O4"
_cell_length_a       6.78592
_cell_length_b       7.11071
_cell_length_c       9.6785
_cell_angle_alpha    111.552
_cell_angle_beta     100.447
_cell_angle_gamma    90

_space_group_name_H-M_alt    "P 1"
_space_group_IT_number       1

loop_
  _space_group_symop_operation_xyz
  'x, y, z'

loop_
  _atom_site_type_symbol
  _atom_site_label
  _atom_site_symmetry_multiplicity
  _atom_site_fract_x
  _atom_site_fract_y
  _atom_site_fract_z
  _atom_site_occupancy
  Hg  Hg1       1.0  0.27600  0.90500  0.14700  1.0000
  Hg  Hg2       1.0  0.77600  0.24200  0.14700  1.0000
  Hg  Hg3       1.0  0.71800  0.14900  0.49200  1.0000
  Hg  Hg4       1.0  0.21800  0.34300  0.49200  1.0000
  Hg  Hg5       1.0  0.28200  0.85100  0.50800  1.0000
  Hg  Hg6       1.0  0.78200  0.65700  0.50800  1.0000
  Hg  Hg7       1.0  0.72400  0.09480  0.85300  1.0000
  Hg  Hg8       1.0  0.22400  0.75800  0.85300  1.0000
  I   I1        1.0  0.82200  0.78200  0.22800  1.0000
  I   I2        1.0  0.32200  0.44600  0.22800  1.0000
  I   I3        1.0  0.67800  0.55400  0.77200  1.0000
  I   I4        1.0  0.17800  0.21800  0.77200  1.0000
  O   O1        1.0  0.84300  0.34200  0.39300  1.0000
  O   O2        1.0  0.34300  0.05170  0.39300  1.0000
  O   O3        1.0  0.15700  0.65800  0.60700  1.0000
  O   O4        1.0  0.65700  0.94800  0.60700  1.0000
