data_image0
_chemical_formula_structural       Au2P2S8Tl4
_chemical_formula_sum              "Au2 P2 S8 Tl4"
_cell_length_a       6.58484
_cell_length_b       6.77984
_cell_length_c       9.41152
_cell_angle_alpha    90
_cell_angle_beta     92.9351
_cell_angle_gamma    90

_space_group_name_H-M_alt    "P 1"
_space_group_IT_number       1

loop_
  _space_group_symop_operation_xyz
  'x, y, z'

loop_
  _atom_site_type_symbol
  _atom_site_label
  _atom_site_symmetry_multiplicity
  _atom_site_fract_x
  _atom_site_fract_y
  _atom_site_fract_z
  _atom_site_occupancy
  Au  Au1       1.0  0.00000  0.00000  0.00000  1.0000
  Au  Au2       1.0  0.00000  0.50000  0.00000  1.0000
  P   P1        1.0  0.71700  0.75000  0.27000  1.0000
  P   P2        1.0  0.28300  0.25000  0.73000  1.0000
  S   S1        1.0  0.44200  0.75000  0.15900  1.0000
  S   S2        1.0  0.88200  0.00658  0.22900  1.0000
  S   S3        1.0  0.88200  0.49300  0.22900  1.0000
  S   S4        1.0  0.69700  0.75000  0.48300  1.0000
  S   S5        1.0  0.30300  0.25000  0.51700  1.0000
  S   S6        1.0  0.11800  0.50700  0.77100  1.0000
  S   S7        1.0  0.11800  0.99300  0.77100  1.0000
  S   S8        1.0  0.55800  0.25000  0.84100  1.0000
  Tl  Tl1       1.0  0.43200  0.25000  0.15000  1.0000
  Tl  Tl2       1.0  0.21000  0.75000  0.45500  1.0000
  Tl  Tl3       1.0  0.79000  0.25000  0.54500  1.0000
  Tl  Tl4       1.0  0.56800  0.75000  0.85000  1.0000
