data_image0
_chemical_formula_structural       H10K6Pd2
_chemical_formula_sum              "H10 K6 Pd2"
_cell_length_a       7.24467
_cell_length_b       7.24467
_cell_length_c       5.75392
_cell_angle_alpha    90
_cell_angle_beta     90
_cell_angle_gamma    90

_space_group_name_H-M_alt    "P 1"
_space_group_IT_number       1

loop_
  _space_group_symop_operation_xyz
  'x, y, z'

loop_
  _atom_site_type_symbol
  _atom_site_label
  _atom_site_symmetry_multiplicity
  _atom_site_fract_x
  _atom_site_fract_y
  _atom_site_fract_z
  _atom_site_occupancy
  H   H1        1.0  0.38300  0.11700  0.20000  1.0000
  H   H2        1.0  0.88300  0.38300  0.20000  1.0000
  H   H3        1.0  0.11700  0.61700  0.20000  1.0000
  H   H4        1.0  0.61700  0.88300  0.20000  1.0000
  H   H5        1.0  0.00000  0.00000  0.50000  1.0000
  H   H6        1.0  0.50000  0.50000  0.50000  1.0000
  H   H7        1.0  0.38300  0.11700  0.80000  1.0000
  H   H8        1.0  0.88300  0.38300  0.80000  1.0000
  H   H9        1.0  0.11700  0.61700  0.80000  1.0000
  H   H10       1.0  0.61700  0.88300  0.80000  1.0000
  K   K1        1.0  0.00000  0.00000  0.00000  1.0000
  K   K2        1.0  0.50000  0.50000  0.00000  1.0000
  K   K3        1.0  0.68200  0.18200  0.50000  1.0000
  K   K4        1.0  0.18200  0.31800  0.50000  1.0000
  K   K5        1.0  0.81800  0.68200  0.50000  1.0000
  K   K6        1.0  0.31800  0.81800  0.50000  1.0000
  Pd  Pd1       1.0  0.50000  0.00000  0.00000  1.0000
  Pd  Pd2       1.0  0.00000  0.50000  0.00000  1.0000
