data_image0
_chemical_formula_structural       Cl2H6Li8O6
_chemical_formula_sum              "Cl2 H6 Li8 O6"
_cell_length_a       5.33493
_cell_length_b       7.22234
_cell_length_c       6.13222
_cell_angle_alpha    90
_cell_angle_beta     93.3845
_cell_angle_gamma    90

_space_group_name_H-M_alt    "P 1"
_space_group_IT_number       1

loop_
  _space_group_symop_operation_xyz
  'x, y, z'

loop_
  _atom_site_type_symbol
  _atom_site_label
  _atom_site_symmetry_multiplicity
  _atom_site_fract_x
  _atom_site_fract_y
  _atom_site_fract_z
  _atom_site_occupancy
  Cl  Cl1       1.0  0.16500  0.25000  0.32000  1.0000
  Cl  Cl2       1.0  0.83500  0.75000  0.68000  1.0000
  H   H1        1.0  0.82300  0.04400  0.24000  1.0000
  H   H2        1.0  0.82300  0.45600  0.24000  1.0000
  H   H3        1.0  0.16100  0.75000  0.39400  1.0000
  H   H4        1.0  0.83900  0.25000  0.60600  1.0000
  H   H5        1.0  0.17700  0.54400  0.76000  1.0000
  H   H6        1.0  0.17700  0.95600  0.76000  1.0000
  Li  Li1       1.0  0.93700  0.75000  0.08120  1.0000
  Li  Li2       1.0  0.35300  0.51400  0.14800  1.0000
  Li  Li3       1.0  0.35300  0.98600  0.14800  1.0000
  Li  Li4       1.0  0.61100  0.75000  0.33700  1.0000
  Li  Li5       1.0  0.38900  0.25000  0.66300  1.0000
  Li  Li6       1.0  0.64700  0.01350  0.85200  1.0000
  Li  Li7       1.0  0.64700  0.48600  0.85200  1.0000
  Li  Li8       1.0  0.06320  0.25000  0.91900  1.0000
  O   O1        1.0  0.71700  0.54500  0.15800  1.0000
  O   O2        1.0  0.71700  0.95500  0.15800  1.0000
  O   O3        1.0  0.25100  0.75000  0.26100  1.0000
  O   O4        1.0  0.74900  0.25000  0.73900  1.0000
  O   O5        1.0  0.28300  0.04490  0.84200  1.0000
  O   O6        1.0  0.28300  0.45500  0.84200  1.0000
