data_image0
_chemical_formula_structural       C4CrH4O10Rb
_chemical_formula_sum              "C4 Cr1 H4 O10 Rb1"
_cell_length_a       4.79164
_cell_length_b       4.79164
_cell_length_c       9.91935
_cell_angle_alpha    92.9231
_cell_angle_beta     92.9231
_cell_angle_gamma    96.2704

_space_group_name_H-M_alt    "P 1"
_space_group_IT_number       1

loop_
  _space_group_symop_operation_xyz
  'x, y, z'

loop_
  _atom_site_type_symbol
  _atom_site_label
  _atom_site_symmetry_multiplicity
  _atom_site_fract_x
  _atom_site_fract_y
  _atom_site_fract_z
  _atom_site_occupancy
  C   C1        1.0  0.98100  0.76500  0.25500  1.0000
  C   C2        1.0  0.76500  0.98100  0.25500  1.0000
  C   C3        1.0  0.23500  0.01870  0.74500  1.0000
  C   C4        1.0  0.01870  0.23500  0.74500  1.0000
  Cr  Cr1       1.0  0.00000  0.00000  0.00000  1.0000
  H   H1        1.0  0.47900  0.24700  0.10500  1.0000
  H   H2        1.0  0.24700  0.47900  0.10500  1.0000
  H   H3        1.0  0.75300  0.52100  0.89500  1.0000
  H   H4        1.0  0.52100  0.75300  0.89500  1.0000
  O   O1        1.0  0.30400  0.30400  0.05880  1.0000
  O   O2        1.0  0.76000  0.12400  0.14500  1.0000
  O   O3        1.0  0.12400  0.76000  0.14500  1.0000
  O   O4        1.0  0.61200  0.00730  0.34900  1.0000
  O   O5        1.0  0.00730  0.61200  0.34900  1.0000
  O   O6        1.0  0.99300  0.38800  0.65100  1.0000
  O   O7        1.0  0.38800  0.99300  0.65100  1.0000
  O   O8        1.0  0.87600  0.24000  0.85500  1.0000
  O   O9        1.0  0.24000  0.87600  0.85500  1.0000
  O   O10       1.0  0.69600  0.69600  0.94100  1.0000
  Rb  Rb1       1.0  0.50000  0.50000  0.50000  1.0000
