data_image0
_chemical_formula_structural       B4H16Hf
_chemical_formula_sum              "B4 H16 Hf1"
_cell_length_a       5.67033
_cell_length_b       5.67033
_cell_length_c       5.67033
_cell_angle_alpha    90
_cell_angle_beta     90
_cell_angle_gamma    90

_space_group_name_H-M_alt    "P 1"
_space_group_IT_number       1

loop_
  _space_group_symop_operation_xyz
  'x, y, z'

loop_
  _atom_site_type_symbol
  _atom_site_label
  _atom_site_symmetry_multiplicity
  _atom_site_fract_x
  _atom_site_fract_y
  _atom_site_fract_z
  _atom_site_occupancy
  B   B1        1.0  0.23100  0.23100  0.23100  1.0000
  B   B2        1.0  0.76900  0.76900  0.23100  1.0000
  B   B3        1.0  0.76900  0.23100  0.76900  1.0000
  B   B4        1.0  0.23100  0.76900  0.76900  1.0000
  H   H1        1.0  0.26400  0.26400  0.01600  1.0000
  H   H2        1.0  0.73600  0.73600  0.01600  1.0000
  H   H3        1.0  0.26400  0.01600  0.26400  1.0000
  H   H4        1.0  0.01600  0.26400  0.26400  1.0000
  H   H5        1.0  0.98400  0.73600  0.26400  1.0000
  H   H6        1.0  0.73600  0.98400  0.26400  1.0000
  H   H7        1.0  0.35300  0.35300  0.35300  1.0000
  H   H8        1.0  0.64700  0.64700  0.35300  1.0000
  H   H9        1.0  0.64700  0.35300  0.64700  1.0000
  H   H10       1.0  0.35300  0.64700  0.64700  1.0000
  H   H11       1.0  0.73600  0.01600  0.73600  1.0000
  H   H12       1.0  0.98400  0.26400  0.73600  1.0000
  H   H13       1.0  0.01600  0.73600  0.73600  1.0000
  H   H14       1.0  0.26400  0.98400  0.73600  1.0000
  H   H15       1.0  0.73600  0.26400  0.98400  1.0000
  H   H16       1.0  0.26400  0.73600  0.98400  1.0000
  Hf  Hf1       1.0  0.00000  0.00000  0.00000  1.0000
