data_image0
_chemical_formula_structural       Ba2H8O8P4
_chemical_formula_sum              "Ba2 H8 O8 P4"
_cell_length_a       8.21262
_cell_length_b       6.18599
_cell_length_c       6.12308
_cell_angle_alpha    90
_cell_angle_beta     90
_cell_angle_gamma    112.124

_space_group_name_H-M_alt    "P 1"
_space_group_IT_number       1

loop_
  _space_group_symop_operation_xyz
  'x, y, z'

loop_
  _atom_site_type_symbol
  _atom_site_label
  _atom_site_symmetry_multiplicity
  _atom_site_fract_x
  _atom_site_fract_y
  _atom_site_fract_z
  _atom_site_occupancy
  Ba  Ba1       1.0  0.50000  0.25000  0.25000  1.0000
  Ba  Ba2       1.0  0.50000  0.75000  0.75000  1.0000
  H   H1        1.0  0.08360  0.66700  0.12100  1.0000
  H   H2        1.0  0.91600  0.83300  0.12100  1.0000
  H   H3        1.0  0.91600  0.08340  0.37900  1.0000
  H   H4        1.0  0.08360  0.41700  0.37900  1.0000
  H   H5        1.0  0.91600  0.58300  0.62100  1.0000
  H   H6        1.0  0.08360  0.91700  0.62100  1.0000
  H   H7        1.0  0.08360  0.16700  0.87900  1.0000
  H   H8        1.0  0.91600  0.33300  0.87900  1.0000
  O   O1        1.0  0.30400  0.50200  0.10100  1.0000
  O   O2        1.0  0.69600  0.99800  0.10100  1.0000
  O   O3        1.0  0.69600  0.69800  0.39900  1.0000
  O   O4        1.0  0.30400  0.80200  0.39900  1.0000
  O   O5        1.0  0.69600  0.19800  0.60100  1.0000
  O   O6        1.0  0.30400  0.30200  0.60100  1.0000
  O   O7        1.0  0.30400  0.00170  0.89900  1.0000
  O   O8        1.0  0.69600  0.49800  0.89900  1.0000
  P   P1        1.0  0.20000  0.60000  0.25000  1.0000
  P   P2        1.0  0.80000  0.90000  0.25000  1.0000
  P   P3        1.0  0.20000  0.10000  0.75000  1.0000
  P   P4        1.0  0.80000  0.40000  0.75000  1.0000
