data_image0
_chemical_formula_structural       Fe17H3Nd2
_chemical_formula_sum              "Fe17 H3 Nd2"
_cell_length_a       6.41544
_cell_length_b       6.41544
_cell_length_c       6.41544
_cell_angle_alpha    84.407
_cell_angle_beta     95.593
_cell_angle_gamma    95.593

_space_group_name_H-M_alt    "P 1"
_space_group_IT_number       1

loop_
  _space_group_symop_operation_xyz
  'x, y, z'

loop_
  _atom_site_type_symbol
  _atom_site_label
  _atom_site_symmetry_multiplicity
  _atom_site_fract_x
  _atom_site_fract_y
  _atom_site_fract_z
  _atom_site_occupancy
  Fe  Fe1       1.0  0.28400  0.28400  0.00000  1.0000
  Fe  Fe2       1.0  0.00000  0.50000  0.00000  1.0000
  Fe  Fe3       1.0  0.71600  0.71600  0.00000  1.0000
  Fe  Fe4       1.0  0.90300  0.09670  0.09670  1.0000
  Fe  Fe5       1.0  0.34100  0.65900  0.15200  1.0000
  Fe  Fe6       1.0  0.28300  0.00000  0.28300  1.0000
  Fe  Fe7       1.0  0.00000  0.71600  0.28400  1.0000
  Fe  Fe8       1.0  0.15200  0.34100  0.34100  1.0000
  Fe  Fe9       1.0  0.65900  0.84800  0.34100  1.0000
  Fe  Fe10      1.0  0.00000  0.00000  0.50000  1.0000
  Fe  Fe11      1.0  0.34100  0.15200  0.65900  1.0000
  Fe  Fe12      1.0  0.84800  0.65900  0.65900  1.0000
  Fe  Fe13      1.0  0.71600  0.00000  0.71600  1.0000
  Fe  Fe14      1.0  0.00000  0.28300  0.71600  1.0000
  Fe  Fe15      1.0  0.65900  0.34100  0.84800  1.0000
  Fe  Fe16      1.0  0.09670  0.90300  0.90300  1.0000
  Fe  Fe17      1.0  0.50000  0.00000  0.00000  1.0000
  H   H1        1.0  0.50000  0.00000  0.50000  1.0000
  H   H2        1.0  0.00000  0.50000  0.50000  1.0000
  H   H3        1.0  0.50000  0.50000  0.00000  1.0000
  Nd  Nd1       1.0  0.65600  0.34400  0.34400  1.0000
  Nd  Nd2       1.0  0.34400  0.65600  0.65600  1.0000
