data_image0
_chemical_formula_structural       Cu4Na2Nb2S8
_chemical_formula_sum              "Cu4 Na2 Nb2 S8"
_cell_length_a       5.48306
_cell_length_b       7.42296
_cell_length_c       9.26166
_cell_angle_alpha    90
_cell_angle_beta     72.782
_cell_angle_gamma    90

_space_group_name_H-M_alt    "P 1"
_space_group_IT_number       1

loop_
  _space_group_symop_operation_xyz
  'x, y, z'

loop_
  _atom_site_type_symbol
  _atom_site_label
  _atom_site_symmetry_multiplicity
  _atom_site_fract_x
  _atom_site_fract_y
  _atom_site_fract_z
  _atom_site_occupancy
  Cu  Cu1       1.0  0.27000  0.00000  0.00000  1.0000
  Cu  Cu2       1.0  0.27000  0.50000  0.00000  1.0000
  Cu  Cu3       1.0  0.63900  0.25000  0.21700  1.0000
  Cu  Cu4       1.0  0.85600  0.75000  0.78300  1.0000
  Na  Na1       1.0  0.81600  0.75000  0.36200  1.0000
  Na  Na2       1.0  0.17800  0.25000  0.63800  1.0000
  Nb  Nb1       1.0  0.13100  0.25000  0.23200  1.0000
  Nb  Nb2       1.0  0.36300  0.75000  0.76800  1.0000
  S   S1        1.0  0.00489  0.25000  0.01060  1.0000
  S   S2        1.0  0.38500  0.50200  0.22100  1.0000
  S   S3        1.0  0.38500  0.99800  0.22100  1.0000
  S   S4        1.0  0.77100  0.25000  0.43700  1.0000
  S   S5        1.0  0.20800  0.75000  0.56300  1.0000
  S   S6        1.0  0.60600  0.00243  0.77900  1.0000
  S   S7        1.0  0.60600  0.49800  0.77900  1.0000
  S   S8        1.0  0.01550  0.75000  0.98900  1.0000
