data_image0
_chemical_formula_structural       H4K2N4O10Pd
_chemical_formula_sum              "H4 K2 N4 O10 Pd1"
_cell_length_a       6.17929
_cell_length_b       6.97396
_cell_length_c       6.75084
_cell_angle_alpha    117.768
_cell_angle_beta     98.0381
_cell_angle_gamma    99.5065

_space_group_name_H-M_alt    "P 1"
_space_group_IT_number       1

loop_
  _space_group_symop_operation_xyz
  'x, y, z'

loop_
  _atom_site_type_symbol
  _atom_site_label
  _atom_site_symmetry_multiplicity
  _atom_site_fract_x
  _atom_site_fract_y
  _atom_site_fract_z
  _atom_site_occupancy
  H   H1        1.0  0.18700  0.60100  0.14200  1.0000
  H   H2        1.0  0.75500  0.28100  0.30100  1.0000
  H   H3        1.0  0.24500  0.71900  0.69900  1.0000
  H   H4        1.0  0.81300  0.39900  0.85800  1.0000
  K   K1        1.0  0.64100  0.71700  0.36800  1.0000
  K   K2        1.0  0.35900  0.28300  0.63200  1.0000
  N   N1        1.0  0.32100  0.91400  0.02960  1.0000
  N   N2        1.0  0.19900  0.33800  0.17300  1.0000
  N   N3        1.0  0.80100  0.66200  0.82700  1.0000
  N   N4        1.0  0.67900  0.08580  0.97000  1.0000
  O   O1        1.0  0.19300  0.44300  0.03940  1.0000
  O   O2        1.0  0.70500  0.30300  0.17000  1.0000
  O   O3        1.0  0.38200  0.90800  0.20900  1.0000
  O   O4        1.0  0.21000  0.47000  0.38100  1.0000
  O   O5        1.0  0.01710  0.94400  0.39200  1.0000
  O   O6        1.0  0.98300  0.05590  0.60800  1.0000
  O   O7        1.0  0.79000  0.53000  0.61900  1.0000
  O   O8        1.0  0.61800  0.09250  0.79100  1.0000
  O   O9        1.0  0.29500  0.69700  0.83000  1.0000
  O   O10       1.0  0.80700  0.55700  0.96100  1.0000
  Pd  Pd1       1.0  0.00000  0.00000  0.00000  1.0000
