data_image0
_chemical_formula_structural       H4O10Se2V2
_chemical_formula_sum              "H4 O10 Se2 V2"
_cell_length_a       5.77478
_cell_length_b       5.95148
_cell_length_c       6.29435
_cell_angle_alpha    92.733
_cell_angle_beta     102.11
_cell_angle_gamma    115.046

_space_group_name_H-M_alt    "P 1"
_space_group_IT_number       1

loop_
  _space_group_symop_operation_xyz
  'x, y, z'

loop_
  _atom_site_type_symbol
  _atom_site_label
  _atom_site_symmetry_multiplicity
  _atom_site_fract_x
  _atom_site_fract_y
  _atom_site_fract_z
  _atom_site_occupancy
  H   H1        1.0  0.00801  0.60900  0.19900  1.0000
  H   H2        1.0  0.20800  0.72000  0.43700  1.0000
  H   H3        1.0  0.79200  0.28000  0.56300  1.0000
  H   H4        1.0  0.99200  0.39100  0.80100  1.0000
  O   O1        1.0  0.80500  0.68200  0.01600  1.0000
  O   O2        1.0  0.38900  0.09040  0.28400  1.0000
  O   O3        1.0  0.89000  0.08220  0.30100  1.0000
  O   O4        1.0  0.13400  0.58000  0.31600  1.0000
  O   O5        1.0  0.62300  0.61100  0.36000  1.0000
  O   O6        1.0  0.37700  0.38900  0.64000  1.0000
  O   O7        1.0  0.86600  0.42000  0.68400  1.0000
  O   O8        1.0  0.11000  0.91800  0.69900  1.0000
  O   O9        1.0  0.61100  0.91000  0.71600  1.0000
  O   O10       1.0  0.19500  0.31800  0.98400  1.0000
  Se  Se1       1.0  0.64400  0.80900  0.15300  1.0000
  Se  Se2       1.0  0.35600  0.19100  0.84700  1.0000
  V   V1        1.0  0.26700  0.29400  0.30900  1.0000
  V   V2        1.0  0.73300  0.70600  0.69100  1.0000
