data_image0
_chemical_formula_structural       C6CuH8N6O2
_chemical_formula_sum              "C6 Cu1 H8 N6 O2"
_cell_length_a       6.43822
_cell_length_b       7.06409
_cell_length_c       7.28501
_cell_angle_alpha    58.8153
_cell_angle_beta     89.5694
_cell_angle_gamma    63.8036

_space_group_name_H-M_alt    "P 1"
_space_group_IT_number       1

loop_
  _space_group_symop_operation_xyz
  'x, y, z'

loop_
  _atom_site_type_symbol
  _atom_site_label
  _atom_site_symmetry_multiplicity
  _atom_site_fract_x
  _atom_site_fract_y
  _atom_site_fract_z
  _atom_site_occupancy
  C   C1        1.0  0.87600  0.56300  0.21800  1.0000
  C   C2        1.0  0.64500  0.17700  0.25600  1.0000
  C   C3        1.0  0.35800  0.82200  0.43600  1.0000
  C   C4        1.0  0.64200  0.17800  0.56400  1.0000
  C   C5        1.0  0.35500  0.82300  0.74400  1.0000
  C   C6        1.0  0.12400  0.43700  0.78200  1.0000
  Cu  Cu1       1.0  0.00000  0.00000  0.00000  1.0000
  H   H1        1.0  0.76200  0.63700  0.05880  1.0000
  H   H2        1.0  0.21900  0.49600  0.24900  1.0000
  H   H3        1.0  0.76200  0.63600  0.30500  1.0000
  H   H4        1.0  0.97300  0.35300  0.32300  1.0000
  H   H5        1.0  0.02670  0.64700  0.67700  1.0000
  H   H6        1.0  0.23800  0.36400  0.69500  1.0000
  H   H7        1.0  0.78100  0.50400  0.75100  1.0000
  H   H8        1.0  0.23800  0.36300  0.94100  1.0000
  N   N1        1.0  0.74100  0.10900  0.14700  1.0000
  N   N2        1.0  0.26400  0.88700  0.26000  1.0000
  N   N3        1.0  0.52400  0.25500  0.37100  1.0000
  N   N4        1.0  0.47600  0.74500  0.62900  1.0000
  N   N5        1.0  0.73600  0.11300  0.74000  1.0000
  N   N6        1.0  0.25900  0.89100  0.85300  1.0000
  O   O1        1.0  0.04940  0.64100  0.18000  1.0000
  O   O2        1.0  0.95100  0.35900  0.82000  1.0000
