data_image0
_chemical_formula_structural       Cl6H8Mn2O4Rb2
_chemical_formula_sum              "Cl6 H8 Mn2 O4 Rb2"
_cell_length_a       6.5757
_cell_length_b       7.01047
_cell_length_c       8.9256
_cell_angle_alpha    92.1986
_cell_angle_beta     108.852
_cell_angle_gamma    112.837

_space_group_name_H-M_alt    "P 1"
_space_group_IT_number       1

loop_
  _space_group_symop_operation_xyz
  'x, y, z'

loop_
  _atom_site_type_symbol
  _atom_site_label
  _atom_site_symmetry_multiplicity
  _atom_site_fract_x
  _atom_site_fract_y
  _atom_site_fract_z
  _atom_site_occupancy
  Cl  Cl1       1.0  0.24900  0.42200  0.15700  1.0000
  Cl  Cl2       1.0  0.77000  0.95500  0.18900  1.0000
  Cl  Cl3       1.0  0.25200  0.71600  0.49500  1.0000
  Cl  Cl4       1.0  0.74800  0.28400  0.50500  1.0000
  Cl  Cl5       1.0  0.23000  0.04520  0.81100  1.0000
  Cl  Cl6       1.0  0.75100  0.57800  0.84300  1.0000
  H   H1        1.0  0.74700  0.47500  0.06270  1.0000
  H   H2        1.0  0.61900  0.45300  0.18800  1.0000
  H   H3        1.0  0.77400  0.82100  0.39900  1.0000
  H   H4        1.0  0.58300  0.70300  0.47400  1.0000
  H   H5        1.0  0.41700  0.29700  0.52600  1.0000
  H   H6        1.0  0.22600  0.17900  0.60100  1.0000
  H   H7        1.0  0.38100  0.54700  0.81200  1.0000
  H   H8        1.0  0.25300  0.52500  0.93700  1.0000
  Mn  Mn1       1.0  0.99800  0.33200  0.33100  1.0000
  Mn  Mn2       1.0  0.00170  0.66800  0.66900  1.0000
  O   O1        1.0  0.74700  0.43200  0.16700  1.0000
  O   O2        1.0  0.75300  0.75900  0.49400  1.0000
  O   O3        1.0  0.24700  0.24100  0.50600  1.0000
  O   O4        1.0  0.25300  0.56800  0.83300  1.0000
  Rb  Rb1       1.0  0.26000  0.93900  0.17800  1.0000
  Rb  Rb2       1.0  0.74000  0.06120  0.82200  1.0000
