data_image0
_chemical_formula_structural       C4CdH8N6S4
_chemical_formula_sum              "C4 Cd1 H8 N6 S4"
_cell_length_a       3.96524
_cell_length_b       7.63226
_cell_length_c       10.0291
_cell_angle_alpha    84.7385
_cell_angle_beta     80.9072
_cell_angle_gamma    76.3777

_space_group_name_H-M_alt    "P 1"
_space_group_IT_number       1

loop_
  _space_group_symop_operation_xyz
  'x, y, z'

loop_
  _atom_site_type_symbol
  _atom_site_label
  _atom_site_symmetry_multiplicity
  _atom_site_fract_x
  _atom_site_fract_y
  _atom_site_fract_z
  _atom_site_occupancy
  C   C1        1.0  0.23600  0.30800  0.19300  1.0000
  C   C2        1.0  0.10300  0.82100  0.31400  1.0000
  C   C3        1.0  0.89700  0.17900  0.68600  1.0000
  C   C4        1.0  0.76400  0.69200  0.80700  1.0000
  Cd  Cd1       1.0  0.00000  0.00000  0.00000  1.0000
  H   H1        1.0  0.87200  0.52600  0.13200  1.0000
  H   H2        1.0  0.57300  0.09850  0.27900  1.0000
  H   H3        1.0  0.87600  0.49800  0.30700  1.0000
  H   H4        1.0  0.26000  0.24000  0.39300  1.0000
  H   H5        1.0  0.74000  0.76000  0.60700  1.0000
  H   H6        1.0  0.12400  0.50200  0.69300  1.0000
  H   H7        1.0  0.42700  0.90100  0.72100  1.0000
  H   H8        1.0  0.12800  0.47400  0.86800  1.0000
  N   N1        1.0  0.97300  0.45200  0.21300  1.0000
  N   N2        1.0  0.96400  0.91300  0.22700  1.0000
  N   N3        1.0  0.37300  0.21200  0.29600  1.0000
  N   N4        1.0  0.62700  0.78800  0.70400  1.0000
  N   N5        1.0  0.03550  0.08650  0.77300  1.0000
  N   N6        1.0  0.02720  0.54800  0.78700  1.0000
  S   S1        1.0  0.39200  0.25200  0.02620  1.0000
  S   S2        1.0  0.28300  0.69500  0.43300  1.0000
  S   S3        1.0  0.71700  0.30500  0.56700  1.0000
  S   S4        1.0  0.60800  0.74800  0.97400  1.0000
