data_image0
_chemical_formula_structural       Cl10Cs4Fe2H4O2
_chemical_formula_sum              "Cl10 Cs4 Fe2 H4 O2"
_cell_length_a       7.31014
_cell_length_b       8.13329
_cell_length_c       9.59678
_cell_angle_alpha    90
_cell_angle_beta     67.6128
_cell_angle_gamma    90

_space_group_name_H-M_alt    "P 1"
_space_group_IT_number       1

loop_
  _space_group_symop_operation_xyz
  'x, y, z'

loop_
  _atom_site_type_symbol
  _atom_site_label
  _atom_site_symmetry_multiplicity
  _atom_site_fract_x
  _atom_site_fract_y
  _atom_site_fract_z
  _atom_site_occupancy
  Cl  Cl1       1.0  0.11000  0.04500  0.22500  1.0000
  Cl  Cl2       1.0  0.66500  0.04500  0.22500  1.0000
  Cl  Cl3       1.0  0.11000  0.45500  0.22500  1.0000
  Cl  Cl4       1.0  0.66500  0.45500  0.22500  1.0000
  Cl  Cl5       1.0  0.25600  0.75000  0.48800  1.0000
  Cl  Cl6       1.0  0.74400  0.25000  0.51200  1.0000
  Cl  Cl7       1.0  0.33500  0.54500  0.77500  1.0000
  Cl  Cl8       1.0  0.89000  0.54500  0.77500  1.0000
  Cl  Cl9       1.0  0.33500  0.95500  0.77500  1.0000
  Cl  Cl10      1.0  0.89000  0.95500  0.77500  1.0000
  Cs  Cs1       1.0  0.47100  0.75000  0.05790  1.0000
  Cs  Cs2       1.0  0.75300  0.75000  0.49300  1.0000
  Cs  Cs3       1.0  0.24700  0.25000  0.50700  1.0000
  Cs  Cs4       1.0  0.52900  0.25000  0.94200  1.0000
  Fe  Fe1       1.0  0.88000  0.25000  0.24100  1.0000
  Fe  Fe2       1.0  0.12000  0.75000  0.75900  1.0000
  H   H1        1.0  0.96100  0.65300  0.07780  1.0000
  H   H2        1.0  0.96100  0.84700  0.07780  1.0000
  H   H3        1.0  0.03890  0.15300  0.92200  1.0000
  H   H4        1.0  0.03890  0.34700  0.92200  1.0000
  O   O1        1.0  0.00644  0.25000  0.98700  1.0000
  O   O2        1.0  0.99400  0.75000  0.01290  1.0000
