data_image0
_chemical_formula_structural       Cu3H6O11V2
_chemical_formula_sum              "Cu3 H6 O11 V2"
_cell_length_a       5.81843
_cell_length_b       5.97476
_cell_length_c       7.13599
_cell_angle_alpha    94.5266
_cell_angle_beta     90
_cell_angle_gamma    119.138

_space_group_name_H-M_alt    "P 1"
_space_group_IT_number       1

loop_
  _space_group_symop_operation_xyz
  'x, y, z'

loop_
  _atom_site_type_symbol
  _atom_site_label
  _atom_site_symmetry_multiplicity
  _atom_site_fract_x
  _atom_site_fract_y
  _atom_site_fract_z
  _atom_site_occupancy
  Cu  Cu1       1.0  0.00000  0.50000  0.00000  1.0000
  Cu  Cu2       1.0  0.50000  0.50000  0.00000  1.0000
  Cu  Cu3       1.0  0.00000  0.00000  0.00000  1.0000
  H   H1        1.0  0.84800  0.69700  0.26900  1.0000
  H   H2        1.0  0.01480  0.29200  0.43500  1.0000
  H   H3        1.0  0.27700  0.29200  0.43500  1.0000
  H   H4        1.0  0.72300  0.70800  0.56500  1.0000
  H   H5        1.0  0.98500  0.70800  0.56500  1.0000
  H   H6        1.0  0.15200  0.30300  0.73100  1.0000
  O   O1        1.0  0.84400  0.68900  0.12500  1.0000
  O   O2        1.0  0.33900  0.67900  0.15000  1.0000
  O   O3        1.0  0.33800  0.15700  0.18900  1.0000
  O   O4        1.0  0.81900  0.15700  0.18900  1.0000
  O   O5        1.0  0.82900  0.65700  0.48300  1.0000
  O   O6        1.0  0.50000  0.00000  0.50000  1.0000
  O   O7        1.0  0.17100  0.34300  0.51700  1.0000
  O   O8        1.0  0.18100  0.84300  0.81100  1.0000
  O   O9        1.0  0.66200  0.84300  0.81100  1.0000
  O   O10       1.0  0.66100  0.32100  0.85000  1.0000
  O   O11       1.0  0.15600  0.31100  0.87500  1.0000
  V   V1        1.0  0.49900  0.99800  0.25100  1.0000
  V   V2        1.0  0.50100  0.00151  0.74900  1.0000
