data_image0
_chemical_formula_structural       O12Xe4
_chemical_formula_sum              "O12 Xe4"
_cell_length_a       5.88696
_cell_length_b       7.63502
_cell_length_c       5.14381
_cell_angle_alpha    90
_cell_angle_beta     90
_cell_angle_gamma    90

_space_group_name_H-M_alt    "P 1"
_space_group_IT_number       1

loop_
  _space_group_symop_operation_xyz
  'x, y, z'

loop_
  _atom_site_type_symbol
  _atom_site_label
  _atom_site_symmetry_multiplicity
  _atom_site_fract_x
  _atom_site_fract_y
  _atom_site_fract_z
  _atom_site_occupancy
  O   O1        1.0  0.81000  0.58500  0.07590  1.0000
  O   O2        1.0  0.54800  0.25300  0.09410  1.0000
  O   O3        1.0  0.85400  0.93100  0.11000  1.0000
  O   O4        1.0  0.14600  0.43100  0.39000  1.0000
  O   O5        1.0  0.45200  0.75300  0.40600  1.0000
  O   O6        1.0  0.19000  0.08500  0.42400  1.0000
  O   O7        1.0  0.69000  0.41500  0.57600  1.0000
  O   O8        1.0  0.95200  0.74700  0.59400  1.0000
  O   O9        1.0  0.64600  0.06910  0.61000  1.0000
  O   O10       1.0  0.35400  0.56900  0.89000  1.0000
  O   O11       1.0  0.04790  0.24700  0.90600  1.0000
  O   O12       1.0  0.31000  0.91500  0.92400  1.0000
  Xe  Xe1       1.0  0.93900  0.16600  0.23500  1.0000
  Xe  Xe2       1.0  0.06140  0.66600  0.26500  1.0000
  Xe  Xe3       1.0  0.56100  0.83400  0.73500  1.0000
  Xe  Xe4       1.0  0.43900  0.33400  0.76500  1.0000
