data_image0
_chemical_formula_structural       C4CrH8N6S4
_chemical_formula_sum              "C4 Cr1 H8 N6 S4"
_cell_length_a       3.88065
_cell_length_b       7.46972
_cell_length_c       10.1539
_cell_angle_alpha    82.729
_cell_angle_beta     78.1019
_cell_angle_gamma    76.6655

_space_group_name_H-M_alt    "P 1"
_space_group_IT_number       1

loop_
  _space_group_symop_operation_xyz
  'x, y, z'

loop_
  _atom_site_type_symbol
  _atom_site_label
  _atom_site_symmetry_multiplicity
  _atom_site_fract_x
  _atom_site_fract_y
  _atom_site_fract_z
  _atom_site_occupancy
  C   C1        1.0  0.24400  0.30400  0.19300  1.0000
  C   C2        1.0  0.75900  0.82200  0.29300  1.0000
  C   C3        1.0  0.24100  0.17800  0.70700  1.0000
  C   C4        1.0  0.75600  0.69600  0.80700  1.0000
  Cr  Cr1       1.0  0.00000  0.00000  0.00000  1.0000
  H   H1        1.0  0.44300  0.53800  0.12600  1.0000
  H   H2        1.0  0.04280  0.08320  0.28400  1.0000
  H   H3        1.0  0.32300  0.50300  0.30100  1.0000
  H   H4        1.0  0.10900  0.23100  0.39600  1.0000
  H   H5        1.0  0.89100  0.76900  0.60400  1.0000
  H   H6        1.0  0.67700  0.49700  0.69900  1.0000
  H   H7        1.0  0.95700  0.91700  0.71600  1.0000
  H   H8        1.0  0.55700  0.46200  0.87400  1.0000
  N   N1        1.0  0.88400  0.90300  0.19200  1.0000
  N   N2        1.0  0.34500  0.45800  0.20900  1.0000
  N   N3        1.0  0.11000  0.20200  0.30000  1.0000
  N   N4        1.0  0.89000  0.79800  0.70000  1.0000
  N   N5        1.0  0.65500  0.54200  0.79100  1.0000
  N   N6        1.0  0.11600  0.09720  0.80800  1.0000
  S   S1        1.0  0.29600  0.24300  0.03040  1.0000
  S   S2        1.0  0.58700  0.71100  0.42700  1.0000
  S   S3        1.0  0.41300  0.28900  0.57300  1.0000
  S   S4        1.0  0.70400  0.75700  0.97000  1.0000
