data_image0
_chemical_formula_structural       Al4Ge2H4O12
_chemical_formula_sum              "Al4 Ge2 H4 O12"
_cell_length_a       4.94406
_cell_length_b       4.94406
_cell_length_c       8.91491
_cell_angle_alpha    96.93
_cell_angle_beta     96.93
_cell_angle_gamma    114.425

_space_group_name_H-M_alt    "P 1"
_space_group_IT_number       1

loop_
  _space_group_symop_operation_xyz
  'x, y, z'

loop_
  _atom_site_type_symbol
  _atom_site_label
  _atom_site_symmetry_multiplicity
  _atom_site_fract_x
  _atom_site_fract_y
  _atom_site_fract_z
  _atom_site_occupancy
  Al  Al1       1.0  0.55700  0.79100  0.08540  1.0000
  Al  Al2       1.0  0.70900  0.94300  0.41500  1.0000
  Al  Al3       1.0  0.29100  0.05670  0.58500  1.0000
  Al  Al4       1.0  0.44300  0.20900  0.91500  1.0000
  Ge  Ge1       1.0  0.27300  0.22700  0.25000  1.0000
  Ge  Ge2       1.0  0.72700  0.77300  0.75000  1.0000
  H   H1        1.0  0.97200  0.64300  0.06860  1.0000
  H   H2        1.0  0.85700  0.52800  0.43100  1.0000
  H   H3        1.0  0.14300  0.47200  0.56900  1.0000
  H   H4        1.0  0.02760  0.35700  0.93100  1.0000
  O   O1        1.0  0.75200  0.54900  0.04680  1.0000
  O   O2        1.0  0.32800  0.01810  0.08760  1.0000
  O   O3        1.0  0.87800  0.08170  0.23900  1.0000
  O   O4        1.0  0.41800  0.62200  0.26100  1.0000
  O   O5        1.0  0.48200  0.17200  0.41200  1.0000
  O   O6        1.0  0.95100  0.74800  0.45300  1.0000
  O   O7        1.0  0.04850  0.25200  0.54700  1.0000
  O   O8        1.0  0.51800  0.82800  0.58800  1.0000
  O   O9        1.0  0.58200  0.37800  0.73900  1.0000
  O   O10       1.0  0.12200  0.91800  0.76100  1.0000
  O   O11       1.0  0.67200  0.98200  0.91200  1.0000
  O   O12       1.0  0.24800  0.45100  0.95300  1.0000
