data_image0
_chemical_formula_structural       Cu2H8O8P4
_chemical_formula_sum              "Cu2 H8 O8 P4"
_cell_length_a       7.02385
_cell_length_b       5.2681
_cell_length_c       6.13967
_cell_angle_alpha    90
_cell_angle_beta     99.115
_cell_angle_gamma    90

_space_group_name_H-M_alt    "P 1"
_space_group_IT_number       1

loop_
  _space_group_symop_operation_xyz
  'x, y, z'

loop_
  _atom_site_type_symbol
  _atom_site_label
  _atom_site_symmetry_multiplicity
  _atom_site_fract_x
  _atom_site_fract_y
  _atom_site_fract_z
  _atom_site_occupancy
  Cu  Cu1       1.0  0.00000  0.00000  0.00000  1.0000
  Cu  Cu2       1.0  0.00000  0.50000  0.50000  1.0000
  H   H1        1.0  0.69500  0.42100  0.03860  1.0000
  H   H2        1.0  0.55900  0.98200  0.19400  1.0000
  H   H3        1.0  0.44100  0.48200  0.30600  1.0000
  H   H4        1.0  0.30500  0.92100  0.46100  1.0000
  H   H5        1.0  0.69500  0.07930  0.53900  1.0000
  H   H6        1.0  0.55900  0.51800  0.69400  1.0000
  H   H7        1.0  0.44100  0.01840  0.80600  1.0000
  H   H8        1.0  0.30500  0.57900  0.96100  1.0000
  O   O1        1.0  0.24400  0.16900  0.11000  1.0000
  O   O2        1.0  0.10300  0.60400  0.23100  1.0000
  O   O3        1.0  0.89700  0.10400  0.26900  1.0000
  O   O4        1.0  0.75600  0.66900  0.39000  1.0000
  O   O5        1.0  0.24400  0.33100  0.61000  1.0000
  O   O6        1.0  0.10300  0.89600  0.73100  1.0000
  O   O7        1.0  0.89700  0.39600  0.76900  1.0000
  O   O8        1.0  0.75600  0.83100  0.89000  1.0000
  P   P1        1.0  0.26800  0.45500  0.15400  1.0000
  P   P2        1.0  0.73200  0.95500  0.34600  1.0000
  P   P3        1.0  0.26800  0.04530  0.65400  1.0000
  P   P4        1.0  0.73200  0.54500  0.84600  1.0000
