data_image0
_chemical_formula_structural       CuH12N2O6Sn
_chemical_formula_sum              "Cu1 H12 N2 O6 Sn1"
_cell_length_a       5.48179
_cell_length_b       6.52698
_cell_length_c       4.75719
_cell_angle_alpha    91.1316
_cell_angle_beta     93.0879
_cell_angle_gamma    108.56

_space_group_name_H-M_alt    "P 1"
_space_group_IT_number       1

loop_
  _space_group_symop_operation_xyz
  'x, y, z'

loop_
  _atom_site_type_symbol
  _atom_site_label
  _atom_site_symmetry_multiplicity
  _atom_site_fract_x
  _atom_site_fract_y
  _atom_site_fract_z
  _atom_site_occupancy
  Cu  Cu1       1.0  0.00000  0.50000  0.00000  1.0000
  H   H1        1.0  0.48300  0.65700  0.17100  1.0000
  H   H2        1.0  0.64300  0.12600  0.23600  1.0000
  H   H3        1.0  0.34500  0.41000  0.28000  1.0000
  H   H4        1.0  0.98700  0.74900  0.40600  1.0000
  H   H5        1.0  0.29500  0.04980  0.43100  1.0000
  H   H6        1.0  0.29900  0.62400  0.44100  1.0000
  H   H7        1.0  0.70100  0.37600  0.55900  1.0000
  H   H8        1.0  0.70500  0.95000  0.56900  1.0000
  H   H9        1.0  0.01270  0.25100  0.59400  1.0000
  H   H10       1.0  0.65500  0.59000  0.72000  1.0000
  H   H11       1.0  0.35700  0.87400  0.76400  1.0000
  H   H12       1.0  0.51700  0.34300  0.82900  1.0000
  N   N1        1.0  0.31700  0.55800  0.24900  1.0000
  N   N2        1.0  0.68300  0.44200  0.75100  1.0000
  O   O1        1.0  0.88700  0.71200  0.21900  1.0000
  O   O2        1.0  0.33900  0.12100  0.24900  1.0000
  O   O3        1.0  0.82800  0.14100  0.29200  1.0000
  O   O4        1.0  0.17200  0.85900  0.70800  1.0000
  O   O5        1.0  0.66100  0.87900  0.75100  1.0000
  O   O6        1.0  0.11300  0.28800  0.78100  1.0000
  Sn  Sn1       1.0  0.00000  0.00000  0.00000  1.0000
