data_image0
_chemical_formula_structural       Cl3H12N5OOs
_chemical_formula_sum              "Cl3 H12 N5 O1 Os1"
_cell_length_a       6.63585
_cell_length_b       6.63585
_cell_length_c       6.63585
_cell_angle_alpha    102.314
_cell_angle_beta     113.164
_cell_angle_gamma    113.164

_space_group_name_H-M_alt    "P 1"
_space_group_IT_number       1

loop_
  _space_group_symop_operation_xyz
  'x, y, z'

loop_
  _atom_site_type_symbol
  _atom_site_label
  _atom_site_symmetry_multiplicity
  _atom_site_fract_x
  _atom_site_fract_y
  _atom_site_fract_z
  _atom_site_occupancy
  Cl  Cl1       1.0  0.00000  0.25100  0.25100  1.0000
  Cl  Cl2       1.0  0.50000  0.75500  0.25500  1.0000
  Cl  Cl3       1.0  0.50000  0.25500  0.75500  1.0000
  H   H1        1.0  0.48600  0.25000  0.08830  1.0000
  H   H2        1.0  0.83800  0.60200  0.08830  1.0000
  H   H3        1.0  0.48600  0.08830  0.25000  1.0000
  H   H4        1.0  0.16200  0.76400  0.25000  1.0000
  H   H5        1.0  0.00000  0.86500  0.33600  1.0000
  H   H6        1.0  0.47100  0.33600  0.33600  1.0000
  H   H7        1.0  0.83800  0.08830  0.60200  1.0000
  H   H8        1.0  0.51400  0.76400  0.60200  1.0000
  H   H9        1.0  0.16200  0.25000  0.76400  1.0000
  H   H10       1.0  0.51400  0.60200  0.76400  1.0000
  H   H11       1.0  0.00000  0.33600  0.86500  1.0000
  H   H12       1.0  0.52900  0.86500  0.86500  1.0000
  N   N1        1.0  0.41100  0.18900  0.18900  1.0000
  N   N2        1.0  0.00000  0.77700  0.18900  1.0000
  N   N3        1.0  0.00000  0.76100  0.76100  1.0000
  N   N4        1.0  0.00000  0.18900  0.77700  1.0000
  N   N5        1.0  0.58900  0.77700  0.77700  1.0000
  O   O1        1.0  0.00000  0.61800  0.61800  1.0000
  Os  Os1       1.0  1.00000  0.97100  0.97100  1.0000
