data_image0
_chemical_formula_structural       B2Cl2Cu2H8O8
_chemical_formula_sum              "B2 Cl2 Cu2 H8 O8"
_cell_length_a       6.12816
_cell_length_b       6.12816
_cell_length_c       5.47968
_cell_angle_alpha    90
_cell_angle_beta     90
_cell_angle_gamma    90

_space_group_name_H-M_alt    "P 1"
_space_group_IT_number       1

loop_
  _space_group_symop_operation_xyz
  'x, y, z'

loop_
  _atom_site_type_symbol
  _atom_site_label
  _atom_site_symmetry_multiplicity
  _atom_site_fract_x
  _atom_site_fract_y
  _atom_site_fract_z
  _atom_site_occupancy
  B   B1        1.0  0.00000  0.00000  0.50000  1.0000
  B   B2        1.0  0.50000  0.50000  0.50000  1.0000
  Cl  Cl1       1.0  0.00000  0.50000  0.14900  1.0000
  Cl  Cl2       1.0  0.50000  0.00000  0.85100  1.0000
  Cu  Cu1       1.0  0.50000  0.00000  0.37700  1.0000
  Cu  Cu2       1.0  0.00000  0.50000  0.62300  1.0000
  H   H1        1.0  0.84400  0.18100  0.24000  1.0000
  H   H2        1.0  0.31900  0.34400  0.24000  1.0000
  H   H3        1.0  0.68100  0.65600  0.24000  1.0000
  H   H4        1.0  0.15600  0.81900  0.24000  1.0000
  H   H5        1.0  0.18100  0.15600  0.76000  1.0000
  H   H6        1.0  0.65600  0.31900  0.76000  1.0000
  H   H7        1.0  0.34400  0.68100  0.76000  1.0000
  H   H8        1.0  0.81900  0.84400  0.76000  1.0000
  O   O1        1.0  0.81500  0.04820  0.33800  1.0000
  O   O2        1.0  0.45200  0.31500  0.33800  1.0000
  O   O3        1.0  0.54800  0.68500  0.33800  1.0000
  O   O4        1.0  0.18500  0.95200  0.33800  1.0000
  O   O5        1.0  0.04820  0.18500  0.66200  1.0000
  O   O6        1.0  0.68500  0.45200  0.66200  1.0000
  O   O7        1.0  0.31500  0.54800  0.66200  1.0000
  O   O8        1.0  0.95200  0.81500  0.66200  1.0000
