data_image0
_chemical_formula_structural       Ag4S8Sb4
_chemical_formula_sum              "Ag4 S8 Sb4"
_cell_length_a       4.51167
_cell_length_b       6.87799
_cell_length_c       13.3314
_cell_angle_alpha    97.9885
_cell_angle_beta     90
_cell_angle_gamma    109.146

_space_group_name_H-M_alt    "P 1"
_space_group_IT_number       1

loop_
  _space_group_symop_operation_xyz
  'x, y, z'

loop_
  _atom_site_type_symbol
  _atom_site_label
  _atom_site_symmetry_multiplicity
  _atom_site_fract_x
  _atom_site_fract_y
  _atom_site_fract_z
  _atom_site_occupancy
  Ag  Ag1       1.0  0.50000  0.00000  0.00000  1.0000
  Ag  Ag2       1.0  0.97900  0.00000  0.25000  1.0000
  Ag  Ag3       1.0  0.50000  0.00000  0.50000  1.0000
  Ag  Ag4       1.0  0.02130  1.00000  0.75000  1.0000
  S   S1        1.0  0.70600  0.77900  0.08350  1.0000
  S   S2        1.0  0.49500  0.28700  0.19900  1.0000
  S   S3        1.0  0.20700  0.71300  0.30100  1.0000
  S   S4        1.0  0.92700  0.22100  0.41700  1.0000
  S   S5        1.0  0.07270  0.77900  0.58300  1.0000
  S   S6        1.0  0.79300  0.28700  0.69900  1.0000
  S   S7        1.0  0.50500  0.71300  0.80100  1.0000
  S   S8        1.0  0.29400  0.22100  0.91700  1.0000
  Sb  Sb1       1.0  0.22000  0.50900  0.12600  1.0000
  Sb  Sb2       1.0  0.71100  0.49100  0.37400  1.0000
  Sb  Sb3       1.0  0.28900  0.50900  0.62600  1.0000
  Sb  Sb4       1.0  0.78000  0.49100  0.87400  1.0000
