data_image0
_chemical_formula_structural       B4H16Zn2
_chemical_formula_sum              "B4 H16 Zn2"
_cell_length_a       4.17875
_cell_length_b       4.92033
_cell_length_c       8.06711
_cell_angle_alpha    90
_cell_angle_beta     90
_cell_angle_gamma    90

_space_group_name_H-M_alt    "P 1"
_space_group_IT_number       1

loop_
  _space_group_symop_operation_xyz
  'x, y, z'

loop_
  _atom_site_type_symbol
  _atom_site_label
  _atom_site_symmetry_multiplicity
  _atom_site_fract_x
  _atom_site_fract_y
  _atom_site_fract_z
  _atom_site_occupancy
  B   B1        1.0  0.00000  0.53800  0.24800  1.0000
  B   B2        1.0  0.50000  0.93800  0.47000  1.0000
  B   B3        1.0  0.00000  0.46200  0.74800  1.0000
  B   B4        1.0  0.50000  0.06160  0.97000  1.0000
  H   H1        1.0  0.27900  0.00441  0.06860  1.0000
  H   H2        1.0  0.72100  0.00441  0.06860  1.0000
  H   H3        1.0  0.25400  0.48500  0.17900  1.0000
  H   H4        1.0  0.74600  0.48500  0.17900  1.0000
  H   H5        1.0  0.00000  0.78500  0.26000  1.0000
  H   H6        1.0  0.50000  0.08300  0.35100  1.0000
  H   H7        1.0  0.00000  0.39900  0.37700  1.0000
  H   H8        1.0  0.50000  0.69800  0.42900  1.0000
  H   H9        1.0  0.27900  0.99600  0.56900  1.0000
  H   H10       1.0  0.72100  0.99600  0.56900  1.0000
  H   H11       1.0  0.25400  0.51500  0.67900  1.0000
  H   H12       1.0  0.74600  0.51500  0.67900  1.0000
  H   H13       1.0  0.00000  0.21500  0.76000  1.0000
  H   H14       1.0  0.50000  0.91700  0.85100  1.0000
  H   H15       1.0  0.00000  0.60100  0.87700  1.0000
  H   H16       1.0  0.50000  0.30200  0.92900  1.0000
  Zn  Zn1       1.0  0.00000  0.28300  0.01020  1.0000
  Zn  Zn2       1.0  0.00000  0.71700  0.51000  1.0000
