data_image0
_chemical_formula_structural       BaH2O14P4Si
_chemical_formula_sum              "Ba1 H2 O14 P4 Si1"
_cell_length_a       4.572
_cell_length_b       6.58022
_cell_length_c       8.87864
_cell_angle_alpha    75.4226
_cell_angle_beta     85.33
_cell_angle_gamma    75.6338

_space_group_name_H-M_alt    "P 1"
_space_group_IT_number       1

loop_
  _space_group_symop_operation_xyz
  'x, y, z'

loop_
  _atom_site_type_symbol
  _atom_site_label
  _atom_site_symmetry_multiplicity
  _atom_site_fract_x
  _atom_site_fract_y
  _atom_site_fract_z
  _atom_site_occupancy
  Ba  Ba1       1.0  0.00000  0.00000  0.00000  1.0000
  H   H1        1.0  0.44700  0.45900  0.16300  1.0000
  H   H2        1.0  0.55300  0.54100  0.83700  1.0000
  O   O1        1.0  0.68100  0.38600  0.15900  1.0000
  O   O2        1.0  0.12600  0.55700  0.16000  1.0000
  O   O3        1.0  0.48600  0.90300  0.17000  1.0000
  O   O4        1.0  0.85900  0.92200  0.34800  1.0000
  O   O5        1.0  0.08760  0.22200  0.36000  1.0000
  O   O6        1.0  0.72100  0.56700  0.37500  1.0000
  O   O7        1.0  0.36000  0.84500  0.46800  1.0000
  O   O8        1.0  0.64000  0.15500  0.53200  1.0000
  O   O9        1.0  0.27900  0.43300  0.62500  1.0000
  O   O10       1.0  0.91200  0.77800  0.64000  1.0000
  O   O11       1.0  0.14100  0.07760  0.65200  1.0000
  O   O12       1.0  0.51400  0.09660  0.83000  1.0000
  O   O13       1.0  0.87400  0.44300  0.84000  1.0000
  O   O14       1.0  0.31900  0.61400  0.84100  1.0000
  P   P1        1.0  0.91100  0.43300  0.25700  1.0000
  P   P2        1.0  0.59000  0.82600  0.33500  1.0000
  P   P3        1.0  0.41000  0.17400  0.66500  1.0000
  P   P4        1.0  0.08910  0.56700  0.74300  1.0000
  Si  Si1       1.0  0.00000  0.00000  0.50000  1.0000
