data_image0
_chemical_formula_structural       F8O4Te4
_chemical_formula_sum              "F8 O4 Te4"
_cell_length_a       5.40037
_cell_length_b       7.83727
_cell_length_c       5.11477
_cell_angle_alpha    90
_cell_angle_beta     96.7889
_cell_angle_gamma    90

_space_group_name_H-M_alt    "P 1"
_space_group_IT_number       1

loop_
  _space_group_symop_operation_xyz
  'x, y, z'

loop_
  _atom_site_type_symbol
  _atom_site_label
  _atom_site_symmetry_multiplicity
  _atom_site_fract_x
  _atom_site_fract_y
  _atom_site_fract_z
  _atom_site_occupancy
  F   F1        1.0  0.30100  0.56500  0.04700  1.0000
  F   F2        1.0  0.82300  0.55500  0.19100  1.0000
  F   F3        1.0  0.44600  0.27200  0.19300  1.0000
  F   F4        1.0  0.25300  0.82000  0.37700  1.0000
  F   F5        1.0  0.74700  0.32000  0.62300  1.0000
  F   F6        1.0  0.55400  0.77200  0.80700  1.0000
  F   F7        1.0  0.17700  0.05480  0.80900  1.0000
  F   F8        1.0  0.69900  0.06520  0.95300  1.0000
  O   O1        1.0  0.05280  0.11200  0.29600  1.0000
  O   O2        1.0  0.73700  0.86100  0.38300  1.0000
  O   O3        1.0  0.26300  0.36100  0.61700  1.0000
  O   O4        1.0  0.94700  0.61200  0.70400  1.0000
  Te  Te1       1.0  0.95100  0.90400  0.10600  1.0000
  Te  Te2       1.0  0.62300  0.64000  0.49400  1.0000
  Te  Te3       1.0  0.37700  0.14000  0.50600  1.0000
  Te  Te4       1.0  0.04890  0.40400  0.89400  1.0000
