data_image0
_chemical_formula_structural       Pu2
_chemical_formula_sum              "Pu2"
_cell_length_a       3.26345
_cell_length_b       3.39956
_cell_length_c       5.66376
_cell_angle_alpha    97.9485
_cell_angle_beta     106.744
_cell_angle_gamma    61.3158

_space_group_name_H-M_alt    "P 1"
_space_group_IT_number       1

loop_
  _space_group_symop_operation_xyz
  'x, y, z'

loop_
  _atom_site_type_symbol
  _atom_site_label
  _atom_site_symmetry_multiplicity
  _atom_site_fract_x
  _atom_site_fract_y
  _atom_site_fract_z
  _atom_site_occupancy
  Pu  Pu1       1.0  0.00000  0.00000  0.00000  1.0000
  Pu  Pu2       1.0  0.25000  0.50000  0.50000  1.0000
