data_image0
_chemical_formula_structural       BaH9Re
_chemical_formula_sum              "Ba1 H9 Re1"
_cell_length_a       4.66385
_cell_length_b       4.66384
_cell_length_c       4.66385
_cell_angle_alpha    94.8533
_cell_angle_beta     94.8533
_cell_angle_gamma    94.8533

_space_group_name_H-M_alt    "P 1"
_space_group_IT_number       1

loop_
  _space_group_symop_operation_xyz
  'x, y, z'

loop_
  _atom_site_type_symbol
  _atom_site_label
  _atom_site_symmetry_multiplicity
  _atom_site_fract_x
  _atom_site_fract_y
  _atom_site_fract_z
  _atom_site_occupancy
  Ba  Ba1       1.0  0.00000  0.00000  0.00000  1.0000
  H   H1        1.0  0.31900  0.51900  0.16900  1.0000
  H   H2        1.0  0.74500  0.50000  0.25500  1.0000
  H   H3        1.0  0.51900  0.16900  0.31900  1.0000
  H   H4        1.0  0.68100  0.83100  0.48100  1.0000
  H   H5        1.0  0.25500  0.74500  0.50000  1.0000
  H   H6        1.0  0.16900  0.31900  0.51900  1.0000
  H   H7        1.0  0.83100  0.48100  0.68100  1.0000
  H   H8        1.0  0.50000  0.25500  0.74500  1.0000
  H   H9        1.0  0.48100  0.68100  0.83100  1.0000
  Re  Re1       1.0  0.50000  0.50000  0.50000  1.0000
