data_image0
_chemical_formula_structural       C2Cl6F6Si2
_chemical_formula_sum              "C2 Cl6 F6 Si2"
_cell_length_a       5.93783
_cell_length_b       7.19869
_cell_length_c       7.19869
_cell_angle_alpha    77.4404
_cell_angle_beta     92.0784
_cell_angle_gamma    92.0784

_space_group_name_H-M_alt    "P 1"
_space_group_IT_number       1

loop_
  _space_group_symop_operation_xyz
  'x, y, z'

loop_
  _atom_site_type_symbol
  _atom_site_label
  _atom_site_symmetry_multiplicity
  _atom_site_fract_x
  _atom_site_fract_y
  _atom_site_fract_z
  _atom_site_occupancy
  C   C1        1.0  0.75900  0.35500  0.35500  1.0000
  C   C2        1.0  0.24100  0.64500  0.64500  1.0000
  Cl  Cl1       1.0  0.18900  0.69400  0.06610  1.0000
  Cl  Cl2       1.0  0.34000  0.16900  0.16900  1.0000
  Cl  Cl3       1.0  0.81100  0.93400  0.30600  1.0000
  Cl  Cl4       1.0  0.18900  0.06610  0.69400  1.0000
  Cl  Cl5       1.0  0.66000  0.83100  0.83100  1.0000
  Cl  Cl6       1.0  0.81100  0.30600  0.93400  1.0000
  F   F1        1.0  0.67900  0.53300  0.28900  1.0000
  F   F2        1.0  0.98900  0.37500  0.37500  1.0000
  F   F3        1.0  0.32100  0.71100  0.46700  1.0000
  F   F4        1.0  0.67900  0.28900  0.53300  1.0000
  F   F5        1.0  0.01100  0.62500  0.62500  1.0000
  F   F6        1.0  0.32100  0.46700  0.71100  1.0000
  Si  Si1       1.0  0.67900  0.18700  0.18700  1.0000
  Si  Si2       1.0  0.32100  0.81300  0.81300  1.0000
