data_image0
_chemical_formula_structural       H6O12P3Pr
_chemical_formula_sum              "H6 O12 P3 Pr1"
_cell_length_a       6.50033
_cell_length_b       6.50042
_cell_length_c       6.12218
_cell_angle_alpha    90
_cell_angle_beta     90
_cell_angle_gamma    120

_space_group_name_H-M_alt    "P 1"
_space_group_IT_number       1

loop_
  _space_group_symop_operation_xyz
  'x, y, z'

loop_
  _atom_site_type_symbol
  _atom_site_label
  _atom_site_symmetry_multiplicity
  _atom_site_fract_x
  _atom_site_fract_y
  _atom_site_fract_z
  _atom_site_occupancy
  H   H1        1.0  0.37400  0.16900  0.12600  1.0000
  H   H2        1.0  0.83000  0.20500  0.12600  1.0000
  H   H3        1.0  0.79500  0.62600  0.12600  1.0000
  H   H4        1.0  0.37400  0.16900  0.87400  1.0000
  H   H5        1.0  0.79500  0.62600  0.87400  1.0000
  H   H6        1.0  0.83000  0.20500  0.87400  1.0000
  O   O1        1.0  0.35700  0.06850  0.00000  1.0000
  O   O2        1.0  0.93100  0.28900  0.00000  1.0000
  O   O3        1.0  0.71100  0.64300  0.00000  1.0000
  O   O4        1.0  0.34600  0.40400  0.28900  1.0000
  O   O5        1.0  0.59600  0.94200  0.28900  1.0000
  O   O6        1.0  0.05800  0.65400  0.28900  1.0000
  O   O7        1.0  0.24100  0.03830  0.50000  1.0000
  O   O8        1.0  0.96200  0.20200  0.50000  1.0000
  O   O9        1.0  0.79800  0.75900  0.50000  1.0000
  O   O10       1.0  0.05800  0.65400  0.71100  1.0000
  O   O11       1.0  0.34600  0.40400  0.71100  1.0000
  O   O12       1.0  0.59600  0.94200  0.71100  1.0000
  P   P1        1.0  0.23900  0.28400  0.50000  1.0000
  P   P2        1.0  0.04530  0.76100  0.50000  1.0000
  P   P3        1.0  0.71600  0.95500  0.50000  1.0000
  Pr  Pr1       1.0  0.33300  0.66700  0.00000  1.0000
