data_image0
_chemical_formula_structural       Ca2H4O14P4
_chemical_formula_sum              "Ca2 H4 O14 P4"
_cell_length_a       5.41363
_cell_length_b       5.41363
_cell_length_c       9.65156
_cell_angle_alpha    97.7874
_cell_angle_beta     97.7874
_cell_angle_gamma    95.5879

_space_group_name_H-M_alt    "P 1"
_space_group_IT_number       1

loop_
  _space_group_symop_operation_xyz
  'x, y, z'

loop_
  _atom_site_type_symbol
  _atom_site_label
  _atom_site_symmetry_multiplicity
  _atom_site_fract_x
  _atom_site_fract_y
  _atom_site_fract_z
  _atom_site_occupancy
  Ca  Ca1       1.0  0.00000  0.00000  0.00000  1.0000
  Ca  Ca2       1.0  0.00000  0.00000  0.50000  1.0000
  H   H1        1.0  0.91600  0.50800  0.15000  1.0000
  H   H2        1.0  0.49200  0.08410  0.35000  1.0000
  H   H3        1.0  0.50800  0.91600  0.65000  1.0000
  H   H4        1.0  0.08410  0.49200  0.85000  1.0000
  O   O1        1.0  0.33500  0.84300  0.09730  1.0000
  O   O2        1.0  0.78700  0.72600  0.12200  1.0000
  O   O3        1.0  0.01910  0.36100  0.17500  1.0000
  O   O4        1.0  0.48300  0.51700  0.25000  1.0000
  O   O5        1.0  0.63900  0.98100  0.32500  1.0000
  O   O6        1.0  0.27400  0.21300  0.37800  1.0000
  O   O7        1.0  0.15700  0.66500  0.40300  1.0000
  O   O8        1.0  0.84300  0.33500  0.59700  1.0000
  O   O9        1.0  0.72600  0.78700  0.62200  1.0000
  O   O10       1.0  0.36100  0.01910  0.67500  1.0000
  O   O11       1.0  0.51700  0.48300  0.75000  1.0000
  O   O12       1.0  0.98100  0.63900  0.82500  1.0000
  O   O13       1.0  0.21300  0.27400  0.87800  1.0000
  O   O14       1.0  0.66500  0.15700  0.90300  1.0000
  P   P1        1.0  0.55500  0.77500  0.18900  1.0000
  P   P2        1.0  0.22500  0.44500  0.31100  1.0000
  P   P3        1.0  0.77500  0.55500  0.68900  1.0000
  P   P4        1.0  0.44500  0.22500  0.81100  1.0000
