data_image0
_chemical_formula_structural       Ga4H16Rb4
_chemical_formula_sum              "Ga4 H16 Rb4"
_cell_length_a       9.24422
_cell_length_b       5.60804
_cell_length_c       7.41731
_cell_angle_alpha    90
_cell_angle_beta     90
_cell_angle_gamma    90

_space_group_name_H-M_alt    "P 1"
_space_group_IT_number       1

loop_
  _space_group_symop_operation_xyz
  'x, y, z'

loop_
  _atom_site_type_symbol
  _atom_site_label
  _atom_site_symmetry_multiplicity
  _atom_site_fract_x
  _atom_site_fract_y
  _atom_site_fract_z
  _atom_site_occupancy
  Ga  Ga1       1.0  0.43800  0.75000  0.19300  1.0000
  Ga  Ga2       1.0  0.93800  0.75000  0.30700  1.0000
  Ga  Ga3       1.0  0.06230  0.25000  0.69300  1.0000
  Ga  Ga4       1.0  0.56200  0.25000  0.80700  1.0000
  H   H1        1.0  0.31400  0.75000  0.04370  1.0000
  H   H2        1.0  0.59700  0.75000  0.11000  1.0000
  H   H3        1.0  0.91700  0.52000  0.18100  1.0000
  H   H4        1.0  0.91700  0.98000  0.18100  1.0000
  H   H5        1.0  0.41700  0.52000  0.31900  1.0000
  H   H6        1.0  0.41700  0.98000  0.31900  1.0000
  H   H7        1.0  0.09650  0.75000  0.39000  1.0000
  H   H8        1.0  0.81400  0.75000  0.45600  1.0000
  H   H9        1.0  0.18600  0.25000  0.54400  1.0000
  H   H10       1.0  0.90300  0.25000  0.61000  1.0000
  H   H11       1.0  0.58300  0.01970  0.68100  1.0000
  H   H12       1.0  0.58300  0.48000  0.68100  1.0000
  H   H13       1.0  0.08250  0.01970  0.81900  1.0000
  H   H14       1.0  0.08250  0.48000  0.81900  1.0000
  H   H15       1.0  0.40300  0.25000  0.89000  1.0000
  H   H16       1.0  0.68600  0.25000  0.95600  1.0000
  Rb  Rb1       1.0  0.18200  0.25000  0.16200  1.0000
  Rb  Rb2       1.0  0.68200  0.25000  0.33800  1.0000
  Rb  Rb3       1.0  0.31800  0.75000  0.66200  1.0000
  Rb  Rb4       1.0  0.81800  0.75000  0.83800  1.0000
