data_image0
_chemical_formula_structural       C4FeH8N6S4
_chemical_formula_sum              "C4 Fe1 H8 N6 S4"
_cell_length_a       10.0368
_cell_length_b       7.55841
_cell_length_c       3.77445
_cell_angle_alpha    104.256
_cell_angle_beta     81.2549
_cell_angle_gamma    96.9899

_space_group_name_H-M_alt    "P 1"
_space_group_IT_number       1

loop_
  _space_group_symop_operation_xyz
  'x, y, z'

loop_
  _atom_site_type_symbol
  _atom_site_label
  _atom_site_symmetry_multiplicity
  _atom_site_fract_x
  _atom_site_fract_y
  _atom_site_fract_z
  _atom_site_occupancy
  C   C1        1.0  0.29300  0.18700  0.11900  1.0000
  C   C2        1.0  0.19300  0.70800  0.21400  1.0000
  C   C3        1.0  0.80700  0.29200  0.78600  1.0000
  C   C4        1.0  0.70700  0.81300  0.88100  1.0000
  Fe  Fe1       1.0  0.00000  0.00000  0.00000  1.0000
  H   H1        1.0  0.87400  0.52800  0.13500  1.0000
  H   H2        1.0  0.69800  0.48800  0.16000  1.0000
  H   H3        1.0  0.39600  0.78300  0.23200  1.0000
  H   H4        1.0  0.71700  0.07080  0.45700  1.0000
  H   H5        1.0  0.28300  0.92900  0.54300  1.0000
  H   H6        1.0  0.60400  0.21700  0.76800  1.0000
  H   H7        1.0  0.30200  0.51200  0.84000  1.0000
  H   H8        1.0  0.12600  0.47200  0.86500  1.0000
  N   N1        1.0  0.80500  0.89500  0.00175  1.0000
  N   N2        1.0  0.79100  0.44500  0.04810  1.0000
  N   N3        1.0  0.29900  0.81100  0.34600  1.0000
  N   N4        1.0  0.70100  0.18900  0.65400  1.0000
  N   N5        1.0  0.20900  0.55500  0.95200  1.0000
  N   N6        1.0  0.19500  0.10500  0.99800  1.0000
  S   S1        1.0  0.42600  0.29900  0.28400  1.0000
  S   S2        1.0  0.03030  0.76900  0.37200  1.0000
  S   S3        1.0  0.97000  0.23100  0.62800  1.0000
  S   S4        1.0  0.57400  0.70100  0.71600  1.0000
