data_image0
_chemical_formula_structural       Cu2Pd2Rb2Se10
_chemical_formula_sum              "Cu2 Pd2 Rb2 Se10"
_cell_length_a       6.36781
_cell_length_b       7.39381
_cell_length_c       9.20681
_cell_angle_alpha    90
_cell_angle_beta     102.962
_cell_angle_gamma    90

_space_group_name_H-M_alt    "P 1"
_space_group_IT_number       1

loop_
  _space_group_symop_operation_xyz
  'x, y, z'

loop_
  _atom_site_type_symbol
  _atom_site_label
  _atom_site_symmetry_multiplicity
  _atom_site_fract_x
  _atom_site_fract_y
  _atom_site_fract_z
  _atom_site_occupancy
  Cu  Cu1       1.0  0.88800  0.75000  0.39100  1.0000
  Cu  Cu2       1.0  0.11200  0.25000  0.60900  1.0000
  Pd  Pd1       1.0  0.50000  0.00000  0.50000  1.0000
  Pd  Pd2       1.0  0.50000  0.50000  0.50000  1.0000
  Rb  Rb1       1.0  0.25300  0.25000  0.05050  1.0000
  Rb  Rb2       1.0  0.74700  0.75000  0.95000  1.0000
  Se  Se1       1.0  0.29900  0.75000  0.11200  1.0000
  Se  Se2       1.0  0.68500  0.00895  0.28800  1.0000
  Se  Se3       1.0  0.68500  0.49100  0.28800  1.0000
  Se  Se4       1.0  0.95600  0.25000  0.34600  1.0000
  Se  Se5       1.0  0.27200  0.75000  0.36600  1.0000
  Se  Se6       1.0  0.72800  0.25000  0.63400  1.0000
  Se  Se7       1.0  0.04360  0.75000  0.65400  1.0000
  Se  Se8       1.0  0.31500  0.50900  0.71200  1.0000
  Se  Se9       1.0  0.31500  0.99100  0.71200  1.0000
  Se  Se10      1.0  0.70100  0.25000  0.88800  1.0000
