data_image0
_chemical_formula_structural       B2Cl2H8Na4O8
_chemical_formula_sum              "B2 Cl2 H8 Na4 O8"
_cell_length_a       7.18255
_cell_length_b       7.18255
_cell_length_c       4.73299
_cell_angle_alpha    90
_cell_angle_beta     90
_cell_angle_gamma    90

_space_group_name_H-M_alt    "P 1"
_space_group_IT_number       1

loop_
  _space_group_symop_operation_xyz
  'x, y, z'

loop_
  _atom_site_type_symbol
  _atom_site_label
  _atom_site_symmetry_multiplicity
  _atom_site_fract_x
  _atom_site_fract_y
  _atom_site_fract_z
  _atom_site_occupancy
  B   B1        1.0  0.75000  0.25000  0.00000  1.0000
  B   B2        1.0  0.25000  0.75000  0.00000  1.0000
  Cl  Cl1       1.0  0.75000  0.75000  0.25500  1.0000
  Cl  Cl2       1.0  0.25000  0.25000  0.74500  1.0000
  H   H1        1.0  0.25000  0.02260  0.06230  1.0000
  H   H2        1.0  0.02260  0.25000  0.06230  1.0000
  H   H3        1.0  0.47700  0.25000  0.06230  1.0000
  H   H4        1.0  0.25000  0.47700  0.06230  1.0000
  H   H5        1.0  0.75000  0.52300  0.93800  1.0000
  H   H6        1.0  0.52300  0.75000  0.93800  1.0000
  H   H7        1.0  0.97700  0.75000  0.93800  1.0000
  H   H8        1.0  0.75000  0.97700  0.93800  1.0000
  Na  Na1       1.0  0.00000  0.00000  0.50000  1.0000
  Na  Na2       1.0  0.50000  0.00000  0.50000  1.0000
  Na  Na3       1.0  0.00000  0.50000  0.50000  1.0000
  Na  Na4       1.0  0.50000  0.50000  0.50000  1.0000
  O   O1        1.0  0.58500  0.25000  0.19000  1.0000
  O   O2        1.0  0.91500  0.25000  0.19000  1.0000
  O   O3        1.0  0.25000  0.58500  0.19000  1.0000
  O   O4        1.0  0.25000  0.91500  0.19000  1.0000
  O   O5        1.0  0.75000  0.08500  0.81000  1.0000
  O   O6        1.0  0.75000  0.41500  0.81000  1.0000
  O   O7        1.0  0.08500  0.75000  0.81000  1.0000
  O   O8        1.0  0.41500  0.75000  0.81000  1.0000
