data_image0
_chemical_formula_structural       H8I8O4Sr4
_chemical_formula_sum              "H8 I8 O4 Sr4"
_cell_length_a       12.4402
_cell_length_b       4.47858
_cell_length_c       9.7937
_cell_angle_alpha    90
_cell_angle_beta     90
_cell_angle_gamma    90

_space_group_name_H-M_alt    "P 1"
_space_group_IT_number       1

loop_
  _space_group_symop_operation_xyz
  'x, y, z'

loop_
  _atom_site_type_symbol
  _atom_site_label
  _atom_site_symmetry_multiplicity
  _atom_site_fract_x
  _atom_site_fract_y
  _atom_site_fract_z
  _atom_site_occupancy
  H   H1        1.0  0.35400  0.75000  0.02790  1.0000
  H   H2        1.0  0.37400  0.75000  0.18500  1.0000
  H   H3        1.0  0.87400  0.75000  0.31500  1.0000
  H   H4        1.0  0.85400  0.75000  0.47200  1.0000
  H   H5        1.0  0.14600  0.25000  0.52800  1.0000
  H   H6        1.0  0.12600  0.25000  0.68500  1.0000
  H   H7        1.0  0.62600  0.25000  0.81500  1.0000
  H   H8        1.0  0.64600  0.25000  0.97200  1.0000
  I   I1        1.0  0.89500  0.25000  0.11300  1.0000
  I   I2        1.0  0.60600  0.75000  0.14300  1.0000
  I   I3        1.0  0.10600  0.75000  0.35700  1.0000
  I   I4        1.0  0.39500  0.25000  0.38700  1.0000
  I   I5        1.0  0.60500  0.75000  0.61300  1.0000
  I   I6        1.0  0.89400  0.25000  0.64300  1.0000
  I   I7        1.0  0.39400  0.25000  0.85700  1.0000
  I   I8        1.0  0.10500  0.75000  0.88700  1.0000
  O   O1        1.0  0.31600  0.75000  0.11600  1.0000
  O   O2        1.0  0.81600  0.75000  0.38400  1.0000
  O   O3        1.0  0.18400  0.25000  0.61600  1.0000
  O   O4        1.0  0.68400  0.25000  0.88400  1.0000
  Sr  Sr1       1.0  0.19600  0.25000  0.12400  1.0000
  Sr  Sr2       1.0  0.69600  0.25000  0.37600  1.0000
  Sr  Sr3       1.0  0.30400  0.75000  0.62400  1.0000
  Sr  Sr4       1.0  0.80400  0.75000  0.87600  1.0000
