data_image0
_chemical_formula_structural       As2CuFe2H2O10
_chemical_formula_sum              "As2 Cu1 Fe2 H2 O10"
_cell_length_a       5.26747
_cell_length_b       5.35968
_cell_length_c       7.20932
_cell_angle_alpha    100.989
_cell_angle_beta     97.4303
_cell_angle_gamma    111.895

_space_group_name_H-M_alt    "P 1"
_space_group_IT_number       1

loop_
  _space_group_symop_operation_xyz
  'x, y, z'

loop_
  _atom_site_type_symbol
  _atom_site_label
  _atom_site_symmetry_multiplicity
  _atom_site_fract_x
  _atom_site_fract_y
  _atom_site_fract_z
  _atom_site_occupancy
  As  As1       1.0  0.64900  0.16200  0.27800  1.0000
  As  As2       1.0  0.35100  0.83800  0.72200  1.0000
  Cu  Cu1       1.0  0.00000  0.00000  0.00000  1.0000
  Fe  Fe1       1.0  0.33700  0.55900  0.31200  1.0000
  Fe  Fe2       1.0  0.66300  0.44100  0.68800  1.0000
  H   H1        1.0  0.91200  0.70500  0.43700  1.0000
  H   H2        1.0  0.08800  0.29500  0.56300  1.0000
  O   O1        1.0  0.92500  0.30200  0.16400  1.0000
  O   O2        1.0  0.53000  0.80600  0.16900  1.0000
  O   O3        1.0  0.33400  0.18900  0.19400  1.0000
  O   O4        1.0  0.71400  0.56400  0.42800  1.0000
  O   O5        1.0  0.23600  0.83900  0.48100  1.0000
  O   O6        1.0  0.76400  0.16100  0.51900  1.0000
  O   O7        1.0  0.28600  0.43600  0.57200  1.0000
  O   O8        1.0  0.66600  0.81100  0.80600  1.0000
  O   O9        1.0  0.47000  0.19400  0.83100  1.0000
  O   O10       1.0  0.07480  0.69800  0.83600  1.0000
