data_image0
_chemical_formula_structural       H4Li4O12Se4
_chemical_formula_sum              "H4 Li4 O12 Se4"
_cell_length_a       4.92508
_cell_length_b       11.093
_cell_length_c       5.20952
_cell_angle_alpha    90
_cell_angle_beta     90
_cell_angle_gamma    90

_space_group_name_H-M_alt    "P 1"
_space_group_IT_number       1

loop_
  _space_group_symop_operation_xyz
  'x, y, z'

loop_
  _atom_site_type_symbol
  _atom_site_label
  _atom_site_symmetry_multiplicity
  _atom_site_fract_x
  _atom_site_fract_y
  _atom_site_fract_z
  _atom_site_occupancy
  H   H1        1.0  0.25400  0.82900  0.18700  1.0000
  H   H2        1.0  0.74600  0.32900  0.31300  1.0000
  H   H3        1.0  0.24600  0.17100  0.68700  1.0000
  H   H4        1.0  0.75400  0.67100  0.81300  1.0000
  Li  Li1       1.0  0.26300  0.41800  0.19000  1.0000
  Li  Li2       1.0  0.73700  0.91800  0.31000  1.0000
  Li  Li3       1.0  0.23700  0.58200  0.69000  1.0000
  Li  Li4       1.0  0.76300  0.08160  0.81000  1.0000
  O   O1        1.0  0.42600  0.86500  0.10100  1.0000
  O   O2        1.0  0.90500  0.05240  0.15000  1.0000
  O   O3        1.0  0.00919  0.28600  0.19400  1.0000
  O   O4        1.0  0.99100  0.78600  0.30600  1.0000
  O   O5        1.0  0.09480  0.55200  0.35000  1.0000
  O   O6        1.0  0.57400  0.36500  0.39900  1.0000
  O   O7        1.0  0.07430  0.13500  0.60100  1.0000
  O   O8        1.0  0.59500  0.94800  0.65000  1.0000
  O   O9        1.0  0.49100  0.71400  0.69400  1.0000
  O   O10       1.0  0.50900  0.21400  0.80600  1.0000
  O   O11       1.0  0.40500  0.44800  0.85000  1.0000
  O   O12       1.0  0.92600  0.63500  0.89900  1.0000
  Se  Se1       1.0  0.85400  0.64800  0.24200  1.0000
  Se  Se2       1.0  0.14600  0.14800  0.25800  1.0000
  Se  Se3       1.0  0.64600  0.35200  0.74200  1.0000
  Se  Se4       1.0  0.35400  0.85200  0.75800  1.0000
