data_image0
_chemical_formula_structural       H2K4N2O12S4
_chemical_formula_sum              "H2 K4 N2 O12 S4"
_cell_length_a       7.03482
_cell_length_b       7.17533
_cell_length_c       7.17533
_cell_angle_alpha    62.2982
_cell_angle_beta     90.5617
_cell_angle_gamma    90.5617

_space_group_name_H-M_alt    "P 1"
_space_group_IT_number       1

loop_
  _space_group_symop_operation_xyz
  'x, y, z'

loop_
  _atom_site_type_symbol
  _atom_site_label
  _atom_site_symmetry_multiplicity
  _atom_site_fract_x
  _atom_site_fract_y
  _atom_site_fract_z
  _atom_site_occupancy
  H   H1        1.0  0.25000  0.56100  0.43900  1.0000
  H   H2        1.0  0.75000  0.43900  0.56100  1.0000
  K   K1        1.0  0.86100  0.29200  0.01900  1.0000
  K   K2        1.0  0.36100  0.01900  0.29200  1.0000
  K   K3        1.0  0.63900  0.98100  0.70800  1.0000
  K   K4        1.0  0.13900  0.70800  0.98100  1.0000
  N   N1        1.0  0.75000  0.57700  0.42300  1.0000
  N   N2        1.0  0.25000  0.42300  0.57700  1.0000
  O   O1        1.0  0.76700  0.65300  0.04630  1.0000
  O   O2        1.0  0.47000  0.71700  0.17100  1.0000
  O   O3        1.0  0.03030  0.82900  0.28300  1.0000
  O   O4        1.0  0.58200  0.35300  0.30300  1.0000
  O   O5        1.0  0.73300  0.95400  0.34700  1.0000
  O   O6        1.0  0.08220  0.30300  0.35300  1.0000
  O   O7        1.0  0.91800  0.69700  0.64700  1.0000
  O   O8        1.0  0.26700  0.04630  0.65300  1.0000
  O   O9        1.0  0.41800  0.64700  0.69700  1.0000
  O   O10       1.0  0.97000  0.17100  0.71700  1.0000
  O   O11       1.0  0.53000  0.28300  0.82900  1.0000
  O   O12       1.0  0.23300  0.34700  0.95400  1.0000
  S   S1        1.0  0.63300  0.57500  0.22200  1.0000
  S   S2        1.0  0.86700  0.77800  0.42500  1.0000
  S   S3        1.0  0.13300  0.22200  0.57500  1.0000
  S   S4        1.0  0.36700  0.42500  0.77800  1.0000
