data_image0
_chemical_formula_structural       H4I4O14Sr2
_chemical_formula_sum              "H4 I4 O14 Sr2"
_cell_length_a       7.53598
_cell_length_b       7.53598
_cell_length_c       7.51922
_cell_angle_alpha    108.426
_cell_angle_beta     101.396
_cell_angle_gamma    119.174

_space_group_name_H-M_alt    "P 1"
_space_group_IT_number       1

loop_
  _space_group_symop_operation_xyz
  'x, y, z'

loop_
  _atom_site_type_symbol
  _atom_site_label
  _atom_site_symmetry_multiplicity
  _atom_site_fract_x
  _atom_site_fract_y
  _atom_site_fract_z
  _atom_site_occupancy
  H   H1        1.0  0.21600  0.90700  0.13400  1.0000
  H   H2        1.0  0.27300  0.08190  0.36600  1.0000
  H   H3        1.0  0.72700  0.91800  0.63400  1.0000
  H   H4        1.0  0.78400  0.09300  0.86600  1.0000
  I   I1        1.0  0.65100  0.97600  0.20000  1.0000
  I   I2        1.0  0.27700  0.45100  0.30000  1.0000
  I   I3        1.0  0.72300  0.54900  0.70000  1.0000
  I   I4        1.0  0.34900  0.02370  0.80000  1.0000
  O   O1        1.0  0.59800  0.72300  0.99300  1.0000
  O   O2        1.0  0.40200  0.27700  0.00659  1.0000
  O   O3        1.0  0.74100  0.17300  0.08480  1.0000
  O   O4        1.0  0.21300  0.55200  0.12500  1.0000
  O   O5        1.0  0.17200  0.92200  0.25000  1.0000
  O   O6        1.0  0.92700  0.08780  0.37500  1.0000
  O   O7        1.0  0.58800  0.65600  0.41500  1.0000
  O   O8        1.0  0.77100  0.39500  0.49300  1.0000
  O   O9        1.0  0.22900  0.60500  0.50700  1.0000
  O   O10       1.0  0.41200  0.34400  0.58500  1.0000
  O   O11       1.0  0.07310  0.91200  0.62500  1.0000
  O   O12       1.0  0.82800  0.07840  0.75000  1.0000
  O   O13       1.0  0.78700  0.44800  0.87500  1.0000
  O   O14       1.0  0.25900  0.82700  0.91500  1.0000
  Sr  Sr1       1.0  0.84700  0.59700  0.25000  1.0000
  Sr  Sr2       1.0  0.15300  0.40300  0.75000  1.0000
