data_image0
_chemical_formula_structural       Cl2Re6Se8
_chemical_formula_sum              "Cl2 Re6 Se8"
_cell_length_a       6.66944
_cell_length_b       6.71776
_cell_length_c       9.32566
_cell_angle_alpha    99.9481
_cell_angle_beta     113.095
_cell_angle_gamma    93.7142

_space_group_name_H-M_alt    "P 1"
_space_group_IT_number       1

loop_
  _space_group_symop_operation_xyz
  'x, y, z'

loop_
  _atom_site_type_symbol
  _atom_site_label
  _atom_site_symmetry_multiplicity
  _atom_site_fract_x
  _atom_site_fract_y
  _atom_site_fract_z
  _atom_site_occupancy
  Cl  Cl1       1.0  0.36700  0.21500  0.02070  1.0000
  Cl  Cl2       1.0  0.63300  0.78500  0.97900  1.0000
  Re  Re1       1.0  0.44200  0.37300  0.28700  1.0000
  Re  Re2       1.0  0.20600  0.53900  0.43400  1.0000
  Re  Re3       1.0  0.57000  0.75400  0.46400  1.0000
  Re  Re4       1.0  0.43000  0.24600  0.53600  1.0000
  Re  Re5       1.0  0.79400  0.46100  0.56600  1.0000
  Re  Re6       1.0  0.55800  0.62700  0.71300  1.0000
  Se  Se1       1.0  0.23400  0.66300  0.19900  1.0000
  Se  Se2       1.0  0.09590  0.17600  0.27100  1.0000
  Se  Se3       1.0  0.78600  0.59400  0.31300  1.0000
  Se  Se4       1.0  0.67700  0.10100  0.39400  1.0000
  Se  Se5       1.0  0.32300  0.89900  0.60600  1.0000
  Se  Se6       1.0  0.21400  0.40600  0.68700  1.0000
  Se  Se7       1.0  0.90400  0.82400  0.72900  1.0000
  Se  Se8       1.0  0.76600  0.33700  0.80100  1.0000
