data_image0
_chemical_formula_structural       H12N6NiO4
_chemical_formula_sum              "H12 N6 Ni1 O4"
_cell_length_a       5.73225
_cell_length_b       6.12615
_cell_length_c       6.12615
_cell_angle_alpha    64.6714
_cell_angle_beta     110.738
_cell_angle_gamma    110.738

_space_group_name_H-M_alt    "P 1"
_space_group_IT_number       1

loop_
  _space_group_symop_operation_xyz
  'x, y, z'

loop_
  _atom_site_type_symbol
  _atom_site_label
  _atom_site_symmetry_multiplicity
  _atom_site_fract_x
  _atom_site_fract_y
  _atom_site_fract_z
  _atom_site_occupancy
  H   H1        1.0  0.53900  0.71700  0.06240  1.0000
  H   H2        1.0  0.74300  0.53800  0.18000  1.0000
  H   H3        1.0  0.46100  0.93800  0.28300  1.0000
  H   H4        1.0  0.26000  0.66100  0.30500  1.0000
  H   H5        1.0  0.74000  0.69500  0.33900  1.0000
  H   H6        1.0  0.25700  0.82000  0.46200  1.0000
  H   H7        1.0  0.74300  0.18000  0.53800  1.0000
  H   H8        1.0  0.26000  0.30500  0.66100  1.0000
  H   H9        1.0  0.74000  0.33900  0.69500  1.0000
  H   H10       1.0  0.53900  0.06240  0.71700  1.0000
  H   H11       1.0  0.25700  0.46200  0.82000  1.0000
  H   H12       1.0  0.46100  0.28300  0.93800  1.0000
  N   N1        1.0  0.72300  0.70500  0.16200  1.0000
  N   N2        1.0  0.99500  0.20400  0.20400  1.0000
  N   N3        1.0  0.27700  0.83800  0.29500  1.0000
  N   N4        1.0  0.72300  0.16200  0.70500  1.0000
  N   N5        1.0  0.00521  0.79600  0.79600  1.0000
  N   N6        1.0  0.27700  0.29500  0.83800  1.0000
  Ni  Ni1       1.0  0.00000  0.00000  0.00000  1.0000
  O   O1        1.0  0.78500  0.21800  0.21800  1.0000
  O   O2        1.0  0.20000  0.31500  0.31500  1.0000
  O   O3        1.0  0.80000  0.68500  0.68500  1.0000
  O   O4        1.0  0.21500  0.78200  0.78200  1.0000
