data_image0
_chemical_formula_structural       H12NiO9S
_chemical_formula_sum              "H12 Ni1 O9 S1"
_cell_length_a       5.75865
_cell_length_b       5.75865
_cell_length_c       5.75865
_cell_angle_alpha    96.3265
_cell_angle_beta     96.3265
_cell_angle_gamma    96.3265

_space_group_name_H-M_alt    "P 1"
_space_group_IT_number       1

loop_
  _space_group_symop_operation_xyz
  'x, y, z'

loop_
  _atom_site_type_symbol
  _atom_site_label
  _atom_site_symmetry_multiplicity
  _atom_site_fract_x
  _atom_site_fract_y
  _atom_site_fract_z
  _atom_site_occupancy
  H   H1        1.0  0.54100  0.96400  0.02580  1.0000
  H   H2        1.0  0.41000  0.28500  0.07080  1.0000
  H   H3        1.0  0.63200  0.74000  0.14000  1.0000
  H   H4        1.0  0.79800  0.37500  0.19000  1.0000
  H   H5        1.0  0.07080  0.41000  0.28500  1.0000
  H   H6        1.0  0.19000  0.79800  0.37500  1.0000
  H   H7        1.0  0.28500  0.07080  0.41000  1.0000
  H   H8        1.0  0.96400  0.02580  0.54100  1.0000
  H   H9        1.0  0.74000  0.14000  0.63200  1.0000
  H   H10       1.0  0.14000  0.63200  0.74000  1.0000
  H   H11       1.0  0.37500  0.19000  0.79800  1.0000
  H   H12       1.0  0.02580  0.54100  0.96400  1.0000
  Ni  Ni1       1.0  0.00365  0.00365  0.00365  1.0000
  O   O1        1.0  0.68200  0.89400  0.08700  1.0000
  O   O2        1.0  0.95500  0.34100  0.14300  1.0000
  O   O3        1.0  0.56300  0.49200  0.25200  1.0000
  O   O4        1.0  0.14300  0.95500  0.34100  1.0000
  O   O5        1.0  0.25200  0.56300  0.49200  1.0000
  O   O6        1.0  0.49200  0.25200  0.56300  1.0000
  O   O7        1.0  0.89400  0.08700  0.68200  1.0000
  O   O8        1.0  0.08700  0.68200  0.89400  1.0000
  O   O9        1.0  0.34100  0.14300  0.95500  1.0000
  S   S1        1.0  0.51100  0.51100  0.51100  1.0000
