data_image0
_chemical_formula_structural       Cl8H8O4Sr4
_chemical_formula_sum              "Cl8 H8 O4 Sr4"
_cell_length_a       10.9
_cell_length_b       4.13977
_cell_length_c       8.88735
_cell_angle_alpha    90
_cell_angle_beta     90
_cell_angle_gamma    90

_space_group_name_H-M_alt    "P 1"
_space_group_IT_number       1

loop_
  _space_group_symop_operation_xyz
  'x, y, z'

loop_
  _atom_site_type_symbol
  _atom_site_label
  _atom_site_symmetry_multiplicity
  _atom_site_fract_x
  _atom_site_fract_y
  _atom_site_fract_z
  _atom_site_occupancy
  Cl  Cl1       1.0  0.90000  0.25000  0.11700  1.0000
  Cl  Cl2       1.0  0.61900  0.75000  0.16400  1.0000
  Cl  Cl3       1.0  0.11900  0.75000  0.33600  1.0000
  Cl  Cl4       1.0  0.40000  0.25000  0.38300  1.0000
  Cl  Cl5       1.0  0.60000  0.75000  0.61700  1.0000
  Cl  Cl6       1.0  0.88100  0.25000  0.66400  1.0000
  Cl  Cl7       1.0  0.38100  0.25000  0.83600  1.0000
  Cl  Cl8       1.0  0.09960  0.75000  0.88300  1.0000
  H   H1        1.0  0.62400  0.25000  0.99500  1.0000
  H   H2        1.0  0.37600  0.75000  0.00515  1.0000
  H   H3        1.0  0.39700  0.75000  0.17800  1.0000
  H   H4        1.0  0.89700  0.75000  0.32200  1.0000
  H   H5        1.0  0.87600  0.75000  0.49500  1.0000
  H   H6        1.0  0.12400  0.25000  0.50500  1.0000
  H   H7        1.0  0.10300  0.25000  0.67800  1.0000
  H   H8        1.0  0.60300  0.25000  0.82200  1.0000
  O   O1        1.0  0.33200  0.75000  0.10100  1.0000
  O   O2        1.0  0.83200  0.75000  0.39900  1.0000
  O   O3        1.0  0.16800  0.25000  0.60100  1.0000
  O   O4        1.0  0.66800  0.25000  0.89900  1.0000
  Sr  Sr1       1.0  0.18300  0.25000  0.10400  1.0000
  Sr  Sr2       1.0  0.68300  0.25000  0.39600  1.0000
  Sr  Sr3       1.0  0.31700  0.75000  0.60400  1.0000
  Sr  Sr4       1.0  0.81700  0.75000  0.89600  1.0000
