data_image0
_chemical_formula_structural       Ba2H4I4O14
_chemical_formula_sum              "Ba2 H4 I4 O14"
_cell_length_a       7.61662
_cell_length_b       7.61662
_cell_length_c       7.83786
_cell_angle_alpha    101.141
_cell_angle_beta     109.253
_cell_angle_gamma    117.506

_space_group_name_H-M_alt    "P 1"
_space_group_IT_number       1

loop_
  _space_group_symop_operation_xyz
  'x, y, z'

loop_
  _atom_site_type_symbol
  _atom_site_label
  _atom_site_symmetry_multiplicity
  _atom_site_fract_x
  _atom_site_fract_y
  _atom_site_fract_z
  _atom_site_occupancy
  Ba  Ba1       1.0  0.61400  0.86400  0.25000  1.0000
  Ba  Ba2       1.0  0.38600  0.13600  0.75000  1.0000
  H   H1        1.0  0.93700  0.23500  0.13300  1.0000
  H   H2        1.0  0.10100  0.30400  0.36700  1.0000
  H   H3        1.0  0.89900  0.69600  0.63300  1.0000
  H   H4        1.0  0.06280  0.76500  0.86700  1.0000
  I   I1        1.0  0.97000  0.64600  0.19200  1.0000
  I   I2        1.0  0.45500  0.27800  0.30800  1.0000
  I   I3        1.0  0.54500  0.72200  0.69200  1.0000
  I   I4        1.0  0.03050  0.35400  0.80800  1.0000
  O   O1        1.0  0.71800  0.59400  0.99400  1.0000
  O   O2        1.0  0.28200  0.40600  0.00618  1.0000
  O   O3        1.0  0.16200  0.74000  0.08550  1.0000
  O   O4        1.0  0.54500  0.20100  0.13800  1.0000
  O   O5        1.0  0.95000  0.20000  0.25000  1.0000
  O   O6        1.0  0.06330  0.90800  0.36200  1.0000
  O   O7        1.0  0.65400  0.57700  0.41500  1.0000
  O   O8        1.0  0.40000  0.77600  0.49400  1.0000
  O   O9        1.0  0.60000  0.22400  0.50600  1.0000
  O   O10       1.0  0.34600  0.42300  0.58500  1.0000
  O   O11       1.0  0.93700  0.09240  0.63800  1.0000
  O   O12       1.0  0.05040  0.80000  0.75000  1.0000
  O   O13       1.0  0.45500  0.79900  0.86200  1.0000
  O   O14       1.0  0.83800  0.26000  0.91500  1.0000
