data_image0
_chemical_formula_structural       AlH4KO14P4
_chemical_formula_sum              "Al1 H4 K1 O14 P4"
_cell_length_a       4.84461
_cell_length_b       7.32612
_cell_length_c       7.63054
_cell_angle_alpha    97.5285
_cell_angle_beta     95.9519
_cell_angle_gamma    74.6074

_space_group_name_H-M_alt    "P 1"
_space_group_IT_number       1

loop_
  _space_group_symop_operation_xyz
  'x, y, z'

loop_
  _atom_site_type_symbol
  _atom_site_label
  _atom_site_symmetry_multiplicity
  _atom_site_fract_x
  _atom_site_fract_y
  _atom_site_fract_z
  _atom_site_occupancy
  Al  Al1       1.0  0.00000  0.50000  0.00000  1.0000
  H   H1        1.0  0.30600  0.00747  0.38500  1.0000
  H   H2        1.0  0.88600  0.21000  0.41800  1.0000
  H   H3        1.0  0.11400  0.79000  0.58200  1.0000
  H   H4        1.0  0.69400  0.99300  0.61500  1.0000
  K   K1        1.0  0.00000  0.00000  0.00000  1.0000
  O   O1        1.0  0.74800  0.37100  0.06870  1.0000
  O   O2        1.0  0.84000  0.72500  0.15000  1.0000
  O   O3        1.0  0.26200  0.40600  0.18800  1.0000
  O   O4        1.0  0.38300  0.90600  0.28000  1.0000
  O   O5        1.0  0.69800  0.21800  0.33800  1.0000
  O   O6        1.0  0.62700  0.57100  0.36100  1.0000
  O   O7        1.0  0.83500  0.84200  0.48300  1.0000
  O   O8        1.0  0.16500  0.15800  0.51700  1.0000
  O   O9        1.0  0.37300  0.42900  0.63900  1.0000
  O   O10       1.0  0.30200  0.78200  0.66200  1.0000
  O   O11       1.0  0.61700  0.09400  0.72000  1.0000
  O   O12       1.0  0.73800  0.59400  0.81200  1.0000
  O   O13       1.0  0.16000  0.27500  0.85000  1.0000
  O   O14       1.0  0.25200  0.62900  0.93100  1.0000
  P   P1        1.0  0.57800  0.39000  0.22900  1.0000
  P   P2        1.0  0.68300  0.76700  0.31700  1.0000
  P   P3        1.0  0.31700  0.23300  0.68300  1.0000
  P   P4        1.0  0.42200  0.61000  0.77100  1.0000
