data_image0
_chemical_formula_structural       Ba4Cl8H8O4
_chemical_formula_sum              "Ba4 Cl8 H8 O4"
_cell_length_a       10.8492
_cell_length_b       4.53631
_cell_length_c       9.00202
_cell_angle_alpha    90
_cell_angle_beta     90
_cell_angle_gamma    90

_space_group_name_H-M_alt    "P 1"
_space_group_IT_number       1

loop_
  _space_group_symop_operation_xyz
  'x, y, z'

loop_
  _atom_site_type_symbol
  _atom_site_label
  _atom_site_symmetry_multiplicity
  _atom_site_fract_x
  _atom_site_fract_y
  _atom_site_fract_z
  _atom_site_occupancy
  Ba  Ba1       1.0  0.18900  0.25000  0.10600  1.0000
  Ba  Ba2       1.0  0.68900  0.25000  0.39400  1.0000
  Ba  Ba3       1.0  0.31100  0.75000  0.60600  1.0000
  Ba  Ba4       1.0  0.81100  0.75000  0.89400  1.0000
  Cl  Cl1       1.0  0.89900  0.25000  0.12100  1.0000
  Cl  Cl2       1.0  0.62100  0.75000  0.16500  1.0000
  Cl  Cl3       1.0  0.12100  0.75000  0.33500  1.0000
  Cl  Cl4       1.0  0.39900  0.25000  0.37900  1.0000
  Cl  Cl5       1.0  0.60100  0.75000  0.62100  1.0000
  Cl  Cl6       1.0  0.87900  0.25000  0.66500  1.0000
  Cl  Cl7       1.0  0.37900  0.25000  0.83500  1.0000
  Cl  Cl8       1.0  0.10100  0.75000  0.87900  1.0000
  H   H1        1.0  0.36700  0.75000  0.99300  1.0000
  H   H2        1.0  0.63300  0.25000  0.00693  1.0000
  H   H3        1.0  0.40600  0.75000  0.17900  1.0000
  H   H4        1.0  0.90600  0.75000  0.32100  1.0000
  H   H5        1.0  0.13300  0.25000  0.49300  1.0000
  H   H6        1.0  0.86700  0.75000  0.50700  1.0000
  H   H7        1.0  0.09390  0.25000  0.67900  1.0000
  H   H8        1.0  0.59400  0.25000  0.82100  1.0000
  O   O1        1.0  0.67700  0.25000  0.90700  1.0000
  O   O2        1.0  0.32300  0.75000  0.09250  1.0000
  O   O3        1.0  0.82300  0.75000  0.40700  1.0000
  O   O4        1.0  0.17700  0.25000  0.59300  1.0000
