data_image0
_chemical_formula_structural       Al2F10H4K4O2
_chemical_formula_sum              "Al2 F10 H4 K4 O2"
_cell_length_a       5.8145
_cell_length_b       7.41169
_cell_length_c       5.81785
_cell_angle_alpha    90
_cell_angle_beta     96.1622
_cell_angle_gamma    90

_space_group_name_H-M_alt    "P 1"
_space_group_IT_number       1

loop_
  _space_group_symop_operation_xyz
  'x, y, z'

loop_
  _atom_site_type_symbol
  _atom_site_label
  _atom_site_symmetry_multiplicity
  _atom_site_fract_x
  _atom_site_fract_y
  _atom_site_fract_z
  _atom_site_occupancy
  Al  Al1       1.0  0.00000  0.00000  0.00000  1.0000
  Al  Al2       1.0  0.00000  0.50000  0.00000  1.0000
  F   F1        1.0  0.00439  0.25000  0.00474  1.0000
  F   F2        1.0  0.79300  0.50000  0.20700  1.0000
  F   F3        1.0  0.79300  0.00000  0.20700  1.0000
  F   F4        1.0  0.23100  0.50300  0.23100  1.0000
  F   F5        1.0  0.23100  0.99700  0.23100  1.0000
  F   F6        1.0  0.76900  0.00349  0.76900  1.0000
  F   F7        1.0  0.76900  0.49700  0.76900  1.0000
  F   F8        1.0  0.20700  0.00020  0.79300  1.0000
  F   F9        1.0  0.20700  0.50000  0.79300  1.0000
  F   F10       1.0  0.99600  0.75000  0.99500  1.0000
  H   H1        1.0  0.40000  0.64400  0.40100  1.0000
  H   H2        1.0  0.40000  0.85600  0.40100  1.0000
  H   H3        1.0  0.60000  0.14400  0.59900  1.0000
  H   H4        1.0  0.60000  0.35600  0.59900  1.0000
  K   K1        1.0  0.49800  0.25000  0.05290  1.0000
  K   K2        1.0  0.05340  0.25000  0.49700  1.0000
  K   K3        1.0  0.94700  0.75000  0.50300  1.0000
  K   K4        1.0  0.50200  0.75000  0.94700  1.0000
  O   O1        1.0  0.47700  0.75000  0.47800  1.0000
  O   O2        1.0  0.52300  0.25000  0.52200  1.0000
