data_image0
_chemical_formula_structural       Cl4Cu4H12N4
_chemical_formula_sum              "Cl4 Cu4 H12 N4"
_cell_length_a       7.20462
_cell_length_b       7.20462
_cell_length_c       7.20462
_cell_angle_alpha    109.471
_cell_angle_beta     109.471
_cell_angle_gamma    109.471

_space_group_name_H-M_alt    "P 1"
_space_group_IT_number       1

loop_
  _space_group_symop_operation_xyz
  'x, y, z'

loop_
  _atom_site_type_symbol
  _atom_site_label
  _atom_site_symmetry_multiplicity
  _atom_site_fract_x
  _atom_site_fract_y
  _atom_site_fract_z
  _atom_site_occupancy
  Cl  Cl1       1.0  0.00000  0.53100  0.00000  1.0000
  Cl  Cl2       1.0  0.03100  0.00000  0.50000  1.0000
  Cl  Cl3       1.0  0.50000  0.50000  0.53100  1.0000
  Cl  Cl4       1.0  0.46900  0.96900  0.96900  1.0000
  Cu  Cu1       1.0  0.00000  0.23800  0.00000  1.0000
  Cu  Cu2       1.0  0.50000  0.50000  0.23800  1.0000
  Cu  Cu3       1.0  0.76200  0.26200  0.26200  1.0000
  Cu  Cu4       1.0  0.73800  0.00000  0.50000  1.0000
  H   H1        1.0  0.00782  0.97200  0.14500  1.0000
  H   H2        1.0  0.32700  0.86300  0.35500  1.0000
  H   H3        1.0  0.47200  0.14500  0.50800  1.0000
  H   H4        1.0  0.03620  0.67300  0.52800  1.0000
  H   H5        1.0  0.17300  0.52800  0.53600  1.0000
  H   H6        1.0  0.46400  0.99200  0.63700  1.0000
  H   H7        1.0  0.02840  0.53600  0.67300  1.0000
  H   H8        1.0  0.36300  0.35500  0.82700  1.0000
  H   H9        1.0  0.85500  0.82700  0.86300  1.0000
  H   H10       1.0  0.49200  0.63700  0.96400  1.0000
  H   H11       1.0  0.64500  0.50800  0.97200  1.0000
  H   H12       1.0  0.13700  0.96400  0.99200  1.0000
  N   N1        1.0  0.50000  0.50000  0.97300  1.0000
  N   N2        1.0  0.00000  0.97300  0.00000  1.0000
  N   N3        1.0  0.47300  0.00000  0.50000  1.0000
  N   N4        1.0  0.02660  0.52700  0.52700  1.0000
