data_image0
_chemical_formula_structural       Cl4Cu2H12N4
_chemical_formula_sum              "Cl4 Cu2 H12 N4"
_cell_length_a       5.99873
_cell_length_b       6.42374
_cell_length_c       6.42374
_cell_angle_alpha    72.0907
_cell_angle_beta     90
_cell_angle_gamma    90

_space_group_name_H-M_alt    "P 1"
_space_group_IT_number       1

loop_
  _space_group_symop_operation_xyz
  'x, y, z'

loop_
  _atom_site_type_symbol
  _atom_site_label
  _atom_site_symmetry_multiplicity
  _atom_site_fract_x
  _atom_site_fract_y
  _atom_site_fract_z
  _atom_site_occupancy
  Cl  Cl1       1.0  0.25000  0.11300  0.11300  1.0000
  Cl  Cl2       1.0  0.75000  0.34100  0.34100  1.0000
  Cl  Cl3       1.0  0.25000  0.65900  0.65900  1.0000
  Cl  Cl4       1.0  0.75000  0.88700  0.88700  1.0000
  Cu  Cu1       1.0  0.75000  0.11300  0.11300  1.0000
  Cu  Cu2       1.0  0.25000  0.88700  0.88700  1.0000
  H   H1        1.0  0.11200  0.53000  0.15300  1.0000
  H   H2        1.0  0.38800  0.53000  0.15300  1.0000
  H   H3        1.0  0.25000  0.67200  0.28900  1.0000
  H   H4        1.0  0.75000  0.71100  0.32800  1.0000
  H   H5        1.0  0.61200  0.84700  0.47000  1.0000
  H   H6        1.0  0.88800  0.84700  0.47000  1.0000
  H   H7        1.0  0.11200  0.15300  0.53000  1.0000
  H   H8        1.0  0.38800  0.15300  0.53000  1.0000
  H   H9        1.0  0.25000  0.28900  0.67200  1.0000
  H   H10       1.0  0.75000  0.32800  0.71100  1.0000
  H   H11       1.0  0.61200  0.47000  0.84700  1.0000
  H   H12       1.0  0.88800  0.47000  0.84700  1.0000
  N   N1        1.0  0.25000  0.62600  0.14900  1.0000
  N   N2        1.0  0.75000  0.85100  0.37400  1.0000
  N   N3        1.0  0.25000  0.14900  0.62600  1.0000
  N   N4        1.0  0.75000  0.37400  0.85100  1.0000
