data_image0
_chemical_formula_structural       F8H4O6Te4
_chemical_formula_sum              "F8 H4 O6 Te4"
_cell_length_a       4.56626
_cell_length_b       6.05801
_cell_length_c       10.304
_cell_angle_alpha    94.7902
_cell_angle_beta     77.1983
_cell_angle_gamma    112.14

_space_group_name_H-M_alt    "P 1"
_space_group_IT_number       1

loop_
  _space_group_symop_operation_xyz
  'x, y, z'

loop_
  _atom_site_type_symbol
  _atom_site_label
  _atom_site_symmetry_multiplicity
  _atom_site_fract_x
  _atom_site_fract_y
  _atom_site_fract_z
  _atom_site_occupancy
  F   F1        1.0  0.38900  0.58200  0.08200  1.0000
  F   F2        1.0  0.21900  0.07660  0.13400  1.0000
  F   F3        1.0  0.10400  0.57700  0.36600  1.0000
  F   F4        1.0  0.22100  0.08180  0.41800  1.0000
  F   F5        1.0  0.55700  0.91800  0.58200  1.0000
  F   F6        1.0  0.89300  0.42300  0.63400  1.0000
  F   F7        1.0  0.27700  0.92300  0.86600  1.0000
  F   F8        1.0  0.88900  0.41800  0.91800  1.0000
  H   H1        1.0  0.49100  0.24400  0.19300  1.0000
  H   H2        1.0  0.43400  0.74400  0.30700  1.0000
  H   H3        1.0  0.99700  0.25600  0.69300  1.0000
  H   H4        1.0  0.44000  0.75600  0.80700  1.0000
  O   O1        1.0  0.77900  0.00000  0.00000  1.0000
  O   O2        1.0  0.67000  0.37100  0.23000  1.0000
  O   O3        1.0  0.65000  0.87100  0.27000  1.0000
  O   O4        1.0  0.52900  0.50000  0.50000  1.0000
  O   O5        1.0  0.04900  0.12900  0.73000  1.0000
  O   O6        1.0  0.52900  0.62900  0.77000  1.0000
  Te  Te1       1.0  0.84200  0.77000  0.10200  1.0000
  Te  Te2       1.0  0.69400  0.27000  0.39800  1.0000
  Te  Te3       1.0  0.82200  0.73000  0.60200  1.0000
  Te  Te4       1.0  0.17400  0.23000  0.89800  1.0000
