data_image0
_chemical_formula_structural       H12N2O8U
_chemical_formula_sum              "H12 N2 O8 U1"
_cell_length_a       6.14194
_cell_length_b       5.78592
_cell_length_c       5.4438
_cell_angle_alpha    97.3806
_cell_angle_beta     90.771
_cell_angle_gamma    105.729

_space_group_name_H-M_alt    "P 1"
_space_group_IT_number       1

loop_
  _space_group_symop_operation_xyz
  'x, y, z'

loop_
  _atom_site_type_symbol
  _atom_site_label
  _atom_site_symmetry_multiplicity
  _atom_site_fract_x
  _atom_site_fract_y
  _atom_site_fract_z
  _atom_site_occupancy
  H   H1        1.0  0.30100  0.63200  0.04360  1.0000
  H   H2        1.0  0.82800  0.80300  0.20200  1.0000
  H   H3        1.0  0.05490  0.14100  0.20800  1.0000
  H   H4        1.0  0.39600  0.90900  0.22200  1.0000
  H   H5        1.0  0.95600  0.61200  0.28100  1.0000
  H   H6        1.0  0.84500  0.16800  0.36100  1.0000
  H   H7        1.0  0.15500  0.83200  0.63900  1.0000
  H   H8        1.0  0.04410  0.38800  0.71900  1.0000
  H   H9        1.0  0.60400  0.09090  0.77800  1.0000
  H   H10       1.0  0.94500  0.85900  0.79200  1.0000
  H   H11       1.0  0.17200  0.19700  0.79800  1.0000
  H   H12       1.0  0.69900  0.36800  0.95600  1.0000
  N   N1        1.0  0.36300  0.72400  0.21700  1.0000
  N   N2        1.0  0.63700  0.27600  0.78300  1.0000
  O   O1        1.0  0.88800  0.08390  0.20500  1.0000
  O   O2        1.0  0.80300  0.62300  0.21700  1.0000
  O   O3        1.0  0.37900  0.22100  0.28600  1.0000
  O   O4        1.0  0.19800  0.64500  0.39100  1.0000
  O   O5        1.0  0.80200  0.35500  0.60900  1.0000
  O   O6        1.0  0.62100  0.77900  0.71400  1.0000
  O   O7        1.0  0.19700  0.37700  0.78300  1.0000
  O   O8        1.0  0.11200  0.91600  0.79500  1.0000
  U   U1        1.0  0.50000  0.50000  0.50000  1.0000
