data_image0
_chemical_formula_structural       H2O10Rb10Si2
_chemical_formula_sum              "H2 O10 Rb10 Si2"
_cell_length_a       6.50043
_cell_length_b       6.50043
_cell_length_c       11.9407
_cell_angle_alpha    98.9671
_cell_angle_beta     98.9671
_cell_angle_gamma    111.1

_space_group_name_H-M_alt    "P 1"
_space_group_IT_number       1

loop_
  _space_group_symop_operation_xyz
  'x, y, z'

loop_
  _atom_site_type_symbol
  _atom_site_label
  _atom_site_symmetry_multiplicity
  _atom_site_fract_x
  _atom_site_fract_y
  _atom_site_fract_z
  _atom_site_occupancy
  H   H1        1.0  0.78900  0.21100  0.00000  1.0000
  H   H2        1.0  0.21100  0.78900  0.00000  1.0000
  O   O1        1.0  0.69800  0.30200  0.00000  1.0000
  O   O2        1.0  0.30200  0.69800  0.00000  1.0000
  O   O3        1.0  0.02070  0.02070  0.17200  1.0000
  O   O4        1.0  0.39500  0.39500  0.29800  1.0000
  O   O5        1.0  0.25700  0.00412  0.37600  1.0000
  O   O6        1.0  0.00412  0.25700  0.37600  1.0000
  O   O7        1.0  0.99600  0.74300  0.62400  1.0000
  O   O8        1.0  0.74300  0.99600  0.62400  1.0000
  O   O9        1.0  0.60500  0.60500  0.70200  1.0000
  O   O10       1.0  0.97900  0.97900  0.82800  1.0000
  Rb  Rb1       1.0  0.27000  0.27000  0.02910  1.0000
  Rb  Rb2       1.0  0.60500  0.08650  0.19900  1.0000
  Rb  Rb3       1.0  0.08650  0.60500  0.19900  1.0000
  Rb  Rb4       1.0  0.78700  0.78700  0.39600  1.0000
  Rb  Rb5       1.0  0.69200  0.30800  0.50000  1.0000
  Rb  Rb6       1.0  0.30800  0.69200  0.50000  1.0000
  Rb  Rb7       1.0  0.21300  0.21300  0.60400  1.0000
  Rb  Rb8       1.0  0.91400  0.39500  0.80100  1.0000
  Rb  Rb9       1.0  0.39500  0.91400  0.80100  1.0000
  Rb  Rb10      1.0  0.73000  0.73000  0.97100  1.0000
  Si  Si1       1.0  0.17100  0.17100  0.30500  1.0000
  Si  Si2       1.0  0.82900  0.82900  0.69500  1.0000
