data_image0
_chemical_formula_structural       Ag6H3O12P3
_chemical_formula_sum              "Ag6 H3 O12 P3"
_cell_length_a       6.20454
_cell_length_b       6.20454
_cell_length_c       8.89873
_cell_angle_alpha    90
_cell_angle_beta     90
_cell_angle_gamma    120

_space_group_name_H-M_alt    "P 1"
_space_group_IT_number       1

loop_
  _space_group_symop_operation_xyz
  'x, y, z'

loop_
  _atom_site_type_symbol
  _atom_site_label
  _atom_site_symmetry_multiplicity
  _atom_site_fract_x
  _atom_site_fract_y
  _atom_site_fract_z
  _atom_site_occupancy
  Ag  Ag1       1.0  0.59700  0.79900  0.00001  1.0000
  Ag  Ag2       1.0  0.14400  0.07200  0.00002  1.0000
  Ag  Ag3       1.0  0.20100  0.79900  0.33300  1.0000
  Ag  Ag4       1.0  0.92800  0.07200  0.33300  1.0000
  Ag  Ag5       1.0  0.20100  0.40300  0.66700  1.0000
  Ag  Ag6       1.0  0.92800  0.85600  0.66700  1.0000
  H   H1        1.0  0.64000  0.28000  0.16700  1.0000
  H   H2        1.0  0.72000  0.36000  0.50000  1.0000
  H   H3        1.0  0.64000  0.36000  0.83300  1.0000
  O   O1        1.0  0.14400  0.73700  0.08420  1.0000
  O   O2        1.0  0.81200  0.27400  0.11000  1.0000
  O   O3        1.0  0.46200  0.27400  0.22300  1.0000
  O   O4        1.0  0.59300  0.73700  0.24900  1.0000
  O   O5        1.0  0.26300  0.40700  0.41800  1.0000
  O   O6        1.0  0.72600  0.53800  0.44400  1.0000
  O   O7        1.0  0.72600  0.18800  0.55600  1.0000
  O   O8        1.0  0.26300  0.85600  0.58200  1.0000
  O   O9        1.0  0.59300  0.85600  0.75100  1.0000
  O   O10       1.0  0.46200  0.18800  0.77700  1.0000
  O   O11       1.0  0.81200  0.53800  0.89000  1.0000
  O   O12       1.0  0.14400  0.40700  0.91600  1.0000
  P   P1        1.0  0.97800  0.48900  0.00001  1.0000
  P   P2        1.0  0.51100  0.48900  0.33300  1.0000
  P   P3        1.0  0.51100  0.02160  0.66700  1.0000
