data_image0
_chemical_formula_structural       H8O8Pb4
_chemical_formula_sum              "H8 O8 Pb4"
_cell_length_a       8.29069
_cell_length_b       3.85436
_cell_length_c       8.46181
_cell_angle_alpha    90
_cell_angle_beta     90
_cell_angle_gamma    90

_space_group_name_H-M_alt    "P 1"
_space_group_IT_number       1

loop_
  _space_group_symop_operation_xyz
  'x, y, z'

loop_
  _atom_site_type_symbol
  _atom_site_label
  _atom_site_symmetry_multiplicity
  _atom_site_fract_x
  _atom_site_fract_y
  _atom_site_fract_z
  _atom_site_occupancy
  H   H1        1.0  0.97400  0.25000  0.13100  1.0000
  H   H2        1.0  0.67800  0.25000  0.15000  1.0000
  H   H3        1.0  0.17800  0.25000  0.35000  1.0000
  H   H4        1.0  0.47400  0.25000  0.36900  1.0000
  H   H5        1.0  0.52600  0.75000  0.63100  1.0000
  H   H6        1.0  0.82200  0.75000  0.65000  1.0000
  H   H7        1.0  0.32200  0.75000  0.85000  1.0000
  H   H8        1.0  0.02640  0.75000  0.86900  1.0000
  O   O1        1.0  0.76900  0.25000  0.07130  1.0000
  O   O2        1.0  0.07440  0.25000  0.19400  1.0000
  O   O3        1.0  0.57400  0.25000  0.30600  1.0000
  O   O4        1.0  0.26900  0.25000  0.42900  1.0000
  O   O5        1.0  0.73100  0.75000  0.57100  1.0000
  O   O6        1.0  0.42600  0.75000  0.69400  1.0000
  O   O7        1.0  0.92600  0.75000  0.80600  1.0000
  O   O8        1.0  0.23100  0.75000  0.92900  1.0000
  Pb  Pb1       1.0  0.30700  0.25000  0.07200  1.0000
  Pb  Pb2       1.0  0.80700  0.25000  0.42800  1.0000
  Pb  Pb3       1.0  0.19300  0.75000  0.57200  1.0000
  Pb  Pb4       1.0  0.69300  0.75000  0.92800  1.0000
