data_image0
_chemical_formula_structural       Ba2Br4H4O14
_chemical_formula_sum              "Ba2 Br4 H4 O14"
_cell_length_a       7.45997
_cell_length_b       7.45997
_cell_length_c       7.78778
_cell_angle_alpha    102.537
_cell_angle_beta     107.973
_cell_angle_gamma    116.825

_space_group_name_H-M_alt    "P 1"
_space_group_IT_number       1

loop_
  _space_group_symop_operation_xyz
  'x, y, z'

loop_
  _atom_site_type_symbol
  _atom_site_label
  _atom_site_symmetry_multiplicity
  _atom_site_fract_x
  _atom_site_fract_y
  _atom_site_fract_z
  _atom_site_occupancy
  Ba  Ba1       1.0  0.61300  0.86300  0.25000  1.0000
  Ba  Ba2       1.0  0.38700  0.13700  0.75000  1.0000
  Br  Br1       1.0  0.97000  0.66000  0.18800  1.0000
  Br  Br2       1.0  0.47200  0.28200  0.31200  1.0000
  Br  Br3       1.0  0.52800  0.71800  0.68800  1.0000
  Br  Br4       1.0  0.03020  0.34000  0.81200  1.0000
  H   H1        1.0  0.05300  0.76100  0.86600  1.0000
  H   H2        1.0  0.94700  0.23900  0.13400  1.0000
  H   H3        1.0  0.10600  0.31300  0.36600  1.0000
  H   H4        1.0  0.89400  0.68700  0.63400  1.0000
  O   O1        1.0  0.72700  0.59600  0.00748  1.0000
  O   O2        1.0  0.15800  0.75000  0.09760  1.0000
  O   O3        1.0  0.52500  0.18100  0.13400  1.0000
  O   O4        1.0  0.95500  0.20500  0.25000  1.0000
  O   O5        1.0  0.04730  0.89100  0.36600  1.0000
  O   O6        1.0  0.65200  0.56000  0.40200  1.0000
  O   O7        1.0  0.58800  0.21900  0.49300  1.0000
  O   O8        1.0  0.41200  0.78100  0.50700  1.0000
  O   O9        1.0  0.34800  0.44000  0.59800  1.0000
  O   O10       1.0  0.95300  0.10900  0.63400  1.0000
  O   O11       1.0  0.04490  0.79500  0.75000  1.0000
  O   O12       1.0  0.47500  0.81900  0.86600  1.0000
  O   O13       1.0  0.84200  0.25000  0.90200  1.0000
  O   O14       1.0  0.27300  0.40400  0.99300  1.0000
