data_image0
_chemical_formula_structural       B4Ca4H4O12
_chemical_formula_sum              "B4 Ca4 H4 O12"
_cell_length_a       3.52877
_cell_length_b       9.5109
_cell_length_c       8.56044
_cell_angle_alpha    90
_cell_angle_beta     120.191
_cell_angle_gamma    90

_space_group_name_H-M_alt    "P 1"
_space_group_IT_number       1

loop_
  _space_group_symop_operation_xyz
  'x, y, z'

loop_
  _atom_site_type_symbol
  _atom_site_label
  _atom_site_symmetry_multiplicity
  _atom_site_fract_x
  _atom_site_fract_y
  _atom_site_fract_z
  _atom_site_occupancy
  B   B1        1.0  0.86300  0.73800  0.07770  1.0000
  B   B2        1.0  0.13700  0.23800  0.42200  1.0000
  B   B3        1.0  0.86300  0.76200  0.57800  1.0000
  B   B4        1.0  0.13700  0.26200  0.92200  1.0000
  Ca  Ca1       1.0  0.50900  0.00767  0.21400  1.0000
  Ca  Ca2       1.0  0.49100  0.50800  0.28600  1.0000
  Ca  Ca3       1.0  0.50900  0.49200  0.71400  1.0000
  Ca  Ca4       1.0  0.49100  0.99200  0.78600  1.0000
  H   H1        1.0  0.09020  0.26200  0.14800  1.0000
  H   H2        1.0  0.91000  0.76200  0.35200  1.0000
  H   H3        1.0  0.09020  0.23800  0.64800  1.0000
  H   H4        1.0  0.91000  0.73800  0.85200  1.0000
  O   O1        1.0  0.12000  0.33400  0.06320  1.0000
  O   O2        1.0  0.84000  0.88200  0.07500  1.0000
  O   O3        1.0  0.90000  0.65700  0.21700  1.0000
  O   O4        1.0  0.10000  0.15700  0.28300  1.0000
  O   O5        1.0  0.16000  0.38200  0.42500  1.0000
  O   O6        1.0  0.88000  0.83400  0.43700  1.0000
  O   O7        1.0  0.12000  0.16600  0.56300  1.0000
  O   O8        1.0  0.84000  0.61800  0.57500  1.0000
  O   O9        1.0  0.90000  0.84300  0.71700  1.0000
  O   O10       1.0  0.10000  0.34300  0.78300  1.0000
  O   O11       1.0  0.16000  0.11800  0.92500  1.0000
  O   O12       1.0  0.88000  0.66600  0.93700  1.0000
