data_image0
_chemical_formula_structural       Cu4S8Yb4
_chemical_formula_sum              "Cu4 S8 Yb4"
_cell_length_a       13.7589
_cell_length_b       3.92082
_cell_length_c       6.26344
_cell_angle_alpha    90
_cell_angle_beta     90
_cell_angle_gamma    90

_space_group_name_H-M_alt    "P 1"
_space_group_IT_number       1

loop_
  _space_group_symop_operation_xyz
  'x, y, z'

loop_
  _atom_site_type_symbol
  _atom_site_label
  _atom_site_symmetry_multiplicity
  _atom_site_fract_x
  _atom_site_fract_y
  _atom_site_fract_z
  _atom_site_occupancy
  Cu  Cu1       1.0  0.94800  0.25000  0.13300  1.0000
  Cu  Cu2       1.0  0.44800  0.25000  0.36700  1.0000
  Cu  Cu3       1.0  0.55200  0.75000  0.63300  1.0000
  Cu  Cu4       1.0  0.05180  0.75000  0.86700  1.0000
  S   S1        1.0  0.29900  0.25000  0.23600  1.0000
  S   S2        1.0  0.03050  0.75000  0.23600  1.0000
  S   S3        1.0  0.53000  0.75000  0.26400  1.0000
  S   S4        1.0  0.79900  0.25000  0.26400  1.0000
  S   S5        1.0  0.20100  0.75000  0.73600  1.0000
  S   S6        1.0  0.47000  0.25000  0.73600  1.0000
  S   S7        1.0  0.97000  0.25000  0.76400  1.0000
  S   S8        1.0  0.70100  0.75000  0.76400  1.0000
  Yb  Yb1       1.0  0.63600  0.25000  0.02170  1.0000
  Yb  Yb2       1.0  0.13600  0.25000  0.47800  1.0000
  Yb  Yb3       1.0  0.86400  0.75000  0.52200  1.0000
  Yb  Yb4       1.0  0.36400  0.75000  0.97800  1.0000
