data_image0
_chemical_formula_structural       As2C4Cs2H12Se4
_chemical_formula_sum              "As2 C4 Cs2 H12 Se4"
_cell_length_a       7.1024
_cell_length_b       7.1024
_cell_length_c       9.80087
_cell_angle_alpha    107.576
_cell_angle_beta     107.576
_cell_angle_gamma    91.3169

_space_group_name_H-M_alt    "P 1"
_space_group_IT_number       1

loop_
  _space_group_symop_operation_xyz
  'x, y, z'

loop_
  _atom_site_type_symbol
  _atom_site_label
  _atom_site_symmetry_multiplicity
  _atom_site_fract_x
  _atom_site_fract_y
  _atom_site_fract_z
  _atom_site_occupancy
  As  As1       1.0  0.32400  0.67600  0.25000  1.0000
  As  As2       1.0  0.67600  0.32400  0.75000  1.0000
  C   C1        1.0  0.30600  0.42300  0.09300  1.0000
  C   C2        1.0  0.57700  0.69400  0.40700  1.0000
  C   C3        1.0  0.42300  0.30600  0.59300  1.0000
  C   C4        1.0  0.69400  0.57700  0.90700  1.0000
  Cs  Cs1       1.0  0.88800  0.11200  0.25000  1.0000
  Cs  Cs2       1.0  0.11200  0.88800  0.75000  1.0000
  H   H1        1.0  0.17700  0.41400  0.99400  1.0000
  H   H2        1.0  0.82300  0.58600  0.00597  1.0000
  H   H3        1.0  0.44300  0.41700  0.06240  1.0000
  H   H4        1.0  0.28800  0.30200  0.13800  1.0000
  H   H5        1.0  0.69800  0.71200  0.36200  1.0000
  H   H6        1.0  0.58300  0.55700  0.43800  1.0000
  H   H7        1.0  0.41400  0.17700  0.49400  1.0000
  H   H8        1.0  0.58600  0.82300  0.50600  1.0000
  H   H9        1.0  0.41700  0.44300  0.56200  1.0000
  H   H10       1.0  0.30200  0.28800  0.63800  1.0000
  H   H11       1.0  0.71200  0.69800  0.86200  1.0000
  H   H12       1.0  0.55700  0.58300  0.93800  1.0000
  Se  Se1       1.0  0.34300  0.93300  0.15400  1.0000
  Se  Se2       1.0  0.06710  0.65700  0.34600  1.0000
  Se  Se3       1.0  0.93300  0.34300  0.65400  1.0000
  Se  Se4       1.0  0.65700  0.06710  0.84600  1.0000
