data_image0
_chemical_formula_structural       F8Li2O4Re2
_chemical_formula_sum              "F8 Li2 O4 Re2"
_cell_length_a       4.53492
_cell_length_b       4.53492
_cell_length_c       8.5339
_cell_angle_alpha    90
_cell_angle_beta     90
_cell_angle_gamma    90

_space_group_name_H-M_alt    "P 1"
_space_group_IT_number       1

loop_
  _space_group_symop_operation_xyz
  'x, y, z'

loop_
  _atom_site_type_symbol
  _atom_site_label
  _atom_site_symmetry_multiplicity
  _atom_site_fract_x
  _atom_site_fract_y
  _atom_site_fract_z
  _atom_site_occupancy
  F   F1        1.0  0.21100  0.28900  0.25000  1.0000
  F   F2        1.0  0.78900  0.71100  0.25000  1.0000
  F   F3        1.0  0.69400  0.19400  0.40500  1.0000
  F   F4        1.0  0.30600  0.80600  0.40500  1.0000
  F   F5        1.0  0.19400  0.30600  0.59500  1.0000
  F   F6        1.0  0.80600  0.69400  0.59500  1.0000
  F   F7        1.0  0.71100  0.21100  0.75000  1.0000
  F   F8        1.0  0.28900  0.78900  0.75000  1.0000
  Li  Li1       1.0  0.00000  0.50000  0.42000  1.0000
  Li  Li2       1.0  0.50000  0.00000  0.58000  1.0000
  O   O1        1.0  0.70700  0.20700  0.08910  1.0000
  O   O2        1.0  0.29300  0.79300  0.08910  1.0000
  O   O3        1.0  0.20700  0.29300  0.91100  1.0000
  O   O4        1.0  0.79300  0.70700  0.91100  1.0000
  Re  Re1       1.0  0.50000  0.00000  0.21500  1.0000
  Re  Re2       1.0  0.00000  0.50000  0.78500  1.0000
