data_image0
_chemical_formula_structural       C8Cl4H32N4
_chemical_formula_sum              "C8 Cl4 H32 N4"
_cell_length_a       9.09912
_cell_length_b       9.09912
_cell_length_c       9.09912
_cell_angle_alpha    80.8021
_cell_angle_beta     135.14
_cell_angle_gamma    116.809

_space_group_name_H-M_alt    "P 1"
_space_group_IT_number       1

loop_
  _space_group_symop_operation_xyz
  'x, y, z'

loop_
  _atom_site_type_symbol
  _atom_site_label
  _atom_site_symmetry_multiplicity
  _atom_site_fract_x
  _atom_site_fract_y
  _atom_site_fract_z
  _atom_site_occupancy
  C   C1        1.0  0.16200  0.97500  0.39900  1.0000
  C   C2        1.0  0.57600  0.76300  0.60100  1.0000
  C   C3        1.0  0.33800  0.73700  0.81300  1.0000
  C   C4        1.0  0.92400  0.52500  0.18700  1.0000
  C   C5        1.0  0.83800  0.02510  0.60100  1.0000
  C   C6        1.0  0.42400  0.23700  0.39900  1.0000
  C   C7        1.0  0.66200  0.26300  0.18700  1.0000
  C   C8        1.0  0.07580  0.47500  0.81300  1.0000
  Cl  Cl1       1.0  0.21900  0.86500  0.08430  1.0000
  Cl  Cl2       1.0  0.78100  0.13500  0.91600  1.0000
  Cl  Cl3       1.0  0.28100  0.36500  0.64700  1.0000
  Cl  Cl4       1.0  0.71900  0.63500  0.35300  1.0000
  H   H1        1.0  0.12900  0.89700  0.28900  1.0000
  H   H2        1.0  0.60800  0.84000  0.71100  1.0000
  H   H3        1.0  0.37100  0.66000  0.76800  1.0000
  H   H4        1.0  0.89200  0.60300  0.23200  1.0000
  H   H5        1.0  0.87100  0.10300  0.71100  1.0000
  H   H6        1.0  0.39200  0.16000  0.28900  1.0000
  H   H7        1.0  0.62900  0.34000  0.23200  1.0000
  H   H8        1.0  0.10800  0.39700  0.76800  1.0000
  H   H9        1.0  0.31600  0.98300  0.56600  1.0000
  H   H10       1.0  0.41700  0.75000  0.43400  1.0000
  H   H11       1.0  0.18400  0.75000  0.66700  1.0000
  H   H12       1.0  0.08330  0.51700  0.33300  1.0000
  H   H13       1.0  0.68400  0.01700  0.43400  1.0000
  H   H14       1.0  0.58300  0.25000  0.56600  1.0000
  H   H15       1.0  0.81600  0.25000  0.33300  1.0000
  H   H16       1.0  0.91700  0.48300  0.66700  1.0000
  H   H17       1.0  0.93500  0.85900  0.79400  1.0000
  H   H18       1.0  0.06460  0.14100  0.20600  1.0000
  H   H19       1.0  0.55400  0.63800  0.63400  1.0000
  H   H20       1.0  0.49600  0.86200  0.91600  1.0000
  H   H21       1.0  0.94600  0.58000  0.08400  1.0000
  H   H22       1.0  0.99600  0.08020  0.63400  1.0000
  H   H23       1.0  0.44600  0.36200  0.36600  1.0000
  H   H24       1.0  0.50400  0.13800  0.08400  1.0000
  H   H25       1.0  0.05370  0.42000  0.91600  1.0000
  H   H26       1.0  0.75600  0.77600  0.53200  1.0000
  H   H27       1.0  0.24400  0.22400  0.46800  1.0000
  H   H28       1.0  0.74400  0.27600  0.02040  1.0000
  H   H29       1.0  0.25600  0.72400  0.98000  1.0000
  H   H30       1.0  0.56500  0.35900  0.92300  1.0000
  H   H31       1.0  0.43500  0.64100  0.07690  1.0000
  H   H32       1.0  0.00381  0.92000  0.36600  1.0000
  N   N1        1.0  0.78300  0.85200  0.63500  1.0000
  N   N2        1.0  0.21700  0.14800  0.36500  1.0000
  N   N3        1.0  0.71700  0.35200  0.06840  1.0000
  N   N4        1.0  0.28300  0.64800  0.93200  1.0000
