data_image0
_chemical_formula_structural       F10H4Mn2O2Tl4
_chemical_formula_sum              "F10 H4 Mn2 O2 Tl4"
_cell_length_a       5.96541
_cell_length_b       5.96541
_cell_length_c       8.32185
_cell_angle_alpha    90
_cell_angle_beta     90
_cell_angle_gamma    79.3991

_space_group_name_H-M_alt    "P 1"
_space_group_IT_number       1

loop_
  _space_group_symop_operation_xyz
  'x, y, z'

loop_
  _atom_site_type_symbol
  _atom_site_label
  _atom_site_symmetry_multiplicity
  _atom_site_fract_x
  _atom_site_fract_y
  _atom_site_fract_z
  _atom_site_occupancy
  F   F1        1.0  0.20400  0.20400  0.00000  1.0000
  F   F2        1.0  0.79600  0.79600  0.00000  1.0000
  F   F3        1.0  0.25000  0.75000  0.00282  1.0000
  F   F4        1.0  0.99700  0.00328  0.25000  1.0000
  F   F5        1.0  0.25000  0.75000  0.49700  1.0000
  F   F6        1.0  0.20400  0.20400  0.50000  1.0000
  F   F7        1.0  0.79600  0.79600  0.50000  1.0000
  F   F8        1.0  0.75000  0.25000  0.50300  1.0000
  F   F9        1.0  0.00328  0.99700  0.75000  1.0000
  F   F10       1.0  0.75000  0.25000  0.99700  1.0000
  H   H1        1.0  0.61900  0.38100  0.15400  1.0000
  H   H2        1.0  0.61900  0.38100  0.34600  1.0000
  H   H3        1.0  0.38100  0.61900  0.65400  1.0000
  H   H4        1.0  0.38100  0.61900  0.84600  1.0000
  Mn  Mn1       1.0  0.00000  0.00000  0.00000  1.0000
  Mn  Mn2       1.0  0.00000  0.00000  0.50000  1.0000
  O   O1        1.0  0.54200  0.45800  0.25000  1.0000
  O   O2        1.0  0.45800  0.54200  0.75000  1.0000
  Tl  Tl1       1.0  0.08390  0.49400  0.25000  1.0000
  Tl  Tl2       1.0  0.50600  0.91600  0.25000  1.0000
  Tl  Tl3       1.0  0.49400  0.08390  0.75000  1.0000
  Tl  Tl4       1.0  0.91600  0.50600  0.75000  1.0000
