data_image0
_chemical_formula_structural       Cl12H8N2W2
_chemical_formula_sum              "Cl12 H8 N2 W2"
_cell_length_a       6.28522
_cell_length_b       6.70385
_cell_length_c       12.0044
_cell_angle_alpha    99.0668
_cell_angle_beta     90
_cell_angle_gamma    117.955

_space_group_name_H-M_alt    "P 1"
_space_group_IT_number       1

loop_
  _space_group_symop_operation_xyz
  'x, y, z'

loop_
  _atom_site_type_symbol
  _atom_site_label
  _atom_site_symmetry_multiplicity
  _atom_site_fract_x
  _atom_site_fract_y
  _atom_site_fract_z
  _atom_site_occupancy
  Cl  Cl1       1.0  0.09190  0.29900  0.03350  1.0000
  Cl  Cl2       1.0  0.52700  0.83800  0.10300  1.0000
  Cl  Cl3       1.0  0.61200  0.41700  0.16600  1.0000
  Cl  Cl4       1.0  0.19600  0.58300  0.33400  1.0000
  Cl  Cl5       1.0  0.68900  0.16200  0.39700  1.0000
  Cl  Cl6       1.0  0.79300  0.70100  0.46600  1.0000
  Cl  Cl7       1.0  0.20700  0.29900  0.53400  1.0000
  Cl  Cl8       1.0  0.31100  0.83800  0.60300  1.0000
  Cl  Cl9       1.0  0.80400  0.41700  0.66600  1.0000
  Cl  Cl10      1.0  0.38800  0.58300  0.83400  1.0000
  Cl  Cl11      1.0  0.47300  0.16200  0.89700  1.0000
  Cl  Cl12      1.0  0.90800  0.70100  0.96600  1.0000
  H   H1        1.0  0.98600  0.97700  0.17900  1.0000
  H   H2        1.0  0.11600  0.85600  0.25000  1.0000
  H   H3        1.0  0.26000  0.14400  0.25000  1.0000
  H   H4        1.0  0.00938  0.02310  0.32100  1.0000
  H   H5        1.0  0.99100  0.97700  0.67900  1.0000
  H   H6        1.0  0.74000  0.85600  0.75000  1.0000
  H   H7        1.0  0.88400  0.14400  0.75000  1.0000
  H   H8        1.0  0.01370  0.02310  0.82100  1.0000
  N   N1        1.0  0.09290  0.00000  0.25000  1.0000
  N   N2        1.0  0.90700  0.00000  0.75000  1.0000
  W   W1        1.0  0.50000  0.50000  1.00000  1.0000
  W   W2        1.0  0.00000  0.50000  0.50000  1.0000
