data_image0
_chemical_formula_structural       H6Li2O12Se4
_chemical_formula_sum              "H6 Li2 O12 Se4"
_cell_length_a       6.15156
_cell_length_b       7.76372
_cell_length_c       5.3827
_cell_angle_alpha    90
_cell_angle_beta     105.45
_cell_angle_gamma    90

_space_group_name_H-M_alt    "P 1"
_space_group_IT_number       1

loop_
  _space_group_symop_operation_xyz
  'x, y, z'

loop_
  _atom_site_type_symbol
  _atom_site_label
  _atom_site_symmetry_multiplicity
  _atom_site_fract_x
  _atom_site_fract_y
  _atom_site_fract_z
  _atom_site_occupancy
  H   H1        1.0  0.04730  0.76700  0.01950  1.0000
  H   H2        1.0  0.61900  0.39100  0.07350  1.0000
  H   H3        1.0  0.83500  0.86100  0.40200  1.0000
  H   H4        1.0  0.54700  0.23300  0.51900  1.0000
  H   H5        1.0  0.11900  0.60900  0.57400  1.0000
  H   H6        1.0  0.33500  0.13900  0.90200  1.0000
  Li  Li1       1.0  0.00180  0.24700  0.48300  1.0000
  Li  Li2       1.0  0.50200  0.75300  0.98300  1.0000
  O   O1        1.0  0.48500  0.48200  0.05500  1.0000
  O   O2        1.0  0.21400  0.79700  0.10200  1.0000
  O   O3        1.0  0.80800  0.28200  0.10400  1.0000
  O   O4        1.0  0.69100  0.77800  0.36700  1.0000
  O   O5        1.0  0.30600  0.29100  0.37400  1.0000
  O   O6        1.0  0.01660  0.97600  0.42100  1.0000
  O   O7        1.0  0.98500  0.51800  0.55500  1.0000
  O   O8        1.0  0.71400  0.20300  0.60200  1.0000
  O   O9        1.0  0.30800  0.71800  0.60400  1.0000
  O   O10       1.0  0.19100  0.22200  0.86700  1.0000
  O   O11       1.0  0.80600  0.70900  0.87400  1.0000
  O   O12       1.0  0.51700  0.02370  0.92100  1.0000
  Se  Se1       1.0  0.22700  0.39600  0.09020  1.0000
  Se  Se2       1.0  0.27600  0.90000  0.41400  1.0000
  Se  Se3       1.0  0.72700  0.60400  0.59000  1.0000
  Se  Se4       1.0  0.77600  0.10000  0.91400  1.0000
