data_image0
_chemical_formula_structural       Ag2N4Na2O8
_chemical_formula_sum              "Ag2 N4 Na2 O8"
_cell_length_a       6.40536
_cell_length_b       6.40536
_cell_length_c       6.61035
_cell_angle_alpha    108.707
_cell_angle_beta     108.707
_cell_angle_gamma    109.756

_space_group_name_H-M_alt    "P 1"
_space_group_IT_number       1

loop_
  _space_group_symop_operation_xyz
  'x, y, z'

loop_
  _atom_site_type_symbol
  _atom_site_label
  _atom_site_symmetry_multiplicity
  _atom_site_fract_x
  _atom_site_fract_y
  _atom_site_fract_z
  _atom_site_occupancy
  Ag  Ag1       1.0  0.00000  0.00000  0.00000  1.0000
  Ag  Ag2       1.0  0.75000  0.25000  0.50000  1.0000
  N   N1        1.0  0.79300  0.20700  0.00000  1.0000
  N   N2        1.0  0.20700  0.79300  0.00000  1.0000
  N   N3        1.0  0.47600  0.52400  0.50000  1.0000
  N   N4        1.0  0.02420  0.97600  0.50000  1.0000
  Na  Na1       1.0  0.50000  0.50000  0.00000  1.0000
  Na  Na2       1.0  0.25000  0.75000  0.50000  1.0000
  O   O1        1.0  0.86600  0.40800  0.18600  1.0000
  O   O2        1.0  0.32000  0.77800  0.18600  1.0000
  O   O3        1.0  0.47200  0.38800  0.30900  1.0000
  O   O4        1.0  0.83700  0.92000  0.30900  1.0000
  O   O5        1.0  0.07960  0.16300  0.69100  1.0000
  O   O6        1.0  0.61200  0.52800  0.69100  1.0000
  O   O7        1.0  0.59200  0.13400  0.81400  1.0000
  O   O8        1.0  0.22200  0.68000  0.81400  1.0000
