data_image0
_chemical_formula_structural       Cs2Te10Ti2U2
_chemical_formula_sum              "Cs2 Te10 Ti2 U2"
_cell_length_a       6.15418
_cell_length_b       8.74045
_cell_length_c       10.3307
_cell_angle_alpha    90
_cell_angle_beta     90
_cell_angle_gamma    90

_space_group_name_H-M_alt    "P 1"
_space_group_IT_number       1

loop_
  _space_group_symop_operation_xyz
  'x, y, z'

loop_
  _atom_site_type_symbol
  _atom_site_label
  _atom_site_symmetry_multiplicity
  _atom_site_fract_x
  _atom_site_fract_y
  _atom_site_fract_z
  _atom_site_occupancy
  Cs  Cs1       1.0  0.75000  0.50000  0.21600  1.0000
  Cs  Cs2       1.0  0.25000  0.50000  0.78400  1.0000
  Te  Te1       1.0  0.25000  0.23500  0.10800  1.0000
  Te  Te2       1.0  0.25000  0.76500  0.10800  1.0000
  Te  Te3       1.0  0.75000  0.00000  0.22700  1.0000
  Te  Te4       1.0  0.00000  0.23700  0.50000  1.0000
  Te  Te5       1.0  0.50000  0.23700  0.50000  1.0000
  Te  Te6       1.0  0.00000  0.76300  0.50000  1.0000
  Te  Te7       1.0  0.50000  0.76300  0.50000  1.0000
  Te  Te8       1.0  0.25000  0.00000  0.77300  1.0000
  Te  Te9       1.0  0.75000  0.23500  0.89200  1.0000
  Te  Te10      1.0  0.75000  0.76500  0.89200  1.0000
  Ti  Ti1       1.0  0.00000  0.00000  0.00000  1.0000
  Ti  Ti2       1.0  0.50000  0.00000  0.00000  1.0000
  U   U1        1.0  0.25000  0.00000  0.32600  1.0000
  U   U2        1.0  0.75000  0.00000  0.67400  1.0000
