data_image0
_chemical_formula_structural       F8H12O2
_chemical_formula_sum              "F8 H12 O2"
_cell_length_a       5.19384
_cell_length_b       5.6749
_cell_length_c       6.44004
_cell_angle_alpha    118.507
_cell_angle_beta     95.0153
_cell_angle_gamma    106.362

_space_group_name_H-M_alt    "P 1"
_space_group_IT_number       1

loop_
  _space_group_symop_operation_xyz
  'x, y, z'

loop_
  _atom_site_type_symbol
  _atom_site_label
  _atom_site_symmetry_multiplicity
  _atom_site_fract_x
  _atom_site_fract_y
  _atom_site_fract_z
  _atom_site_occupancy
  F   F1        1.0  0.69000  0.25300  0.16100  1.0000
  F   F2        1.0  0.15800  0.14300  0.23300  1.0000
  F   F3        1.0  0.06590  0.69600  0.37200  1.0000
  F   F4        1.0  0.51900  0.72600  0.42200  1.0000
  F   F5        1.0  0.48100  0.27400  0.57800  1.0000
  F   F6        1.0  0.93400  0.30400  0.62800  1.0000
  F   F7        1.0  0.84200  0.85700  0.76700  1.0000
  F   F8        1.0  0.31000  0.74700  0.83900  1.0000
  H   H1        1.0  0.43700  0.23500  0.01100  1.0000
  H   H2        1.0  0.89400  0.91700  0.15500  1.0000
  H   H3        1.0  0.63800  0.75400  0.23900  1.0000
  H   H4        1.0  0.86100  0.43600  0.24800  1.0000
  H   H5        1.0  0.30300  0.19600  0.38000  1.0000
  H   H6        1.0  0.27100  0.70000  0.39700  1.0000
  H   H7        1.0  0.72900  0.30000  0.60300  1.0000
  H   H8        1.0  0.69700  0.80400  0.62000  1.0000
  H   H9        1.0  0.13900  0.56400  0.75200  1.0000
  H   H10       1.0  0.36200  0.24600  0.76100  1.0000
  H   H11       1.0  0.10600  0.08290  0.84500  1.0000
  H   H12       1.0  0.56300  0.76500  0.98900  1.0000
  O   O1        1.0  0.70800  0.75100  0.09410  1.0000
  O   O2        1.0  0.29200  0.24900  0.90600  1.0000
