data_image0
_chemical_formula_structural       Cs4H8O8P4
_chemical_formula_sum              "Cs4 H8 O8 P4"
_cell_length_a       8.20441
_cell_length_b       6.64477
_cell_length_c       7.84204
_cell_angle_alpha    90
_cell_angle_beta     90
_cell_angle_gamma    90

_space_group_name_H-M_alt    "P 1"
_space_group_IT_number       1

loop_
  _space_group_symop_operation_xyz
  'x, y, z'

loop_
  _atom_site_type_symbol
  _atom_site_label
  _atom_site_symmetry_multiplicity
  _atom_site_fract_x
  _atom_site_fract_y
  _atom_site_fract_z
  _atom_site_occupancy
  Cs  Cs1       1.0  0.63400  0.25000  0.13600  1.0000
  Cs  Cs2       1.0  0.13400  0.25000  0.36400  1.0000
  Cs  Cs3       1.0  0.86600  0.75000  0.63600  1.0000
  Cs  Cs4       1.0  0.36600  0.75000  0.86400  1.0000
  H   H1        1.0  0.76100  0.75000  0.04510  1.0000
  H   H2        1.0  0.03030  0.75000  0.06360  1.0000
  H   H3        1.0  0.53000  0.75000  0.43600  1.0000
  H   H4        1.0  0.26100  0.75000  0.45500  1.0000
  H   H5        1.0  0.73900  0.25000  0.54500  1.0000
  H   H6        1.0  0.47000  0.25000  0.56400  1.0000
  H   H7        1.0  0.97000  0.25000  0.93600  1.0000
  H   H8        1.0  0.23900  0.25000  0.95500  1.0000
  O   O1        1.0  0.38200  0.55300  0.23300  1.0000
  O   O2        1.0  0.38200  0.94700  0.23300  1.0000
  O   O3        1.0  0.88200  0.55300  0.26700  1.0000
  O   O4        1.0  0.88200  0.94700  0.26700  1.0000
  O   O5        1.0  0.11800  0.05340  0.73300  1.0000
  O   O6        1.0  0.11800  0.44700  0.73300  1.0000
  O   O7        1.0  0.61800  0.05340  0.76700  1.0000
  O   O8        1.0  0.61800  0.44700  0.76700  1.0000
  P   P1        1.0  0.88900  0.75000  0.17000  1.0000
  P   P2        1.0  0.38900  0.75000  0.33000  1.0000
  P   P3        1.0  0.61100  0.25000  0.67000  1.0000
  P   P4        1.0  0.11100  0.25000  0.83000  1.0000
