data_image0
_chemical_formula_structural       Br8H8O4Sr4
_chemical_formula_sum              "Br8 H8 O4 Sr4"
_cell_length_a       11.4748
_cell_length_b       4.26419
_cell_length_c       9.25412
_cell_angle_alpha    90
_cell_angle_beta     90
_cell_angle_gamma    90

_space_group_name_H-M_alt    "P 1"
_space_group_IT_number       1

loop_
  _space_group_symop_operation_xyz
  'x, y, z'

loop_
  _atom_site_type_symbol
  _atom_site_label
  _atom_site_symmetry_multiplicity
  _atom_site_fract_x
  _atom_site_fract_y
  _atom_site_fract_z
  _atom_site_occupancy
  Br  Br1       1.0  0.89900  0.25000  0.11600  1.0000
  Br  Br2       1.0  0.61500  0.75000  0.15300  1.0000
  Br  Br3       1.0  0.11500  0.75000  0.34700  1.0000
  Br  Br4       1.0  0.39900  0.25000  0.38400  1.0000
  Br  Br5       1.0  0.60100  0.75000  0.61600  1.0000
  Br  Br6       1.0  0.88500  0.25000  0.65300  1.0000
  Br  Br7       1.0  0.38500  0.25000  0.84700  1.0000
  Br  Br8       1.0  0.10100  0.75000  0.88400  1.0000
  H   H1        1.0  0.37700  0.75000  0.02680  1.0000
  H   H2        1.0  0.38000  0.75000  0.19500  1.0000
  H   H3        1.0  0.88000  0.75000  0.30500  1.0000
  H   H4        1.0  0.87700  0.75000  0.47300  1.0000
  H   H5        1.0  0.12300  0.25000  0.52700  1.0000
  H   H6        1.0  0.12000  0.25000  0.69500  1.0000
  H   H7        1.0  0.62000  0.25000  0.80500  1.0000
  H   H8        1.0  0.62300  0.25000  0.97300  1.0000
  O   O1        1.0  0.32600  0.75000  0.11200  1.0000
  O   O2        1.0  0.82600  0.75000  0.38800  1.0000
  O   O3        1.0  0.17400  0.25000  0.61200  1.0000
  O   O4        1.0  0.67400  0.25000  0.88800  1.0000
  Sr  Sr1       1.0  0.18800  0.25000  0.11200  1.0000
  Sr  Sr2       1.0  0.68800  0.25000  0.38800  1.0000
  Sr  Sr3       1.0  0.31200  0.75000  0.61200  1.0000
  Sr  Sr4       1.0  0.81200  0.75000  0.88800  1.0000
