data_image0
_chemical_formula_structural       Ba2Cl4H4O14
_chemical_formula_sum              "Ba2 Cl4 H4 O14"
_cell_length_a       7.29074
_cell_length_b       7.29074
_cell_length_c       7.65943
_cell_angle_alpha    103.191
_cell_angle_beta     107.847
_cell_angle_gamma    115.994

_space_group_name_H-M_alt    "P 1"
_space_group_IT_number       1

loop_
  _space_group_symop_operation_xyz
  'x, y, z'

loop_
  _atom_site_type_symbol
  _atom_site_label
  _atom_site_symmetry_multiplicity
  _atom_site_fract_x
  _atom_site_fract_y
  _atom_site_fract_z
  _atom_site_occupancy
  Ba  Ba1       1.0  0.39400  0.64400  0.25000  1.0000
  Ba  Ba2       1.0  0.60600  0.35600  0.75000  1.0000
  Cl  Cl1       1.0  0.51700  0.21500  0.18800  1.0000
  Cl  Cl2       1.0  0.02710  0.82900  0.31200  1.0000
  Cl  Cl3       1.0  0.97300  0.17100  0.68800  1.0000
  Cl  Cl4       1.0  0.48300  0.78500  0.81200  1.0000
  H   H1        1.0  0.90000  0.18300  0.13100  1.0000
  H   H2        1.0  0.05190  0.26800  0.36900  1.0000
  H   H3        1.0  0.94800  0.73200  0.63100  1.0000
  H   H4        1.0  0.10000  0.81700  0.86900  1.0000
  O   O1        1.0  0.42000  0.27700  0.02410  1.0000
  O   O2        1.0  0.35500  0.96500  0.11100  1.0000
  O   O3        1.0  0.96300  0.63000  0.13800  1.0000
  O   O4        1.0  0.04900  0.29900  0.25000  1.0000
  O   O5        1.0  0.49200  0.32500  0.36200  1.0000
  O   O6        1.0  0.85400  0.74400  0.38900  1.0000
  O   O7        1.0  0.25300  0.89600  0.47600  1.0000
  O   O8        1.0  0.74700  0.10400  0.52400  1.0000
  O   O9        1.0  0.14600  0.25600  0.61100  1.0000
  O   O10       1.0  0.50800  0.67500  0.63800  1.0000
  O   O11       1.0  0.95100  0.70100  0.75000  1.0000
  O   O12       1.0  0.03690  0.37000  0.86200  1.0000
  O   O13       1.0  0.64500  0.03530  0.88900  1.0000
  O   O14       1.0  0.58000  0.72300  0.97600  1.0000
