data_image0
_chemical_formula_structural       Ca2H8O12Se2
_chemical_formula_sum              "Ca2 H8 O12 Se2"
_cell_length_a       5.76047
_cell_length_b       6.47353
_cell_length_c       8.30578
_cell_angle_alpha    112.936
_cell_angle_beta     100.128
_cell_angle_gamma    63.1766

_space_group_name_H-M_alt    "P 1"
_space_group_IT_number       1

loop_
  _space_group_symop_operation_xyz
  'x, y, z'

loop_
  _atom_site_type_symbol
  _atom_site_label
  _atom_site_symmetry_multiplicity
  _atom_site_fract_x
  _atom_site_fract_y
  _atom_site_fract_z
  _atom_site_occupancy
  Ca  Ca1       1.0  0.75000  0.16800  0.33600  1.0000
  Ca  Ca2       1.0  0.25000  0.83200  0.66400  1.0000
  H   H1        1.0  0.92800  0.23900  0.99300  1.0000
  H   H2        1.0  0.57200  0.75400  0.99300  1.0000
  H   H3        1.0  0.42800  0.24600  0.00708  1.0000
  H   H4        1.0  0.07220  0.76100  0.00708  1.0000
  H   H5        1.0  0.25500  0.34000  0.17200  1.0000
  H   H6        1.0  0.24500  0.83100  0.17200  1.0000
  H   H7        1.0  0.75500  0.16900  0.82800  1.0000
  H   H8        1.0  0.74500  0.66000  0.82800  1.0000
  O   O1        1.0  0.06670  0.84500  0.13500  1.0000
  O   O2        1.0  0.43300  0.29100  0.13500  1.0000
  O   O3        1.0  0.94900  0.38000  0.21600  1.0000
  O   O4        1.0  0.55100  0.83600  0.21600  1.0000
  O   O5        1.0  0.59100  0.62500  0.46000  1.0000
  O   O6        1.0  0.90900  0.83500  0.46000  1.0000
  O   O7        1.0  0.09070  0.16500  0.54000  1.0000
  O   O8        1.0  0.40900  0.37500  0.54000  1.0000
  O   O9        1.0  0.44900  0.16400  0.78400  1.0000
  O   O10       1.0  0.05090  0.62000  0.78400  1.0000
  O   O11       1.0  0.93300  0.15500  0.86500  1.0000
  O   O12       1.0  0.56700  0.70900  0.86500  1.0000
  Se  Se1       1.0  0.75000  0.66800  0.33600  1.0000
  Se  Se2       1.0  0.25000  0.33200  0.66400  1.0000
