data_image0
_chemical_formula_structural       CuH2O12Se4Sr2
_chemical_formula_sum              "Cu1 H2 O12 Se4 Sr2"
_cell_length_a       5.08321
_cell_length_b       6.7985
_cell_length_c       9.0095
_cell_angle_alpha    70.5449
_cell_angle_beta     78.9423
_cell_angle_gamma    87.3053

_space_group_name_H-M_alt    "P 1"
_space_group_IT_number       1

loop_
  _space_group_symop_operation_xyz
  'x, y, z'

loop_
  _atom_site_type_symbol
  _atom_site_label
  _atom_site_symmetry_multiplicity
  _atom_site_fract_x
  _atom_site_fract_y
  _atom_site_fract_z
  _atom_site_occupancy
  Cu  Cu1       1.0  0.00000  0.00000  0.00000  1.0000
  H   H1        1.0  0.22300  0.74700  0.20200  1.0000
  H   H2        1.0  0.77700  0.25300  0.79800  1.0000
  O   O1        1.0  0.17600  0.74100  0.10300  1.0000
  O   O2        1.0  0.08430  0.33500  0.13900  1.0000
  O   O3        1.0  0.72500  0.92900  0.19000  1.0000
  O   O4        1.0  0.56000  0.25900  0.28500  1.0000
  O   O5        1.0  0.25900  0.93900  0.36200  1.0000
  O   O6        1.0  0.87900  0.47500  0.38200  1.0000
  O   O7        1.0  0.12100  0.52500  0.61800  1.0000
  O   O8        1.0  0.74100  0.06090  0.63800  1.0000
  O   O9        1.0  0.44000  0.74100  0.71500  1.0000
  O   O10       1.0  0.27500  0.07130  0.81000  1.0000
  O   O11       1.0  0.91600  0.66500  0.86100  1.0000
  O   O12       1.0  0.82400  0.25900  0.89700  1.0000
  Se  Se1       1.0  0.86700  0.50600  0.18600  1.0000
  Se  Se2       1.0  0.45300  0.10100  0.18800  1.0000
  Se  Se3       1.0  0.54700  0.89900  0.81200  1.0000
  Se  Se4       1.0  0.13300  0.49400  0.81400  1.0000
  Sr  Sr1       1.0  0.79700  0.78300  0.47500  1.0000
  Sr  Sr2       1.0  0.20300  0.21700  0.52500  1.0000
