data_image0
_chemical_formula_structural       Br4Cu4Se8
_chemical_formula_sum              "Br4 Cu4 Se8"
_cell_length_a       7.92535
_cell_length_b       4.83275
_cell_length_c       11.335
_cell_angle_alpha    90
_cell_angle_beta     103.341
_cell_angle_gamma    90

_space_group_name_H-M_alt    "P 1"
_space_group_IT_number       1

loop_
  _space_group_symop_operation_xyz
  'x, y, z'

loop_
  _atom_site_type_symbol
  _atom_site_label
  _atom_site_symmetry_multiplicity
  _atom_site_fract_x
  _atom_site_fract_y
  _atom_site_fract_z
  _atom_site_occupancy
  Br  Br1       1.0  0.20600  0.38500  0.11000  1.0000
  Br  Br2       1.0  0.29400  0.88500  0.39000  1.0000
  Br  Br3       1.0  0.70600  0.11500  0.61000  1.0000
  Br  Br4       1.0  0.79400  0.61500  0.89000  1.0000
  Cu  Cu1       1.0  0.06370  0.63700  0.24800  1.0000
  Cu  Cu2       1.0  0.43600  0.13700  0.25200  1.0000
  Cu  Cu3       1.0  0.56400  0.86300  0.74800  1.0000
  Cu  Cu4       1.0  0.93600  0.36300  0.75200  1.0000
  Se  Se1       1.0  0.85500  0.97600  0.15600  1.0000
  Se  Se2       1.0  0.58300  0.79600  0.16100  1.0000
  Se  Se3       1.0  0.91700  0.29600  0.33900  1.0000
  Se  Se4       1.0  0.64500  0.47600  0.34400  1.0000
  Se  Se5       1.0  0.35500  0.52400  0.65600  1.0000
  Se  Se6       1.0  0.08300  0.70400  0.66100  1.0000
  Se  Se7       1.0  0.41700  0.20400  0.83900  1.0000
  Se  Se8       1.0  0.14500  0.02430  0.84400  1.0000
