data_image0
_chemical_formula_structural       Cs3H12Li3N6
_chemical_formula_sum              "Cs3 H12 Li3 N6"
_cell_length_a       6.25345
_cell_length_b       6.25345
_cell_length_c       8.26963
_cell_angle_alpha    90
_cell_angle_beta     90
_cell_angle_gamma    120

_space_group_name_H-M_alt    "P 1"
_space_group_IT_number       1

loop_
  _space_group_symop_operation_xyz
  'x, y, z'

loop_
  _atom_site_type_symbol
  _atom_site_label
  _atom_site_symmetry_multiplicity
  _atom_site_fract_x
  _atom_site_fract_y
  _atom_site_fract_z
  _atom_site_occupancy
  Cs  Cs1       1.0  0.00000  0.50000  0.16700  1.0000
  Cs  Cs2       1.0  0.50000  0.00000  0.50000  1.0000
  Cs  Cs3       1.0  0.50000  0.50000  0.83300  1.0000
  H   H1        1.0  0.41100  0.09510  0.11600  1.0000
  H   H2        1.0  0.58900  0.90500  0.11600  1.0000
  H   H3        1.0  0.41100  0.31600  0.21700  1.0000
  H   H4        1.0  0.58900  0.68400  0.21700  1.0000
  H   H5        1.0  0.31600  0.41100  0.44900  1.0000
  H   H6        1.0  0.68400  0.58900  0.44900  1.0000
  H   H7        1.0  0.09510  0.41100  0.55100  1.0000
  H   H8        1.0  0.90500  0.58900  0.55100  1.0000
  H   H9        1.0  0.90500  0.31600  0.78300  1.0000
  H   H10       1.0  0.09510  0.68400  0.78300  1.0000
  H   H11       1.0  0.68400  0.09510  0.88400  1.0000
  H   H12       1.0  0.31600  0.90500  0.88400  1.0000
  Li  Li1       1.0  0.00000  0.00000  0.00000  1.0000
  Li  Li2       1.0  0.00000  0.00000  0.33300  1.0000
  Li  Li3       1.0  0.00000  0.00000  0.66700  1.0000
  N   N1        1.0  0.29300  0.14600  0.16700  1.0000
  N   N2        1.0  0.70700  0.85400  0.16700  1.0000
  N   N3        1.0  0.14600  0.29300  0.50000  1.0000
  N   N4        1.0  0.85400  0.70700  0.50000  1.0000
  N   N5        1.0  0.85400  0.14600  0.83300  1.0000
  N   N6        1.0  0.14600  0.85400  0.83300  1.0000
