data_image0
_chemical_formula_structural       Ga4H16K4
_chemical_formula_sum              "Ga4 H16 K4"
_cell_length_a       8.78842
_cell_length_b       5.40556
_cell_length_c       7.1118
_cell_angle_alpha    90
_cell_angle_beta     90
_cell_angle_gamma    90

_space_group_name_H-M_alt    "P 1"
_space_group_IT_number       1

loop_
  _space_group_symop_operation_xyz
  'x, y, z'

loop_
  _atom_site_type_symbol
  _atom_site_label
  _atom_site_symmetry_multiplicity
  _atom_site_fract_x
  _atom_site_fract_y
  _atom_site_fract_z
  _atom_site_occupancy
  Ga  Ga1       1.0  0.43700  0.75000  0.18900  1.0000
  Ga  Ga2       1.0  0.93700  0.75000  0.31100  1.0000
  Ga  Ga3       1.0  0.06260  0.25000  0.68900  1.0000
  Ga  Ga4       1.0  0.56300  0.25000  0.81100  1.0000
  H   H1        1.0  0.30700  0.75000  0.03430  1.0000
  H   H2        1.0  0.60500  0.75000  0.10500  1.0000
  H   H3        1.0  0.91600  0.51100  0.17900  1.0000
  H   H4        1.0  0.91600  0.98900  0.17900  1.0000
  H   H5        1.0  0.41600  0.51100  0.32100  1.0000
  H   H6        1.0  0.41600  0.98900  0.32100  1.0000
  H   H7        1.0  0.10500  0.75000  0.39500  1.0000
  H   H8        1.0  0.80700  0.75000  0.46600  1.0000
  H   H9        1.0  0.19300  0.25000  0.53400  1.0000
  H   H10       1.0  0.89500  0.25000  0.60500  1.0000
  H   H11       1.0  0.58400  0.01130  0.67900  1.0000
  H   H12       1.0  0.58400  0.48900  0.67900  1.0000
  H   H13       1.0  0.08380  0.01130  0.82100  1.0000
  H   H14       1.0  0.08380  0.48900  0.82100  1.0000
  H   H15       1.0  0.39500  0.25000  0.89500  1.0000
  H   H16       1.0  0.69300  0.25000  0.96600  1.0000
  K   K1        1.0  0.18100  0.25000  0.15900  1.0000
  K   K2        1.0  0.68100  0.25000  0.34100  1.0000
  K   K3        1.0  0.31900  0.75000  0.65900  1.0000
  K   K4        1.0  0.81900  0.75000  0.84100  1.0000
