data_image0
_chemical_formula_structural       Cu2HK3O14P4
_chemical_formula_sum              "Cu2 H1 K3 O14 P4"
_cell_length_a       5.26065
_cell_length_b       5.49382
_cell_length_c       12.5455
_cell_angle_alpha    90.2489
_cell_angle_beta     100.829
_cell_angle_gamma    117.367

_space_group_name_H-M_alt    "P 1"
_space_group_IT_number       1

loop_
  _space_group_symop_operation_xyz
  'x, y, z'

loop_
  _atom_site_type_symbol
  _atom_site_label
  _atom_site_symmetry_multiplicity
  _atom_site_fract_x
  _atom_site_fract_y
  _atom_site_fract_z
  _atom_site_occupancy
  Cu  Cu1       1.0  0.97700  0.23200  0.22200  1.0000
  Cu  Cu2       1.0  0.02280  0.76800  0.77800  1.0000
  H   H1        1.0  0.50000  0.50000  0.50000  1.0000
  K   K1        1.0  0.20400  0.85200  0.06440  1.0000
  K   K2        1.0  1.00000  1.00000  0.50000  1.0000
  K   K3        1.0  0.79600  0.14800  0.93600  1.0000
  O   O1        1.0  0.71300  0.81800  0.12100  1.0000
  O   O2        1.0  0.25000  0.37100  0.12200  1.0000
  O   O3        1.0  0.73000  0.36100  0.12600  1.0000
  O   O4        1.0  0.65900  0.56800  0.29200  1.0000
  O   O5        1.0  0.23100  0.10500  0.31100  1.0000
  O   O6        1.0  0.73600  0.14600  0.33000  1.0000
  O   O7        1.0  0.64000  0.39400  0.47600  1.0000
  O   O8        1.0  0.36000  0.60600  0.52400  1.0000
  O   O9        1.0  0.26400  0.85400  0.67000  1.0000
  O   O10       1.0  0.76900  0.89500  0.68900  1.0000
  O   O11       1.0  0.34100  0.43200  0.70800  1.0000
  O   O12       1.0  0.27000  0.63900  0.87400  1.0000
  O   O13       1.0  0.75000  0.62900  0.87800  1.0000
  O   O14       1.0  0.28700  0.18200  0.87900  1.0000
  P   P1        1.0  0.58800  0.53400  0.15800  1.0000
  P   P2        1.0  0.56100  0.28900  0.35400  1.0000
  P   P3        1.0  0.43900  0.71100  0.64600  1.0000
  P   P4        1.0  0.41200  0.46600  0.84200  1.0000
