data_image0
_chemical_formula_structural       S8Sb2Tl6
_chemical_formula_sum              "S8 Sb2 Tl6"
_cell_length_a       6.39468
_cell_length_b       6.52485
_cell_length_c       12.0027
_cell_angle_alpha    95.1902
_cell_angle_beta     98.9057
_cell_angle_gamma    104.213

_space_group_name_H-M_alt    "P 1"
_space_group_IT_number       1

loop_
  _space_group_symop_operation_xyz
  'x, y, z'

loop_
  _atom_site_type_symbol
  _atom_site_label
  _atom_site_symmetry_multiplicity
  _atom_site_fract_x
  _atom_site_fract_y
  _atom_site_fract_z
  _atom_site_occupancy
  S   S1        1.0  0.72000  0.20200  0.10200  1.0000
  S   S2        1.0  0.56200  0.66100  0.22700  1.0000
  S   S3        1.0  0.19400  0.04640  0.22900  1.0000
  S   S4        1.0  0.75700  0.19300  0.43000  1.0000
  S   S5        1.0  0.24300  0.80700  0.57000  1.0000
  S   S6        1.0  0.80600  0.95400  0.77100  1.0000
  S   S7        1.0  0.43800  0.33900  0.77300  1.0000
  S   S8        1.0  0.28000  0.79800  0.89800  1.0000
  Sb  Sb1       1.0  0.56100  0.02470  0.24500  1.0000
  Sb  Sb2       1.0  0.43900  0.97500  0.75500  1.0000
  Tl  Tl1       1.0  0.24200  0.26400  0.00741  1.0000
  Tl  Tl2       1.0  0.03880  0.56000  0.28700  1.0000
  Tl  Tl3       1.0  0.29200  0.24700  0.48600  1.0000
  Tl  Tl4       1.0  0.70800  0.75300  0.51400  1.0000
  Tl  Tl5       1.0  0.96100  0.44000  0.71300  1.0000
  Tl  Tl6       1.0  0.75800  0.73600  0.99300  1.0000
