data_image0
_chemical_formula_structural       B4Ca8H4N8
_chemical_formula_sum              "B4 Ca8 H4 N8"
_cell_length_a       9.13822
_cell_length_b       3.64091
_cell_length_c       9.91966
_cell_angle_alpha    90
_cell_angle_beta     90
_cell_angle_gamma    90

_space_group_name_H-M_alt    "P 1"
_space_group_IT_number       1

loop_
  _space_group_symop_operation_xyz
  'x, y, z'

loop_
  _atom_site_type_symbol
  _atom_site_label
  _atom_site_symmetry_multiplicity
  _atom_site_fract_x
  _atom_site_fract_y
  _atom_site_fract_z
  _atom_site_occupancy
  B   B1        1.0  0.73400  0.25000  0.17600  1.0000
  B   B2        1.0  0.23400  0.25000  0.32400  1.0000
  B   B3        1.0  0.76600  0.75000  0.67600  1.0000
  B   B4        1.0  0.26600  0.75000  0.82400  1.0000
  Ca  Ca1       1.0  0.17600  0.25000  0.02390  1.0000
  Ca  Ca2       1.0  0.47500  0.75000  0.15600  1.0000
  Ca  Ca3       1.0  0.97500  0.75000  0.34400  1.0000
  Ca  Ca4       1.0  0.67600  0.25000  0.47600  1.0000
  Ca  Ca5       1.0  0.32400  0.75000  0.52400  1.0000
  Ca  Ca6       1.0  0.02490  0.25000  0.65600  1.0000
  Ca  Ca7       1.0  0.52500  0.25000  0.84400  1.0000
  Ca  Ca8       1.0  0.82400  0.75000  0.97600  1.0000
  H   H1        1.0  0.04110  0.75000  0.10400  1.0000
  H   H2        1.0  0.54100  0.75000  0.39600  1.0000
  H   H3        1.0  0.45900  0.25000  0.60400  1.0000
  H   H4        1.0  0.95900  0.25000  0.89600  1.0000
  N   N1        1.0  0.65100  0.25000  0.06310  1.0000
  N   N2        1.0  0.32200  0.25000  0.21700  1.0000
  N   N3        1.0  0.82200  0.25000  0.28300  1.0000
  N   N4        1.0  0.15100  0.25000  0.43700  1.0000
  N   N5        1.0  0.84900  0.75000  0.56300  1.0000
  N   N6        1.0  0.17800  0.75000  0.71700  1.0000
  N   N7        1.0  0.67800  0.75000  0.78300  1.0000
  N   N8        1.0  0.34900  0.75000  0.93700  1.0000
