data_image0
_chemical_formula_structural       F10H4K4O2V2
_chemical_formula_sum              "F10 H4 K4 O2 V2"
_cell_length_a       6.00621
_cell_length_b       6.00621
_cell_length_c       7.80423
_cell_angle_alpha    96.2844
_cell_angle_beta     96.2844
_cell_angle_gamma    79.9798

_space_group_name_H-M_alt    "P 1"
_space_group_IT_number       1

loop_
  _space_group_symop_operation_xyz
  'x, y, z'

loop_
  _atom_site_type_symbol
  _atom_site_label
  _atom_site_symmetry_multiplicity
  _atom_site_fract_x
  _atom_site_fract_y
  _atom_site_fract_z
  _atom_site_occupancy
  F   F1        1.0  0.71200  0.13300  0.00433  1.0000
  F   F2        1.0  0.99700  0.40000  0.19600  1.0000
  F   F3        1.0  0.53400  0.46600  0.25000  1.0000
  F   F4        1.0  0.60000  0.00330  0.30400  1.0000
  F   F5        1.0  0.86700  0.28800  0.49600  1.0000
  F   F6        1.0  0.13300  0.71200  0.50400  1.0000
  F   F7        1.0  0.40000  0.99700  0.69600  1.0000
  F   F8        1.0  0.46600  0.53400  0.75000  1.0000
  F   F9        1.0  0.00330  0.60000  0.80400  1.0000
  F   F10       1.0  0.28800  0.86700  0.99600  1.0000
  H   H1        1.0  0.16300  0.89900  0.15500  1.0000
  H   H2        1.0  0.10100  0.83700  0.34500  1.0000
  H   H3        1.0  0.89900  0.16300  0.65500  1.0000
  H   H4        1.0  0.83700  0.10100  0.84500  1.0000
  K   K1        1.0  0.71100  0.69200  0.03200  1.0000
  K   K2        1.0  0.30800  0.28900  0.46800  1.0000
  K   K3        1.0  0.69200  0.71100  0.53200  1.0000
  K   K4        1.0  0.28900  0.30800  0.96800  1.0000
  O   O1        1.0  0.06010  0.94000  0.25000  1.0000
  O   O2        1.0  0.94000  0.06010  0.75000  1.0000
  V   V1        1.0  0.79300  0.20700  0.25000  1.0000
  V   V2        1.0  0.20700  0.79300  0.75000  1.0000
