data_image0
_chemical_formula_structural       Nd10Pb6
_chemical_formula_sum              "Nd10 Pb6"
_cell_length_a       9.37284
_cell_length_b       9.37284
_cell_length_c       6.86346
_cell_angle_alpha    90
_cell_angle_beta     90
_cell_angle_gamma    120

_space_group_name_H-M_alt    "P 1"
_space_group_IT_number       1

loop_
  _space_group_symop_operation_xyz
  'x, y, z'

loop_
  _atom_site_type_symbol
  _atom_site_label
  _atom_site_symmetry_multiplicity
  _atom_site_fract_x
  _atom_site_fract_y
  _atom_site_fract_z
  _atom_site_occupancy
  Nd  Nd1       1.0  0.66700  0.33300  0.00000  1.0000
  Nd  Nd2       1.0  0.33300  0.66700  0.00000  1.0000
  Nd  Nd3       1.0  0.76100  0.76100  0.25000  1.0000
  Nd  Nd4       1.0  0.23900  0.00000  0.25000  1.0000
  Nd  Nd5       1.0  0.00000  0.23900  0.25000  1.0000
  Nd  Nd6       1.0  0.66700  0.33300  0.50000  1.0000
  Nd  Nd7       1.0  0.33300  0.66700  0.50000  1.0000
  Nd  Nd8       1.0  0.23900  0.23900  0.75000  1.0000
  Nd  Nd9       1.0  0.76100  0.00000  0.75000  1.0000
  Nd  Nd10      1.0  0.00000  0.76100  0.75000  1.0000
  Pb  Pb1       1.0  0.60600  0.00000  0.25000  1.0000
  Pb  Pb2       1.0  0.00000  0.60600  0.25000  1.0000
  Pb  Pb3       1.0  0.39400  0.39400  0.25000  1.0000
  Pb  Pb4       1.0  0.39400  0.00000  0.75000  1.0000
  Pb  Pb5       1.0  0.00000  0.39400  0.75000  1.0000
  Pb  Pb6       1.0  0.60600  0.60600  0.75000  1.0000
