data_image0
_chemical_formula_structural       I10K2Sn4
_chemical_formula_sum              "I10 K2 Sn4"
_cell_length_a       8.99409
_cell_length_b       8.99409
_cell_length_c       10.2307
_cell_angle_alpha    116.076
_cell_angle_beta     116.076
_cell_angle_gamma    90

_space_group_name_H-M_alt    "P 1"
_space_group_IT_number       1

loop_
  _space_group_symop_operation_xyz
  'x, y, z'

loop_
  _atom_site_type_symbol
  _atom_site_label
  _atom_site_symmetry_multiplicity
  _atom_site_fract_x
  _atom_site_fract_y
  _atom_site_fract_z
  _atom_site_occupancy
  I   I1        1.0  0.00000  0.00000  0.00000  1.0000
  I   I2        1.0  0.50000  0.50000  0.00000  1.0000
  I   I3        1.0  0.47700  0.29400  0.27100  1.0000
  I   I4        1.0  0.97700  0.47700  0.27100  1.0000
  I   I5        1.0  0.29400  0.79400  0.27100  1.0000
  I   I6        1.0  0.79400  0.97700  0.27100  1.0000
  I   I7        1.0  0.20600  0.02320  0.72900  1.0000
  I   I8        1.0  0.70600  0.20600  0.72900  1.0000
  I   I9        1.0  0.02320  0.52300  0.72900  1.0000
  I   I10       1.0  0.52300  0.70600  0.72900  1.0000
  K   K1        1.0  0.25000  0.25000  0.50000  1.0000
  K   K2        1.0  0.75000  0.75000  0.50000  1.0000
  Sn  Sn1       1.0  0.67700  0.17700  0.00000  1.0000
  Sn  Sn2       1.0  0.17700  0.32300  0.00000  1.0000
  Sn  Sn3       1.0  0.82300  0.67700  0.00000  1.0000
  Sn  Sn4       1.0  0.32300  0.82300  0.00000  1.0000
