data_image0
_chemical_formula_structural       Ca2F12Tb2
_chemical_formula_sum              "Ca2 F12 Tb2"
_cell_length_a       5.04944
_cell_length_b       5.04944
_cell_length_c       7.67898
_cell_angle_alpha    90
_cell_angle_beta     90
_cell_angle_gamma    90

_space_group_name_H-M_alt    "P 1"
_space_group_IT_number       1

loop_
  _space_group_symop_operation_xyz
  'x, y, z'

loop_
  _atom_site_type_symbol
  _atom_site_label
  _atom_site_symmetry_multiplicity
  _atom_site_fract_x
  _atom_site_fract_y
  _atom_site_fract_z
  _atom_site_occupancy
  Ca  Ca1       1.0  0.00000  0.00000  0.00000  1.0000
  Ca  Ca2       1.0  0.00000  0.00000  0.50000  1.0000
  F   F1        1.0  0.27200  0.38500  0.00000  1.0000
  F   F2        1.0  0.72800  0.61500  0.00000  1.0000
  F   F3        1.0  0.69600  0.11900  0.18600  1.0000
  F   F4        1.0  0.30400  0.88100  0.18600  1.0000
  F   F5        1.0  0.11900  0.30400  0.31400  1.0000
  F   F6        1.0  0.88100  0.69600  0.31400  1.0000
  F   F7        1.0  0.61500  0.27200  0.50000  1.0000
  F   F8        1.0  0.38500  0.72800  0.50000  1.0000
  F   F9        1.0  0.11900  0.30400  0.68600  1.0000
  F   F10       1.0  0.88100  0.69600  0.68600  1.0000
  F   F11       1.0  0.69600  0.11900  0.81400  1.0000
  F   F12       1.0  0.30400  0.88100  0.81400  1.0000
  Tb  Tb1       1.0  0.50000  0.50000  0.25000  1.0000
  Tb  Tb2       1.0  0.50000  0.50000  0.75000  1.0000
