data_image0
_chemical_formula_structural       C12Cs6H6
_chemical_formula_sum              "C12 Cs6 H6"
_cell_length_a       9.06149
_cell_length_b       9.06149
_cell_length_c       9.06149
_cell_angle_alpha    109.288
_cell_angle_beta     109.288
_cell_angle_gamma    109.288

_space_group_name_H-M_alt    "P 1"
_space_group_IT_number       1

loop_
  _space_group_symop_operation_xyz
  'x, y, z'

loop_
  _atom_site_type_symbol
  _atom_site_label
  _atom_site_symmetry_multiplicity
  _atom_site_fract_x
  _atom_site_fract_y
  _atom_site_fract_z
  _atom_site_occupancy
  C   C1        1.0  0.85800  0.57500  0.01940  1.0000
  C   C2        1.0  0.35800  0.51900  0.07500  1.0000
  C   C3        1.0  0.33100  0.39900  0.11600  1.0000
  C   C4        1.0  0.39900  0.11600  0.33100  1.0000
  C   C5        1.0  0.51900  0.07500  0.35800  1.0000
  C   C6        1.0  0.11600  0.33100  0.39900  1.0000
  C   C7        1.0  0.07500  0.35800  0.51900  1.0000
  C   C8        1.0  0.01940  0.85800  0.57500  1.0000
  C   C9        1.0  0.89900  0.83100  0.61600  1.0000
  C   C10       1.0  0.61600  0.89900  0.83100  1.0000
  C   C11       1.0  0.57500  0.01940  0.85800  1.0000
  C   C12       1.0  0.83100  0.61600  0.89900  1.0000
  Cs  Cs1       1.0  0.76000  0.88500  0.23600  1.0000
  Cs  Cs2       1.0  0.73600  0.38500  0.26000  1.0000
  Cs  Cs3       1.0  0.26000  0.73600  0.38500  1.0000
  Cs  Cs4       1.0  0.38500  0.26000  0.73600  1.0000
  Cs  Cs5       1.0  0.88500  0.23600  0.76000  1.0000
  Cs  Cs6       1.0  0.23600  0.76000  0.88500  1.0000
  H   H1        1.0  0.31000  0.29100  0.14700  1.0000
  H   H2        1.0  0.14700  0.31000  0.29100  1.0000
  H   H3        1.0  0.29100  0.14700  0.31000  1.0000
  H   H4        1.0  0.79100  0.81000  0.64700  1.0000
  H   H5        1.0  0.81000  0.64700  0.79100  1.0000
  H   H6        1.0  0.64700  0.79100  0.81000  1.0000
