data_image0
_chemical_formula_structural       B6CrH16
_chemical_formula_sum              "B6 Cr1 H16"
_cell_length_a       4.2519
_cell_length_b       5.47061
_cell_length_c       8.69109
_cell_angle_alpha    105.135
_cell_angle_beta     93.5701
_cell_angle_gamma    111.68

_space_group_name_H-M_alt    "P 1"
_space_group_IT_number       1

loop_
  _space_group_symop_operation_xyz
  'x, y, z'

loop_
  _atom_site_type_symbol
  _atom_site_label
  _atom_site_symmetry_multiplicity
  _atom_site_fract_x
  _atom_site_fract_y
  _atom_site_fract_z
  _atom_site_occupancy
  B   B1        1.0  0.10200  0.32800  0.12200  1.0000
  B   B2        1.0  0.32000  0.62200  0.30000  1.0000
  B   B3        1.0  0.26800  0.29600  0.30800  1.0000
  B   B4        1.0  0.73200  0.70400  0.69200  1.0000
  B   B5        1.0  0.68000  0.37800  0.70000  1.0000
  B   B6        1.0  0.89800  0.67200  0.87800  1.0000
  Cr  Cr1       1.0  0.00000  0.50000  0.50000  1.0000
  H   H1        1.0  0.25800  0.30200  0.01250  1.0000
  H   H2        1.0  0.79500  0.24900  0.08810  1.0000
  H   H3        1.0  0.19600  0.61900  0.16300  1.0000
  H   H4        1.0  0.11000  0.10500  0.17700  1.0000
  H   H5        1.0  0.61300  0.78400  0.32600  1.0000
  H   H6        1.0  0.53100  0.26200  0.33400  1.0000
  H   H7        1.0  0.14500  0.73400  0.38100  1.0000
  H   H8        1.0  0.07000  0.19300  0.39700  1.0000
  H   H9        1.0  0.93000  0.80700  0.60300  1.0000
  H   H10       1.0  0.85500  0.26600  0.61900  1.0000
  H   H11       1.0  0.46900  0.73800  0.66600  1.0000
  H   H12       1.0  0.38700  0.21600  0.67400  1.0000
  H   H13       1.0  0.89000  0.89500  0.82300  1.0000
  H   H14       1.0  0.80400  0.38100  0.83700  1.0000
  H   H15       1.0  0.20500  0.75100  0.91200  1.0000
  H   H16       1.0  0.74200  0.69800  0.98700  1.0000
