data_image0
_chemical_formula_structural       H6Mo2O14P2
_chemical_formula_sum              "H6 Mo2 O14 P2"
_cell_length_a       6.55347
_cell_length_b       6.30759
_cell_length_c       6.85089
_cell_angle_alpha    90
_cell_angle_beta     109.524
_cell_angle_gamma    90

_space_group_name_H-M_alt    "P 1"
_space_group_IT_number       1

loop_
  _space_group_symop_operation_xyz
  'x, y, z'

loop_
  _atom_site_type_symbol
  _atom_site_label
  _atom_site_symmetry_multiplicity
  _atom_site_fract_x
  _atom_site_fract_y
  _atom_site_fract_z
  _atom_site_occupancy
  H   H1        1.0  0.65100  0.25000  0.04310  1.0000
  H   H2        1.0  0.74400  0.25000  0.28900  1.0000
  H   H3        1.0  0.99600  0.75000  0.31300  1.0000
  H   H4        1.0  0.00397  0.25000  0.68700  1.0000
  H   H5        1.0  0.25600  0.75000  0.71100  1.0000
  H   H6        1.0  0.34900  0.75000  0.95700  1.0000
  Mo  Mo1       1.0  0.27100  0.25000  0.16200  1.0000
  Mo  Mo2       1.0  0.72900  0.75000  0.83800  1.0000
  O   O1        1.0  0.80100  0.75000  0.10700  1.0000
  O   O2        1.0  0.61100  0.25000  0.16800  1.0000
  O   O3        1.0  0.31700  0.56200  0.18800  1.0000
  O   O4        1.0  0.31700  0.93800  0.18800  1.0000
  O   O5        1.0  0.03200  0.25000  0.21100  1.0000
  O   O6        1.0  0.14500  0.75000  0.42600  1.0000
  O   O7        1.0  0.45100  0.25000  0.48500  1.0000
  O   O8        1.0  0.54900  0.75000  0.51500  1.0000
  O   O9        1.0  0.85500  0.25000  0.57400  1.0000
  O   O10       1.0  0.96800  0.75000  0.78900  1.0000
  O   O11       1.0  0.68300  0.06150  0.81200  1.0000
  O   O12       1.0  0.68300  0.43800  0.81200  1.0000
  O   O13       1.0  0.38900  0.75000  0.83200  1.0000
  O   O14       1.0  0.19900  0.25000  0.89300  1.0000
  P   P1        1.0  0.33800  0.75000  0.33700  1.0000
  P   P2        1.0  0.66200  0.25000  0.66300  1.0000
