data_image0
_chemical_formula_structural       Cl12H8N2Sb2
_chemical_formula_sum              "Cl12 H8 N2 Sb2"
_cell_length_a       6.42889
_cell_length_b       6.85329
_cell_length_c       12.0939
_cell_angle_alpha    99.1886
_cell_angle_beta     90
_cell_angle_gamma    117.972

_space_group_name_H-M_alt    "P 1"
_space_group_IT_number       1

loop_
  _space_group_symop_operation_xyz
  'x, y, z'

loop_
  _atom_site_type_symbol
  _atom_site_label
  _atom_site_symmetry_multiplicity
  _atom_site_fract_x
  _atom_site_fract_y
  _atom_site_fract_z
  _atom_site_occupancy
  Cl  Cl1       1.0  0.20500  0.29700  0.03600  1.0000
  Cl  Cl2       1.0  0.30700  0.84300  0.11000  1.0000
  Cl  Cl3       1.0  0.79400  0.41400  0.16700  1.0000
  Cl  Cl4       1.0  0.38000  0.58600  0.33300  1.0000
  Cl  Cl5       1.0  0.46400  0.15700  0.39000  1.0000
  Cl  Cl6       1.0  0.90800  0.70300  0.46400  1.0000
  Cl  Cl7       1.0  0.09170  0.29700  0.53600  1.0000
  Cl  Cl8       1.0  0.53600  0.84300  0.61000  1.0000
  Cl  Cl9       1.0  0.62000  0.41400  0.66700  1.0000
  Cl  Cl10      1.0  0.20600  0.58600  0.83300  1.0000
  Cl  Cl11      1.0  0.69300  0.15700  0.89000  1.0000
  Cl  Cl12      1.0  0.79500  0.70300  0.96400  1.0000
  H   H1        1.0  0.98000  0.99300  0.17900  1.0000
  H   H2        1.0  0.72700  0.85800  0.24200  1.0000
  H   H3        1.0  0.86900  0.14200  0.25800  1.0000
  H   H4        1.0  0.98800  0.00739  0.32100  1.0000
  H   H5        1.0  0.01240  0.99300  0.67900  1.0000
  H   H6        1.0  0.13100  0.85800  0.74200  1.0000
  H   H7        1.0  0.27300  0.14200  0.75800  1.0000
  H   H8        1.0  0.01980  0.00739  0.82100  1.0000
  N   N1        1.0  0.89100  0.00000  0.25000  1.0000
  N   N2        1.0  0.10900  0.00000  0.75000  1.0000
  Sb  Sb1       1.0  0.00000  0.50000  0.00000  1.0000
  Sb  Sb2       1.0  0.50000  0.50000  0.50000  1.0000
