data_image0
_chemical_formula_structural       H4Mn2O14P4
_chemical_formula_sum              "H4 Mn2 O14 P4"
_cell_length_a       5.27284
_cell_length_b       5.27284
_cell_length_c       9.3371
_cell_angle_alpha    97.7579
_cell_angle_beta     97.7579
_cell_angle_gamma    95.9267

_space_group_name_H-M_alt    "P 1"
_space_group_IT_number       1

loop_
  _space_group_symop_operation_xyz
  'x, y, z'

loop_
  _atom_site_type_symbol
  _atom_site_label
  _atom_site_symmetry_multiplicity
  _atom_site_fract_x
  _atom_site_fract_y
  _atom_site_fract_z
  _atom_site_occupancy
  H   H1        1.0  0.90300  0.49400  0.14100  1.0000
  H   H2        1.0  0.50600  0.09730  0.35900  1.0000
  H   H3        1.0  0.49400  0.90300  0.64100  1.0000
  H   H4        1.0  0.09730  0.50600  0.85900  1.0000
  Mn  Mn1       1.0  0.00000  0.00000  0.00000  1.0000
  Mn  Mn2       1.0  0.00000  0.00000  0.50000  1.0000
  O   O1        1.0  0.32100  0.86500  0.09970  1.0000
  O   O2        1.0  0.77700  0.72700  0.10800  1.0000
  O   O3        1.0  0.00453  0.34700  0.17300  1.0000
  O   O4        1.0  0.47600  0.52400  0.25000  1.0000
  O   O5        1.0  0.65300  0.99500  0.32700  1.0000
  O   O6        1.0  0.27300  0.22300  0.39200  1.0000
  O   O7        1.0  0.13500  0.67900  0.40000  1.0000
  O   O8        1.0  0.86500  0.32100  0.60000  1.0000
  O   O9        1.0  0.72700  0.77700  0.60800  1.0000
  O   O10       1.0  0.34700  0.00453  0.67300  1.0000
  O   O11       1.0  0.52400  0.47600  0.75000  1.0000
  O   O12       1.0  0.99500  0.65300  0.82700  1.0000
  O   O13       1.0  0.22300  0.27300  0.89200  1.0000
  O   O14       1.0  0.67900  0.13500  0.90000  1.0000
  P   P1        1.0  0.55100  0.78700  0.18600  1.0000
  P   P2        1.0  0.21300  0.44900  0.31400  1.0000
  P   P3        1.0  0.78700  0.55100  0.68600  1.0000
  P   P4        1.0  0.44900  0.21300  0.81400  1.0000
