data_image0
_chemical_formula_structural       Cl6Cs2H8Na4O4
_chemical_formula_sum              "Cl6 Cs2 H8 Na4 O4"
_cell_length_a       5.816
_cell_length_b       8.9645
_cell_length_c       9.15759
_cell_angle_alpha    95.8295
_cell_angle_beta     108.515
_cell_angle_gamma    108.929

_space_group_name_H-M_alt    "P 1"
_space_group_IT_number       1

loop_
  _space_group_symop_operation_xyz
  'x, y, z'

loop_
  _atom_site_type_symbol
  _atom_site_label
  _atom_site_symmetry_multiplicity
  _atom_site_fract_x
  _atom_site_fract_y
  _atom_site_fract_z
  _atom_site_occupancy
  Cl  Cl1       1.0  0.64300  0.75500  0.07500  1.0000
  Cl  Cl2       1.0  0.07160  0.25000  0.25000  1.0000
  Cl  Cl3       1.0  0.31200  0.74500  0.42500  1.0000
  Cl  Cl4       1.0  0.68800  0.25500  0.57500  1.0000
  Cl  Cl5       1.0  0.92800  0.75000  0.75000  1.0000
  Cl  Cl6       1.0  0.35700  0.24500  0.92500  1.0000
  Cs  Cs1       1.0  1.00000  0.50000  1.00000  1.0000
  Cs  Cs2       1.0  0.00000  0.00000  0.50000  1.0000
  H   H1        1.0  0.45700  0.90500  0.13400  1.0000
  H   H2        1.0  0.66800  0.59500  0.23900  1.0000
  H   H3        1.0  0.33400  0.90500  0.26100  1.0000
  H   H4        1.0  0.91800  0.59500  0.36600  1.0000
  H   H5        1.0  0.08150  0.40500  0.63400  1.0000
  H   H6        1.0  0.66600  0.09500  0.73900  1.0000
  H   H7        1.0  0.33200  0.40500  0.76100  1.0000
  H   H8        1.0  0.54300  0.09510  0.86600  1.0000
  Na  Na1       1.0  0.00000  0.00000  0.00000  1.0000
  Na  Na2       1.0  0.58500  0.25000  0.25000  1.0000
  Na  Na3       1.0  0.50000  0.50000  0.50000  1.0000
  Na  Na4       1.0  0.41500  0.75000  0.75000  1.0000
  O   O1        1.0  0.36700  0.96300  0.17900  1.0000
  O   O2        1.0  0.72500  0.53700  0.32100  1.0000
  O   O3        1.0  0.27500  0.46300  0.67900  1.0000
  O   O4        1.0  0.63300  0.03670  0.82100  1.0000
