data_image0
_chemical_formula_structural       H8O8P4Rb4
_chemical_formula_sum              "H8 O8 P4 Rb4"
_cell_length_a       7.82693
_cell_length_b       6.40437
_cell_length_c       7.45702
_cell_angle_alpha    90
_cell_angle_beta     90
_cell_angle_gamma    90

_space_group_name_H-M_alt    "P 1"
_space_group_IT_number       1

loop_
  _space_group_symop_operation_xyz
  'x, y, z'

loop_
  _atom_site_type_symbol
  _atom_site_label
  _atom_site_symmetry_multiplicity
  _atom_site_fract_x
  _atom_site_fract_y
  _atom_site_fract_z
  _atom_site_occupancy
  H   H1        1.0  0.01790  0.75000  0.04980  1.0000
  H   H2        1.0  0.73600  0.75000  0.05230  1.0000
  H   H3        1.0  0.23600  0.75000  0.44800  1.0000
  H   H4        1.0  0.51800  0.75000  0.45000  1.0000
  H   H5        1.0  0.48200  0.25000  0.55000  1.0000
  H   H6        1.0  0.76400  0.25000  0.55200  1.0000
  H   H7        1.0  0.26400  0.25000  0.94800  1.0000
  H   H8        1.0  0.98200  0.25000  0.95000  1.0000
  O   O1        1.0  0.37800  0.54600  0.22400  1.0000
  O   O2        1.0  0.37800  0.95400  0.22400  1.0000
  O   O3        1.0  0.87800  0.54600  0.27600  1.0000
  O   O4        1.0  0.87800  0.95400  0.27600  1.0000
  O   O5        1.0  0.12200  0.04630  0.72400  1.0000
  O   O6        1.0  0.12200  0.45400  0.72400  1.0000
  O   O7        1.0  0.62200  0.04630  0.77600  1.0000
  O   O8        1.0  0.62200  0.45400  0.77600  1.0000
  P   P1        1.0  0.87800  0.75000  0.17300  1.0000
  P   P2        1.0  0.37800  0.75000  0.32700  1.0000
  P   P3        1.0  0.62200  0.25000  0.67300  1.0000
  P   P4        1.0  0.12200  0.25000  0.82700  1.0000
  Rb  Rb1       1.0  0.63400  0.25000  0.14000  1.0000
  Rb  Rb2       1.0  0.13400  0.25000  0.36000  1.0000
  Rb  Rb3       1.0  0.86600  0.75000  0.64000  1.0000
  Rb  Rb4       1.0  0.36600  0.75000  0.86000  1.0000
