data_image0
_chemical_formula_structural       Cs2F14H2I2
_chemical_formula_sum              "Cs2 F14 H2 I2"
_cell_length_a       4.96086
_cell_length_b       7.72792
_cell_length_c       7.91186
_cell_angle_alpha    109.334
_cell_angle_beta     105.409
_cell_angle_gamma    92.3616

_space_group_name_H-M_alt    "P 1"
_space_group_IT_number       1

loop_
  _space_group_symop_operation_xyz
  'x, y, z'

loop_
  _atom_site_type_symbol
  _atom_site_label
  _atom_site_symmetry_multiplicity
  _atom_site_fract_x
  _atom_site_fract_y
  _atom_site_fract_z
  _atom_site_occupancy
  Cs  Cs1       1.0  0.15500  0.82600  0.21700  1.0000
  Cs  Cs2       1.0  0.84500  0.17400  0.78300  1.0000
  F   F1        1.0  0.41500  0.20500  0.03470  1.0000
  F   F2        1.0  0.76200  0.47700  0.09850  1.0000
  F   F3        1.0  0.90300  0.15700  0.15900  1.0000
  F   F4        1.0  0.36800  0.48900  0.29100  1.0000
  F   F5        1.0  0.50900  0.18400  0.35300  1.0000
  F   F6        1.0  0.73000  0.89800  0.40800  1.0000
  F   F7        1.0  0.93500  0.65300  0.47600  1.0000
  F   F8        1.0  0.06520  0.34700  0.52400  1.0000
  F   F9        1.0  0.27000  0.10200  0.59200  1.0000
  F   F10       1.0  0.49100  0.81600  0.64700  1.0000
  F   F11       1.0  0.63200  0.51100  0.70900  1.0000
  F   F12       1.0  0.09700  0.84300  0.84100  1.0000
  F   F13       1.0  0.23800  0.52300  0.90100  1.0000
  F   F14       1.0  0.58500  0.79500  0.96500  1.0000
  H   H1        1.0  0.80900  0.79500  0.44700  1.0000
  H   H2        1.0  0.19100  0.20500  0.55300  1.0000
  I   I1        1.0  0.68600  0.35000  0.26400  1.0000
  I   I2        1.0  0.31400  0.65000  0.73600  1.0000
