data_image0
_chemical_formula_structural       Ge2H6K6O4S6
_chemical_formula_sum              "Ge2 H6 K6 O4 S6"
_cell_length_a       6.6988
_cell_length_b       7.45116
_cell_length_c       9.99135
_cell_angle_alpha    87.8824
_cell_angle_beta     81.7637
_cell_angle_gamma    69.5745

_space_group_name_H-M_alt    "P 1"
_space_group_IT_number       1

loop_
  _space_group_symop_operation_xyz
  'x, y, z'

loop_
  _atom_site_type_symbol
  _atom_site_label
  _atom_site_symmetry_multiplicity
  _atom_site_fract_x
  _atom_site_fract_y
  _atom_site_fract_z
  _atom_site_occupancy
  Ge  Ge1       1.0  0.19400  0.38600  0.27600  1.0000
  Ge  Ge2       1.0  0.80600  0.61400  0.72400  1.0000
  H   H1        1.0  0.06730  0.06020  0.17000  1.0000
  H   H2        1.0  0.06270  0.86900  0.23600  1.0000
  H   H3        1.0  0.85400  0.58700  0.37800  1.0000
  H   H4        1.0  0.14600  0.41300  0.62200  1.0000
  H   H5        1.0  0.93700  0.13100  0.76400  1.0000
  H   H6        1.0  0.93300  0.94000  0.83000  1.0000
  K   K1        1.0  0.76500  0.35500  0.05430  1.0000
  K   K2        1.0  0.60900  0.87900  0.22700  1.0000
  K   K3        1.0  0.75000  0.23600  0.44200  1.0000
  K   K4        1.0  0.25000  0.76400  0.55800  1.0000
  K   K5        1.0  0.39100  0.12100  0.77300  1.0000
  K   K6        1.0  0.23500  0.64500  0.94600  1.0000
  O   O1        1.0  0.96300  0.99600  0.20900  1.0000
  O   O2        1.0  0.89700  0.50600  0.29400  1.0000
  O   O3        1.0  0.10300  0.49400  0.70600  1.0000
  O   O4        1.0  0.03730  0.00376  0.79100  1.0000
  S   S1        1.0  0.26800  0.22200  0.08510  1.0000
  S   S2        1.0  0.34200  0.60800  0.25700  1.0000
  S   S3        1.0  0.27100  0.19900  0.45200  1.0000
  S   S4        1.0  0.72900  0.80100  0.54800  1.0000
  S   S5        1.0  0.65800  0.39200  0.74300  1.0000
  S   S6        1.0  0.73200  0.77800  0.91500  1.0000
