data_image0
_chemical_formula_structural       F10H4Mn2O2Rb4
_chemical_formula_sum              "F10 H4 Mn2 O2 Rb4"
_cell_length_a       5.9273
_cell_length_b       5.9273
_cell_length_c       8.28097
_cell_angle_alpha    90
_cell_angle_beta     90
_cell_angle_gamma    82.6695

_space_group_name_H-M_alt    "P 1"
_space_group_IT_number       1

loop_
  _space_group_symop_operation_xyz
  'x, y, z'

loop_
  _atom_site_type_symbol
  _atom_site_label
  _atom_site_symmetry_multiplicity
  _atom_site_fract_x
  _atom_site_fract_y
  _atom_site_fract_z
  _atom_site_occupancy
  F   F1        1.0  0.21000  0.21000  0.00000  1.0000
  F   F2        1.0  0.79000  0.79000  0.00000  1.0000
  F   F3        1.0  0.75700  0.24300  0.00055  1.0000
  F   F4        1.0  0.99900  0.00074  0.25000  1.0000
  F   F5        1.0  0.75700  0.24300  0.49900  1.0000
  F   F6        1.0  0.21000  0.21000  0.50000  1.0000
  F   F7        1.0  0.79000  0.79000  0.50000  1.0000
  F   F8        1.0  0.24300  0.75700  0.50100  1.0000
  F   F9        1.0  0.00074  0.99900  0.75000  1.0000
  F   F10       1.0  0.24300  0.75700  0.99900  1.0000
  H   H1        1.0  0.61800  0.38200  0.15400  1.0000
  H   H2        1.0  0.61800  0.38200  0.34600  1.0000
  H   H3        1.0  0.38200  0.61800  0.65400  1.0000
  H   H4        1.0  0.38200  0.61800  0.84600  1.0000
  Mn  Mn1       1.0  0.00000  0.00000  0.00000  1.0000
  Mn  Mn2       1.0  0.00000  0.00000  0.50000  1.0000
  O   O1        1.0  0.54300  0.45700  0.25000  1.0000
  O   O2        1.0  0.45700  0.54300  0.75000  1.0000
  Rb  Rb1       1.0  0.05850  0.50300  0.25000  1.0000
  Rb  Rb2       1.0  0.49700  0.94100  0.25000  1.0000
  Rb  Rb3       1.0  0.50300  0.05850  0.75000  1.0000
  Rb  Rb4       1.0  0.94100  0.49700  0.75000  1.0000
