data_image0
_chemical_formula_structural       C4Cs4H4O12
_chemical_formula_sum              "C4 Cs4 H4 O12"
_cell_length_a       4.53785
_cell_length_b       11.1284
_cell_length_c       7.04024
_cell_angle_alpha    90
_cell_angle_beta     101.85
_cell_angle_gamma    90

_space_group_name_H-M_alt    "P 1"
_space_group_IT_number       1

loop_
  _space_group_symop_operation_xyz
  'x, y, z'

loop_
  _atom_site_type_symbol
  _atom_site_label
  _atom_site_symmetry_multiplicity
  _atom_site_fract_x
  _atom_site_fract_y
  _atom_site_fract_z
  _atom_site_occupancy
  C   C1        1.0  0.35900  0.54700  0.18800  1.0000
  C   C2        1.0  0.14100  0.04660  0.31200  1.0000
  C   C3        1.0  0.85900  0.95300  0.68800  1.0000
  C   C4        1.0  0.64100  0.45300  0.81200  1.0000
  Cs  Cs1       1.0  0.65200  0.82700  0.07920  1.0000
  Cs  Cs2       1.0  0.84800  0.32700  0.42100  1.0000
  Cs  Cs3       1.0  0.15200  0.67300  0.57900  1.0000
  Cs  Cs4       1.0  0.34800  0.17300  0.92100  1.0000
  H   H1        1.0  0.99000  0.59500  0.99800  1.0000
  H   H2        1.0  0.01010  0.40500  0.00181  1.0000
  H   H3        1.0  0.49000  0.90500  0.49800  1.0000
  H   H4        1.0  0.51000  0.09520  0.50200  1.0000
  O   O1        1.0  0.17200  0.63300  0.09350  1.0000
  O   O2        1.0  0.28200  0.43600  0.15400  1.0000
  O   O3        1.0  0.91000  0.08220  0.19500  1.0000
  O   O4        1.0  0.59000  0.58200  0.30500  1.0000
  O   O5        1.0  0.21800  0.93600  0.34600  1.0000
  O   O6        1.0  0.32800  0.13300  0.40600  1.0000
  O   O7        1.0  0.67200  0.86700  0.59400  1.0000
  O   O8        1.0  0.78200  0.06390  0.65400  1.0000
  O   O9        1.0  0.41000  0.41800  0.69500  1.0000
  O   O10       1.0  0.09010  0.91800  0.80500  1.0000
  O   O11       1.0  0.71800  0.56400  0.84600  1.0000
  O   O12       1.0  0.82800  0.36700  0.90600  1.0000
