data_image0
_chemical_formula_structural       H4O16S4Zn2
_chemical_formula_sum              "H4 O16 S4 Zn2"
_cell_length_a       7.06632
_cell_length_b       8.29006
_cell_length_c       4.82028
_cell_angle_alpha    90
_cell_angle_beta     99.3589
_cell_angle_gamma    90

_space_group_name_H-M_alt    "P 1"
_space_group_IT_number       1

loop_
  _space_group_symop_operation_xyz
  'x, y, z'

loop_
  _atom_site_type_symbol
  _atom_site_label
  _atom_site_symmetry_multiplicity
  _atom_site_fract_x
  _atom_site_fract_y
  _atom_site_fract_z
  _atom_site_occupancy
  H   H1        1.0  0.64700  0.01930  0.20500  1.0000
  H   H2        1.0  0.85300  0.51900  0.29500  1.0000
  H   H3        1.0  0.14700  0.48100  0.70500  1.0000
  H   H4        1.0  0.35300  0.98100  0.79500  1.0000
  O   O1        1.0  0.78100  0.15000  0.09140  1.0000
  O   O2        1.0  0.55300  0.35300  0.17700  1.0000
  O   O3        1.0  0.90000  0.41200  0.22700  1.0000
  O   O4        1.0  0.29000  0.62900  0.23900  1.0000
  O   O5        1.0  0.21000  0.12900  0.26100  1.0000
  O   O6        1.0  0.60000  0.91200  0.27300  1.0000
  O   O7        1.0  0.94700  0.85300  0.32300  1.0000
  O   O8        1.0  0.71900  0.65000  0.40900  1.0000
  O   O9        1.0  0.28100  0.35000  0.59100  1.0000
  O   O10       1.0  0.05330  0.14700  0.67700  1.0000
  O   O11       1.0  0.40000  0.08750  0.72700  1.0000
  O   O12       1.0  0.79000  0.87100  0.73900  1.0000
  O   O13       1.0  0.71000  0.37100  0.76100  1.0000
  O   O14       1.0  0.10000  0.58800  0.77300  1.0000
  O   O15       1.0  0.44700  0.64700  0.82300  1.0000
  O   O16       1.0  0.21900  0.85000  0.90900  1.0000
  S   S1        1.0  0.72600  0.32200  0.05490  1.0000
  S   S2        1.0  0.77400  0.82200  0.44500  1.0000
  S   S3        1.0  0.22600  0.17800  0.55500  1.0000
  S   S4        1.0  0.27400  0.67800  0.94500  1.0000
  Zn  Zn1       1.0  0.00000  0.00000  0.00000  1.0000
  Zn  Zn2       1.0  0.50000  0.50000  0.50000  1.0000
