data_image0
_chemical_formula_structural       C4Hg4N8
_chemical_formula_sum              "C4 Hg4 N8"
_cell_length_a       6.76342
_cell_length_b       7.0455
_cell_length_c       5.53404
_cell_angle_alpha    90
_cell_angle_beta     112.991
_cell_angle_gamma    90

_space_group_name_H-M_alt    "P 1"
_space_group_IT_number       1

loop_
  _space_group_symop_operation_xyz
  'x, y, z'

loop_
  _atom_site_type_symbol
  _atom_site_label
  _atom_site_symmetry_multiplicity
  _atom_site_fract_x
  _atom_site_fract_y
  _atom_site_fract_z
  _atom_site_occupancy
  C   C1        1.0  0.26700  0.12800  0.43600  1.0000
  C   C2        1.0  0.76700  0.37200  0.43600  1.0000
  C   C3        1.0  0.23300  0.62800  0.56400  1.0000
  C   C4        1.0  0.73300  0.87200  0.56400  1.0000
  Hg  Hg1       1.0  0.25700  0.87700  0.00753  1.0000
  Hg  Hg2       1.0  0.75700  0.62300  0.00753  1.0000
  Hg  Hg3       1.0  0.74300  0.12300  0.99200  1.0000
  Hg  Hg4       1.0  0.24300  0.37700  0.99200  1.0000
  N   N1        1.0  0.20600  0.12900  0.18500  1.0000
  N   N2        1.0  0.70600  0.37100  0.18500  1.0000
  N   N3        1.0  0.18300  0.62500  0.33100  1.0000
  N   N4        1.0  0.68300  0.87500  0.33100  1.0000
  N   N5        1.0  0.31700  0.12500  0.66900  1.0000
  N   N6        1.0  0.81700  0.37500  0.66900  1.0000
  N   N7        1.0  0.79400  0.87100  0.81500  1.0000
  N   N8        1.0  0.29400  0.62900  0.81500  1.0000
