data_image0
_chemical_formula_structural       F12H4N6Sb2
_chemical_formula_sum              "F12 H4 N6 Sb2"
_cell_length_a       5.74779
_cell_length_b       5.08296
_cell_length_c       9.15477
_cell_angle_alpha    90
_cell_angle_beta     90
_cell_angle_gamma    90

_space_group_name_H-M_alt    "P 1"
_space_group_IT_number       1

loop_
  _space_group_symop_operation_xyz
  'x, y, z'

loop_
  _atom_site_type_symbol
  _atom_site_label
  _atom_site_symmetry_multiplicity
  _atom_site_fract_x
  _atom_site_fract_y
  _atom_site_fract_z
  _atom_site_occupancy
  F   F1        1.0  0.00000  0.51700  0.01580  1.0000
  F   F2        1.0  0.27700  0.81500  0.09600  1.0000
  F   F3        1.0  0.72300  0.81500  0.09600  1.0000
  F   F4        1.0  0.24400  0.34900  0.26500  1.0000
  F   F5        1.0  0.75600  0.34900  0.26500  1.0000
  F   F6        1.0  0.00000  0.91500  0.35300  1.0000
  F   F7        1.0  0.00000  0.48300  0.51600  1.0000
  F   F8        1.0  0.27700  0.18500  0.59600  1.0000
  F   F9        1.0  0.72300  0.18500  0.59600  1.0000
  F   F10       1.0  0.24400  0.65100  0.76500  1.0000
  F   F11       1.0  0.75600  0.65100  0.76500  1.0000
  F   F12       1.0  0.00000  0.08480  0.85300  1.0000
  H   H1        1.0  0.16700  0.67300  0.05430  1.0000
  H   H2        1.0  0.83300  0.67300  0.05430  1.0000
  H   H3        1.0  0.16700  0.32700  0.55400  1.0000
  H   H4        1.0  0.83300  0.32700  0.55400  1.0000
  N   N1        1.0  0.50000  0.24100  0.00523  1.0000
  N   N2        1.0  0.50000  0.80500  0.36600  1.0000
  N   N3        1.0  0.50000  0.54800  0.40500  1.0000
  N   N4        1.0  0.50000  0.75900  0.50500  1.0000
  N   N5        1.0  0.50000  0.19500  0.86600  1.0000
  N   N6        1.0  0.50000  0.45200  0.90500  1.0000
  Sb  Sb1       1.0  0.00000  0.13500  0.17600  1.0000
  Sb  Sb2       1.0  0.00000  0.86500  0.67600  1.0000
