data_image0
_chemical_formula_structural       F4I4O8
_chemical_formula_sum              "F4 I4 O8"
_cell_length_a       5.17274
_cell_length_b       5.5355
_cell_length_c       7.42785
_cell_angle_alpha    90
_cell_angle_beta     90
_cell_angle_gamma    90

_space_group_name_H-M_alt    "P 1"
_space_group_IT_number       1

loop_
  _space_group_symop_operation_xyz
  'x, y, z'

loop_
  _atom_site_type_symbol
  _atom_site_label
  _atom_site_symmetry_multiplicity
  _atom_site_fract_x
  _atom_site_fract_y
  _atom_site_fract_z
  _atom_site_occupancy
  F   F1        1.0  0.37900  0.31500  0.07670  1.0000
  F   F2        1.0  0.62100  0.81500  0.42300  1.0000
  F   F3        1.0  0.12100  0.68500  0.57700  1.0000
  F   F4        1.0  0.87900  0.18500  0.92300  1.0000
  I   I1        1.0  0.21700  0.61100  0.17000  1.0000
  I   I2        1.0  0.78300  0.11100  0.33000  1.0000
  I   I3        1.0  0.28300  0.38900  0.67000  1.0000
  I   I4        1.0  0.71700  0.88900  0.83000  1.0000
  O   O1        1.0  0.60100  0.83300  0.05650  1.0000
  O   O2        1.0  0.92000  0.45100  0.24500  1.0000
  O   O3        1.0  0.08050  0.95100  0.25500  1.0000
  O   O4        1.0  0.39900  0.33300  0.44300  1.0000
  O   O5        1.0  0.89900  0.16700  0.55700  1.0000
  O   O6        1.0  0.58000  0.54900  0.74500  1.0000
  O   O7        1.0  0.42000  0.04890  0.75500  1.0000
  O   O8        1.0  0.10100  0.66700  0.94300  1.0000
