data_image0
_chemical_formula_structural       Cl8Cu2H8K4O4
_chemical_formula_sum              "Cl8 Cu2 H8 K4 O4"
_cell_length_a       7.42141
_cell_length_b       7.42141
_cell_length_c       7.89141
_cell_angle_alpha    90
_cell_angle_beta     90
_cell_angle_gamma    90

_space_group_name_H-M_alt    "P 1"
_space_group_IT_number       1

loop_
  _space_group_symop_operation_xyz
  'x, y, z'

loop_
  _atom_site_type_symbol
  _atom_site_label
  _atom_site_symmetry_multiplicity
  _atom_site_fract_x
  _atom_site_fract_y
  _atom_site_fract_z
  _atom_site_occupancy
  Cl  Cl1       1.0  0.21700  0.21700  0.00000  1.0000
  Cl  Cl2       1.0  0.72000  0.28000  0.00000  1.0000
  Cl  Cl3       1.0  0.28000  0.72000  0.00000  1.0000
  Cl  Cl4       1.0  0.78300  0.78300  0.00000  1.0000
  Cl  Cl5       1.0  0.22000  0.22000  0.50000  1.0000
  Cl  Cl6       1.0  0.71700  0.28300  0.50000  1.0000
  Cl  Cl7       1.0  0.28300  0.71700  0.50000  1.0000
  Cl  Cl8       1.0  0.78000  0.78000  0.50000  1.0000
  Cu  Cu1       1.0  0.00000  0.00000  0.00000  1.0000
  Cu  Cu2       1.0  0.50000  0.50000  0.50000  1.0000
  H   H1        1.0  0.57700  0.42300  0.17800  1.0000
  H   H2        1.0  0.42300  0.57700  0.17800  1.0000
  H   H3        1.0  0.07710  0.07710  0.32200  1.0000
  H   H4        1.0  0.92300  0.92300  0.32200  1.0000
  H   H5        1.0  0.07710  0.07710  0.67800  1.0000
  H   H6        1.0  0.92300  0.92300  0.67800  1.0000
  H   H7        1.0  0.57700  0.42300  0.82200  1.0000
  H   H8        1.0  0.42300  0.57700  0.82200  1.0000
  K   K1        1.0  0.50000  0.00000  0.25000  1.0000
  K   K2        1.0  0.00000  0.50000  0.25000  1.0000
  K   K3        1.0  0.50000  0.00000  0.75000  1.0000
  K   K4        1.0  0.00000  0.50000  0.75000  1.0000
  O   O1        1.0  0.00000  0.00000  0.24800  1.0000
  O   O2        1.0  0.50000  0.50000  0.25200  1.0000
  O   O3        1.0  0.50000  0.50000  0.74800  1.0000
  O   O4        1.0  0.00000  0.00000  0.75200  1.0000
