data_image0
_chemical_formula_structural       Au2Cs6Pb8
_chemical_formula_sum              "Au2 Cs6 Pb8"
_cell_length_a       7.47484
_cell_length_b       13.873
_cell_length_c       6.96459
_cell_angle_alpha    90
_cell_angle_beta     90
_cell_angle_gamma    90

_space_group_name_H-M_alt    "P 1"
_space_group_IT_number       1

loop_
  _space_group_symop_operation_xyz
  'x, y, z'

loop_
  _atom_site_type_symbol
  _atom_site_label
  _atom_site_symmetry_multiplicity
  _atom_site_fract_x
  _atom_site_fract_y
  _atom_site_fract_z
  _atom_site_occupancy
  Au  Au1       1.0  0.25000  0.75000  0.30200  1.0000
  Au  Au2       1.0  0.75000  0.25000  0.69800  1.0000
  Cs  Cs1       1.0  0.25000  0.00449  0.16500  1.0000
  Cs  Cs2       1.0  0.25000  0.49600  0.16500  1.0000
  Cs  Cs3       1.0  0.75000  0.75000  0.43600  1.0000
  Cs  Cs4       1.0  0.25000  0.25000  0.56400  1.0000
  Cs  Cs5       1.0  0.75000  0.50400  0.83500  1.0000
  Cs  Cs6       1.0  0.75000  0.99600  0.83500  1.0000
  Pb  Pb1       1.0  0.52800  0.25000  0.05140  1.0000
  Pb  Pb2       1.0  0.97200  0.25000  0.05140  1.0000
  Pb  Pb3       1.0  0.75000  0.13100  0.34600  1.0000
  Pb  Pb4       1.0  0.75000  0.36900  0.34600  1.0000
  Pb  Pb5       1.0  0.25000  0.63100  0.65400  1.0000
  Pb  Pb6       1.0  0.25000  0.86900  0.65400  1.0000
  Pb  Pb7       1.0  0.02820  0.75000  0.94900  1.0000
  Pb  Pb8       1.0  0.47200  0.75000  0.94900  1.0000
