data_image0
_chemical_formula_structural       Ca6Tl10
_chemical_formula_sum              "Ca6 Tl10"
_cell_length_a       6.61422
_cell_length_b       6.61422
_cell_length_c       10.6758
_cell_angle_alpha    90
_cell_angle_beta     90
_cell_angle_gamma    77.8904

_space_group_name_H-M_alt    "P 1"
_space_group_IT_number       1

loop_
  _space_group_symop_operation_xyz
  'x, y, z'

loop_
  _atom_site_type_symbol
  _atom_site_label
  _atom_site_symmetry_multiplicity
  _atom_site_fract_x
  _atom_site_fract_y
  _atom_site_fract_z
  _atom_site_occupancy
  Ca  Ca1       1.0  0.28500  0.28500  0.00000  1.0000
  Ca  Ca2       1.0  0.71500  0.71500  0.00000  1.0000
  Ca  Ca3       1.0  0.07500  0.92500  0.25000  1.0000
  Ca  Ca4       1.0  0.28500  0.28500  0.50000  1.0000
  Ca  Ca5       1.0  0.71500  0.71500  0.50000  1.0000
  Ca  Ca6       1.0  0.92500  0.07500  0.75000  1.0000
  Tl  Tl1       1.0  0.79400  0.20600  0.03020  1.0000
  Tl  Tl2       1.0  0.54700  0.01610  0.25000  1.0000
  Tl  Tl3       1.0  0.98400  0.45300  0.25000  1.0000
  Tl  Tl4       1.0  0.47800  0.52200  0.25000  1.0000
  Tl  Tl5       1.0  0.79400  0.20600  0.47000  1.0000
  Tl  Tl6       1.0  0.20600  0.79400  0.53000  1.0000
  Tl  Tl7       1.0  0.52200  0.47800  0.75000  1.0000
  Tl  Tl8       1.0  0.01610  0.54700  0.75000  1.0000
  Tl  Tl9       1.0  0.45300  0.98400  0.75000  1.0000
  Tl  Tl10      1.0  0.20600  0.79400  0.97000  1.0000
