data_image0
_chemical_formula_structural       As2Ca2H10O12
_chemical_formula_sum              "As2 Ca2 H10 O12"
_cell_length_a       5.90806
_cell_length_b       6.11589
_cell_length_c       8.27902
_cell_angle_alpha    102.82
_cell_angle_beta     101.78
_cell_angle_gamma    114.412

_space_group_name_H-M_alt    "P 1"
_space_group_IT_number       1

loop_
  _space_group_symop_operation_xyz
  'x, y, z'

loop_
  _atom_site_type_symbol
  _atom_site_label
  _atom_site_symmetry_multiplicity
  _atom_site_fract_x
  _atom_site_fract_y
  _atom_site_fract_z
  _atom_site_occupancy
  As  As1       1.0  0.93200  0.66200  0.34800  1.0000
  As  As2       1.0  0.08340  0.31400  0.65200  1.0000
  Ca  Ca1       1.0  0.43100  0.17800  0.33900  1.0000
  Ca  Ca2       1.0  0.59200  0.83900  0.66100  1.0000
  H   H1        1.0  0.17100  0.26700  0.01700  1.0000
  H   H2        1.0  0.76700  0.78300  0.02410  1.0000
  H   H3        1.0  0.31600  0.66500  0.13200  1.0000
  H   H4        1.0  0.05990  0.32900  0.17100  1.0000
  H   H5        1.0  0.81400  0.97300  0.33500  1.0000
  H   H6        1.0  0.97900  0.63900  0.66500  1.0000
  H   H7        1.0  0.38900  0.15800  0.82900  1.0000
  H   H8        1.0  0.68500  0.53300  0.86800  1.0000
  H   H9        1.0  0.24200  0.75900  0.97600  1.0000
  H   H10       1.0  0.65400  0.25000  0.98300  1.0000
  O   O1        1.0  0.31400  0.81400  0.10500  1.0000
  O   O2        1.0  0.22400  0.33800  0.14800  1.0000
  O   O3        1.0  0.79500  0.36300  0.19900  1.0000
  O   O4        1.0  0.86600  0.86900  0.24900  1.0000
  O   O5        1.0  0.26300  0.82100  0.44200  1.0000
  O   O6        1.0  0.77400  0.12500  0.49800  1.0000
  O   O7        1.0  0.77600  0.62700  0.50200  1.0000
  O   O8        1.0  0.32100  0.37900  0.55800  1.0000
  O   O9        1.0  0.11700  0.62000  0.75100  1.0000
  O   O10       1.0  0.09640  0.16500  0.80100  1.0000
  O   O11       1.0  0.57500  0.19000  0.85200  1.0000
  O   O12       1.0  0.70900  0.70900  0.89500  1.0000
