data_image0
_chemical_formula_structural       Br4Ge6La6
_chemical_formula_sum              "Br4 Ge6 La6"
_cell_length_a       4.34811
_cell_length_b       9.61707
_cell_length_c       10.9608
_cell_angle_alpha    97.7908
_cell_angle_beta     90
_cell_angle_gamma    103.065

_space_group_name_H-M_alt    "P 1"
_space_group_IT_number       1

loop_
  _space_group_symop_operation_xyz
  'x, y, z'

loop_
  _atom_site_type_symbol
  _atom_site_label
  _atom_site_symmetry_multiplicity
  _atom_site_fract_x
  _atom_site_fract_y
  _atom_site_fract_z
  _atom_site_occupancy
  Br  Br1       1.0  0.30000  0.59900  0.13000  1.0000
  Br  Br2       1.0  0.77500  0.55100  0.39100  1.0000
  Br  Br3       1.0  0.22500  0.44900  0.60900  1.0000
  Br  Br4       1.0  0.70000  0.40100  0.87000  1.0000
  Ge  Ge1       1.0  0.06790  0.13600  0.04400  1.0000
  Ge  Ge2       1.0  0.09320  0.18600  0.28000  1.0000
  Ge  Ge3       1.0  0.97700  0.95300  0.38400  1.0000
  Ge  Ge4       1.0  0.02340  0.04680  0.61600  1.0000
  Ge  Ge5       1.0  0.90700  0.81400  0.72000  1.0000
  Ge  Ge6       1.0  0.93200  0.86400  0.95600  1.0000
  La  La1       1.0  0.67800  0.35500  0.14700  1.0000
  La  La2       1.0  0.46900  0.93900  0.16900  1.0000
  La  La3       1.0  0.61200  0.22500  0.48900  1.0000
  La  La4       1.0  0.38800  0.77500  0.51100  1.0000
  La  La5       1.0  0.53100  0.06150  0.83100  1.0000
  La  La6       1.0  0.32200  0.64500  0.85300  1.0000
