data_image0
_chemical_formula_structural       Au2Se6Tl8
_chemical_formula_sum              "Au2 Se6 Tl8"
_cell_length_a       8.34823
_cell_length_b       8.34823
_cell_length_c       8.47939
_cell_angle_alpha    119.49
_cell_angle_beta     119.49
_cell_angle_gamma    90

_space_group_name_H-M_alt    "P 1"
_space_group_IT_number       1

loop_
  _space_group_symop_operation_xyz
  'x, y, z'

loop_
  _atom_site_type_symbol
  _atom_site_label
  _atom_site_symmetry_multiplicity
  _atom_site_fract_x
  _atom_site_fract_y
  _atom_site_fract_z
  _atom_site_occupancy
  Au  Au1       1.0  0.50000  0.50000  0.00000  1.0000
  Au  Au2       1.0  0.00000  0.00000  0.00000  1.0000
  Se  Se1       1.0  0.83900  0.66100  0.00000  1.0000
  Se  Se2       1.0  0.33900  0.83900  0.00000  1.0000
  Se  Se3       1.0  0.66100  0.16100  0.00000  1.0000
  Se  Se4       1.0  0.16100  0.33900  0.00000  1.0000
  Se  Se5       1.0  0.75000  0.75000  0.50000  1.0000
  Se  Se6       1.0  0.25000  0.25000  0.50000  1.0000
  Tl  Tl1       1.0  0.30300  0.80300  0.30600  1.0000
  Tl  Tl2       1.0  0.80300  0.00288  0.30600  1.0000
  Tl  Tl3       1.0  0.50300  0.30300  0.30600  1.0000
  Tl  Tl4       1.0  0.00288  0.50300  0.30600  1.0000
  Tl  Tl5       1.0  0.99700  0.49700  0.69400  1.0000
  Tl  Tl6       1.0  0.49700  0.69700  0.69400  1.0000
  Tl  Tl7       1.0  0.19700  0.99700  0.69400  1.0000
  Tl  Tl8       1.0  0.69700  0.19700  0.69400  1.0000
