data_image0
_chemical_formula_structural       F8H8N4P4
_chemical_formula_sum              "F8 H8 N4 P4"
_cell_length_a       4.90352
_cell_length_b       11.7285
_cell_length_c       4.52228
_cell_angle_alpha    90
_cell_angle_beta     114.426
_cell_angle_gamma    90

_space_group_name_H-M_alt    "P 1"
_space_group_IT_number       1

loop_
  _space_group_symop_operation_xyz
  'x, y, z'

loop_
  _atom_site_type_symbol
  _atom_site_label
  _atom_site_symmetry_multiplicity
  _atom_site_fract_x
  _atom_site_fract_y
  _atom_site_fract_z
  _atom_site_occupancy
  F   F1        1.0  0.80300  0.58000  0.05140  1.0000
  F   F2        1.0  0.97400  0.82600  0.06180  1.0000
  F   F3        1.0  0.02610  0.32600  0.43800  1.0000
  F   F4        1.0  0.19700  0.08010  0.44900  1.0000
  F   F5        1.0  0.80300  0.92000  0.55100  1.0000
  F   F6        1.0  0.97400  0.67400  0.56200  1.0000
  F   F7        1.0  0.02610  0.17400  0.93800  1.0000
  F   F8        1.0  0.19700  0.42000  0.94900  1.0000
  H   H1        1.0  0.42300  0.73300  0.08990  1.0000
  H   H2        1.0  0.22400  0.62800  0.17600  1.0000
  H   H3        1.0  0.77600  0.12800  0.32400  1.0000
  H   H4        1.0  0.57700  0.23300  0.41000  1.0000
  H   H5        1.0  0.42300  0.76700  0.59000  1.0000
  H   H6        1.0  0.22400  0.87200  0.67600  1.0000
  H   H7        1.0  0.77600  0.37200  0.82400  1.0000
  H   H8        1.0  0.57700  0.26700  0.91000  1.0000
  N   N1        1.0  0.42800  0.66600  0.24400  1.0000
  N   N2        1.0  0.57200  0.16600  0.25600  1.0000
  N   N3        1.0  0.42800  0.83400  0.74400  1.0000
  N   N4        1.0  0.57200  0.33400  0.75600  1.0000
  P   P1        1.0  0.28100  0.08040  0.13000  1.0000
  P   P2        1.0  0.71900  0.58000  0.37000  1.0000
  P   P3        1.0  0.28100  0.42000  0.63000  1.0000
  P   P4        1.0  0.71900  0.92000  0.87000  1.0000
