data_image0
_chemical_formula_structural       B4Ce2Cl2O8
_chemical_formula_sum              "B4 Ce2 Cl2 O8"
_cell_length_a       4.23124
_cell_length_b       6.59173
_cell_length_c       8.04759
_cell_angle_alpha    82.2714
_cell_angle_beta     89.2438
_cell_angle_gamma    72.081

_space_group_name_H-M_alt    "P 1"
_space_group_IT_number       1

loop_
  _space_group_symop_operation_xyz
  'x, y, z'

loop_
  _atom_site_type_symbol
  _atom_site_label
  _atom_site_symmetry_multiplicity
  _atom_site_fract_x
  _atom_site_fract_y
  _atom_site_fract_z
  _atom_site_occupancy
  B   B1        1.0  0.83300  0.65000  0.14900  1.0000
  B   B2        1.0  0.43600  0.43600  0.19500  1.0000
  B   B3        1.0  0.56400  0.56400  0.80500  1.0000
  B   B4        1.0  0.16700  0.35000  0.85100  1.0000
  Ce  Ce1       1.0  0.21600  0.02930  0.22400  1.0000
  Ce  Ce2       1.0  0.78400  0.97100  0.77600  1.0000
  Cl  Cl1       1.0  0.85400  0.79600  0.45800  1.0000
  Cl  Cl2       1.0  0.14600  0.20400  0.54200  1.0000
  O   O1        1.0  0.83700  0.84700  0.08030  1.0000
  O   O2        1.0  0.09720  0.46300  0.17800  1.0000
  O   O3        1.0  0.51900  0.62700  0.18400  1.0000
  O   O4        1.0  0.63400  0.23500  0.21100  1.0000
  O   O5        1.0  0.36600  0.76500  0.78900  1.0000
  O   O6        1.0  0.48100  0.37300  0.81600  1.0000
  O   O7        1.0  0.90300  0.53700  0.82200  1.0000
  O   O8        1.0  0.16300  0.15300  0.92000  1.0000
