data_image0
_chemical_formula_structural       Cu4Rb2S8V2
_chemical_formula_sum              "Cu4 Rb2 S8 V2"
_cell_length_a       5.41294
_cell_length_b       7.42391
_cell_length_c       9.52186
_cell_angle_alpha    90
_cell_angle_beta     73.4867
_cell_angle_gamma    90

_space_group_name_H-M_alt    "P 1"
_space_group_IT_number       1

loop_
  _space_group_symop_operation_xyz
  'x, y, z'

loop_
  _atom_site_type_symbol
  _atom_site_label
  _atom_site_symmetry_multiplicity
  _atom_site_fract_x
  _atom_site_fract_y
  _atom_site_fract_z
  _atom_site_occupancy
  Cu  Cu1       1.0  0.37700  0.00000  0.00000  1.0000
  Cu  Cu2       1.0  0.37700  0.50000  0.00000  1.0000
  Cu  Cu3       1.0  0.79200  0.75000  0.21200  1.0000
  Cu  Cu4       1.0  0.00376  0.25000  0.78800  1.0000
  Rb  Rb1       1.0  0.46200  0.25000  0.36500  1.0000
  Rb  Rb2       1.0  0.82700  0.75000  0.63500  1.0000
  S   S1        1.0  0.62200  0.75000  0.01510  1.0000
  S   S2        1.0  0.05430  0.50900  0.21600  1.0000
  S   S3        1.0  0.05430  0.99100  0.21600  1.0000
  S   S4        1.0  0.43000  0.75000  0.40700  1.0000
  S   S5        1.0  0.83700  0.25000  0.59300  1.0000
  S   S6        1.0  0.27000  0.00853  0.78400  1.0000
  S   S7        1.0  0.27000  0.49100  0.78400  1.0000
  S   S8        1.0  0.63700  0.25000  0.98500  1.0000
  V   V1        1.0  0.28900  0.75000  0.21600  1.0000
  V   V2        1.0  0.50500  0.25000  0.78400  1.0000
