data_image0
_chemical_formula_structural       H4I4K2O14Zn
_chemical_formula_sum              "H4 I4 K2 O14 Zn1"
_cell_length_a       7.54604
_cell_length_b       7.80942
_cell_length_c       7.81171
_cell_angle_alpha    117.314
_cell_angle_beta     118.881
_cell_angle_gamma    61.1095

_space_group_name_H-M_alt    "P 1"
_space_group_IT_number       1

loop_
  _space_group_symop_operation_xyz
  'x, y, z'

loop_
  _atom_site_type_symbol
  _atom_site_label
  _atom_site_symmetry_multiplicity
  _atom_site_fract_x
  _atom_site_fract_y
  _atom_site_fract_z
  _atom_site_occupancy
  H   H1        1.0  0.57200  0.46500  0.36800  1.0000
  H   H2        1.0  0.34400  0.36900  0.46900  1.0000
  H   H3        1.0  0.24500  0.63100  0.53100  1.0000
  H   H4        1.0  0.66900  0.53500  0.63200  1.0000
  I   I1        1.0  0.52400  0.49100  0.00680  1.0000
  I   I2        1.0  0.00041  0.03710  0.48600  1.0000
  I   I3        1.0  0.55200  0.96300  0.51400  1.0000
  I   I4        1.0  0.00884  0.50900  0.99300  1.0000
  K   K1        1.0  0.02560  0.00000  0.00000  1.0000
  K   K2        1.0  0.49900  0.00000  0.00000  1.0000
  O   O1        1.0  0.43100  0.41500  0.13400  1.0000
  O   O2        1.0  0.44100  0.76900  0.13500  1.0000
  O   O3        1.0  0.81100  0.41400  0.16500  1.0000
  O   O4        1.0  0.92700  0.89000  0.21400  1.0000
  O   O5        1.0  0.51100  0.15000  0.40800  1.0000
  O   O6        1.0  0.12600  0.17900  0.46600  1.0000
  O   O7        1.0  0.22400  0.50000  0.50000  1.0000
  O   O8        1.0  0.69000  0.50000  0.50000  1.0000
  O   O9        1.0  0.83900  0.82100  0.53400  1.0000
  O   O10       1.0  0.25300  0.85000  0.59200  1.0000
  O   O11       1.0  0.60300  0.11000  0.78600  1.0000
  O   O12       1.0  0.06000  0.58600  0.83500  1.0000
  O   O13       1.0  0.07450  0.23100  0.86500  1.0000
  O   O14       1.0  0.71200  0.58500  0.86600  1.0000
  Zn  Zn1       1.0  0.96000  0.50000  0.50000  1.0000
