data_image0
_chemical_formula_structural       Cs4P2Se10
_chemical_formula_sum              "Cs4 P2 Se10"
_cell_length_a       7.54946
_cell_length_b       7.74297
_cell_length_c       10.4687
_cell_angle_alpha    84.557
_cell_angle_beta     87.547
_cell_angle_gamma    85.5652

_space_group_name_H-M_alt    "P 1"
_space_group_IT_number       1

loop_
  _space_group_symop_operation_xyz
  'x, y, z'

loop_
  _atom_site_type_symbol
  _atom_site_label
  _atom_site_symmetry_multiplicity
  _atom_site_fract_x
  _atom_site_fract_y
  _atom_site_fract_z
  _atom_site_occupancy
  Cs  Cs1       1.0  0.77800  0.72600  0.03300  1.0000
  Cs  Cs2       1.0  0.20100  0.86300  0.37100  1.0000
  Cs  Cs3       1.0  0.79900  0.13700  0.62900  1.0000
  Cs  Cs4       1.0  0.22200  0.27400  0.96700  1.0000
  P   P1        1.0  0.75300  0.20500  0.22300  1.0000
  P   P2        1.0  0.24700  0.79500  0.77700  1.0000
  Se  Se1       1.0  0.72700  0.23300  0.01160  1.0000
  Se  Se2       1.0  0.49900  0.40000  0.24200  1.0000
  Se  Se3       1.0  0.98500  0.32000  0.28900  1.0000
  Se  Se4       1.0  0.70000  0.95400  0.32600  1.0000
  Se  Se5       1.0  0.40400  0.39700  0.45900  1.0000
  Se  Se6       1.0  0.59600  0.60300  0.54100  1.0000
  Se  Se7       1.0  0.30000  0.04600  0.67400  1.0000
  Se  Se8       1.0  0.01520  0.68000  0.71100  1.0000
  Se  Se9       1.0  0.50100  0.60000  0.75800  1.0000
  Se  Se10      1.0  0.27300  0.76700  0.98800  1.0000
