data_image0
_chemical_formula_structural       Eu10Ge6
_chemical_formula_sum              "Eu10 Ge6"
_cell_length_a       7.85433
_cell_length_b       7.85433
_cell_length_c       9.39395
_cell_angle_alpha    114.712
_cell_angle_beta     114.712
_cell_angle_gamma    90

_space_group_name_H-M_alt    "P 1"
_space_group_IT_number       1

loop_
  _space_group_symop_operation_xyz
  'x, y, z'

loop_
  _atom_site_type_symbol
  _atom_site_label
  _atom_site_symmetry_multiplicity
  _atom_site_fract_x
  _atom_site_fract_y
  _atom_site_fract_z
  _atom_site_occupancy
  Eu  Eu1       1.0  0.00000  0.00000  0.00000  1.0000
  Eu  Eu2       1.0  0.50000  0.50000  0.00000  1.0000
  Eu  Eu3       1.0  0.46400  0.32100  0.28500  1.0000
  Eu  Eu4       1.0  0.96400  0.46400  0.28500  1.0000
  Eu  Eu5       1.0  0.32100  0.82100  0.28500  1.0000
  Eu  Eu6       1.0  0.82100  0.96400  0.28500  1.0000
  Eu  Eu7       1.0  0.17900  0.03560  0.71500  1.0000
  Eu  Eu8       1.0  0.67900  0.17900  0.71500  1.0000
  Eu  Eu9       1.0  0.03560  0.53600  0.71500  1.0000
  Eu  Eu10      1.0  0.53600  0.67900  0.71500  1.0000
  Ge  Ge1       1.0  0.61500  0.11500  0.00000  1.0000
  Ge  Ge2       1.0  0.11500  0.38500  0.00000  1.0000
  Ge  Ge3       1.0  0.88500  0.61500  0.00000  1.0000
  Ge  Ge4       1.0  0.38500  0.88500  0.00000  1.0000
  Ge  Ge5       1.0  0.25000  0.25000  0.50000  1.0000
  Ge  Ge6       1.0  0.75000  0.75000  0.50000  1.0000
