data_image0
_chemical_formula_structural       H2Na2O14P4Zn2
_chemical_formula_sum              "H2 Na2 O14 P4 Zn2"
_cell_length_a       6.40739
_cell_length_b       6.57634
_cell_length_c       6.49591
_cell_angle_alpha    96.3598
_cell_angle_beta     92.0721
_cell_angle_gamma    66.9496

_space_group_name_H-M_alt    "P 1"
_space_group_IT_number       1

loop_
  _space_group_symop_operation_xyz
  'x, y, z'

loop_
  _atom_site_type_symbol
  _atom_site_label
  _atom_site_symmetry_multiplicity
  _atom_site_fract_x
  _atom_site_fract_y
  _atom_site_fract_z
  _atom_site_occupancy
  H   H1        1.0  0.05280  0.80800  0.30600  1.0000
  H   H2        1.0  0.94700  0.19200  0.69400  1.0000
  Na  Na1       1.0  0.77700  0.25200  0.35800  1.0000
  Na  Na2       1.0  0.22300  0.74800  0.64200  1.0000
  O   O1        1.0  0.55600  0.24800  0.07850  1.0000
  O   O2        1.0  0.14600  0.10300  0.11800  1.0000
  O   O3        1.0  0.85800  0.55400  0.17300  1.0000
  O   O4        1.0  0.22200  0.71900  0.21700  1.0000
  O   O5        1.0  0.50700  0.89500  0.28800  1.0000
  O   O6        1.0  0.88000  0.87400  0.41800  1.0000
  O   O7        1.0  0.29200  0.38800  0.46300  1.0000
  O   O8        1.0  0.70800  0.61200  0.53700  1.0000
  O   O9        1.0  0.12000  0.12600  0.58200  1.0000
  O   O10       1.0  0.49300  0.10500  0.71200  1.0000
  O   O11       1.0  0.77800  0.28100  0.78300  1.0000
  O   O12       1.0  0.14200  0.44600  0.82700  1.0000
  O   O13       1.0  0.85400  0.89700  0.88200  1.0000
  O   O14       1.0  0.44400  0.75200  0.92100  1.0000
  P   P1        1.0  0.32200  0.87000  0.12200  1.0000
  P   P2        1.0  0.74800  0.72500  0.36000  1.0000
  P   P3        1.0  0.25200  0.27500  0.64000  1.0000
  P   P4        1.0  0.67800  0.13000  0.87800  1.0000
  Zn  Zn1       1.0  0.21900  0.38200  0.14700  1.0000
  Zn  Zn2       1.0  0.78100  0.61800  0.85300  1.0000
