data_image0
_chemical_formula_structural       Ga4H16Sr4
_chemical_formula_sum              "Ga4 H16 Sr4"
_cell_length_a       8.69162
_cell_length_b       7.23333
_cell_length_c       4.66195
_cell_angle_alpha    90
_cell_angle_beta     90
_cell_angle_gamma    90

_space_group_name_H-M_alt    "P 1"
_space_group_IT_number       1

loop_
  _space_group_symop_operation_xyz
  'x, y, z'

loop_
  _atom_site_type_symbol
  _atom_site_label
  _atom_site_symmetry_multiplicity
  _atom_site_fract_x
  _atom_site_fract_y
  _atom_site_fract_z
  _atom_site_occupancy
  Ga  Ga1       1.0  0.74500  0.89000  0.45400  1.0000
  Ga  Ga2       1.0  0.24500  0.61000  0.45400  1.0000
  Ga  Ga3       1.0  0.75500  0.39000  0.95400  1.0000
  Ga  Ga4       1.0  0.25500  0.11000  0.95400  1.0000
  H   H1        1.0  0.74600  0.73700  0.19000  1.0000
  H   H2        1.0  0.24600  0.76300  0.19000  1.0000
  H   H3        1.0  0.75400  0.23700  0.21800  1.0000
  H   H4        1.0  0.25400  0.26300  0.21800  1.0000
  H   H5        1.0  0.03970  0.58500  0.45400  1.0000
  H   H6        1.0  0.54000  0.91500  0.45400  1.0000
  H   H7        1.0  0.95100  0.91300  0.45400  1.0000
  H   H8        1.0  0.45100  0.58700  0.45400  1.0000
  H   H9        1.0  0.75400  0.23700  0.69000  1.0000
  H   H10       1.0  0.25400  0.26300  0.69000  1.0000
  H   H11       1.0  0.74600  0.73700  0.71800  1.0000
  H   H12       1.0  0.24600  0.76300  0.71800  1.0000
  H   H13       1.0  0.96000  0.41500  0.95400  1.0000
  H   H14       1.0  0.46000  0.08540  0.95400  1.0000
  H   H15       1.0  0.54900  0.41300  0.95400  1.0000
  H   H16       1.0  0.04910  0.08680  0.95400  1.0000
  Sr  Sr1       1.0  0.50300  0.25100  0.45400  1.0000
  Sr  Sr2       1.0  0.00312  0.24900  0.45400  1.0000
  Sr  Sr3       1.0  0.99700  0.75100  0.95400  1.0000
  Sr  Sr4       1.0  0.49700  0.74900  0.95400  1.0000
