data_image0
_chemical_formula_structural       F8H14N2
_chemical_formula_sum              "F8 H14 N2"
_cell_length_a       5.57393
_cell_length_b       5.57393
_cell_length_c       5.57393
_cell_angle_alpha    97.5939
_cell_angle_beta     82.4061
_cell_angle_gamma    97.5939

_space_group_name_H-M_alt    "P 1"
_space_group_IT_number       1

loop_
  _space_group_symop_operation_xyz
  'x, y, z'

loop_
  _atom_site_type_symbol
  _atom_site_label
  _atom_site_symmetry_multiplicity
  _atom_site_fract_x
  _atom_site_fract_y
  _atom_site_fract_z
  _atom_site_occupancy
  F   F1        1.0  0.42900  0.22300  0.07190  1.0000
  F   F2        1.0  0.24900  0.75100  0.24900  1.0000
  F   F3        1.0  0.92900  0.42800  0.27700  1.0000
  F   F4        1.0  0.77700  0.92800  0.42900  1.0000
  F   F5        1.0  0.27700  0.07130  0.57200  1.0000
  F   F6        1.0  0.74900  0.25100  0.74900  1.0000
  F   F7        1.0  0.07190  0.57100  0.77700  1.0000
  F   F8        1.0  0.57200  0.72300  0.92900  1.0000
  H   H1        1.0  0.43600  0.73800  0.06400  1.0000
  H   H2        1.0  0.08960  0.91000  0.08960  1.0000
  H   H3        1.0  0.97600  0.17300  0.09370  1.0000
  H   H4        1.0  0.06400  0.56400  0.26200  1.0000
  H   H5        1.0  0.47600  0.40600  0.32700  1.0000
  H   H6        1.0  0.26200  0.93600  0.43600  1.0000
  H   H7        1.0  0.59400  0.67300  0.47600  1.0000
  H   H8        1.0  0.76200  0.06390  0.56400  1.0000
  H   H9        1.0  0.59000  0.41000  0.59000  1.0000
  H   H10       1.0  0.32700  0.52400  0.59400  1.0000
  H   H11       1.0  0.93600  0.43600  0.76200  1.0000
  H   H12       1.0  0.09370  0.02370  0.82700  1.0000
  H   H13       1.0  0.56400  0.23800  0.93600  1.0000
  H   H14       1.0  0.82700  0.90600  0.97600  1.0000
  N   N1        1.0  0.49500  0.50500  0.49500  1.0000
  N   N2        1.0  0.99500  0.00479  0.99500  1.0000
