data_image0
_chemical_formula_structural       K4Sb4Se8
_chemical_formula_sum              "K4 Sb4 Se8"
_cell_length_a       6.6155
_cell_length_b       6.62646
_cell_length_c       12.6471
_cell_angle_alpha    98.5336
_cell_angle_beta     99.1694
_cell_angle_gamma    102.541

_space_group_name_H-M_alt    "P 1"
_space_group_IT_number       1

loop_
  _space_group_symop_operation_xyz
  'x, y, z'

loop_
  _atom_site_type_symbol
  _atom_site_label
  _atom_site_symmetry_multiplicity
  _atom_site_fract_x
  _atom_site_fract_y
  _atom_site_fract_z
  _atom_site_occupancy
  K   K1        1.0  0.19400  0.30200  0.16400  1.0000
  K   K2        1.0  0.31200  0.92800  0.46800  1.0000
  K   K3        1.0  0.82700  0.87800  0.72500  1.0000
  K   K4        1.0  0.68200  0.35400  0.91000  1.0000
  Sb  Sb1       1.0  0.75700  0.83200  0.22700  1.0000
  Sb  Sb2       1.0  0.75000  0.39300  0.40700  1.0000
  Sb  Sb3       1.0  0.17700  0.42300  0.67000  1.0000
  Sb  Sb4       1.0  0.33500  0.81100  0.96400  1.0000
  Se  Se1       1.0  0.72700  0.43000  0.18300  1.0000
  Se  Se2       1.0  0.35700  0.82900  0.19300  1.0000
  Se  Se3       1.0  0.15000  0.40000  0.43900  1.0000
  Se  Se4       1.0  0.77700  0.79500  0.45000  1.0000
  Se  Se5       1.0  0.76700  0.36200  0.64200  1.0000
  Se  Se6       1.0  0.31300  0.83000  0.72400  1.0000
  Se  Se7       1.0  0.19800  0.40400  0.90900  1.0000
  Se  Se8       1.0  0.74400  0.86900  0.99100  1.0000
