data_image0
_chemical_formula_structural       H16S8
_chemical_formula_sum              "H16 S8"
_cell_length_a       3.97153
_cell_length_b       12.5367
_cell_length_c       6.32021
_cell_angle_alpha    90
_cell_angle_beta     90
_cell_angle_gamma    90

_space_group_name_H-M_alt    "P 1"
_space_group_IT_number       1

loop_
  _space_group_symop_operation_xyz
  'x, y, z'

loop_
  _atom_site_type_symbol
  _atom_site_label
  _atom_site_symmetry_multiplicity
  _atom_site_fract_x
  _atom_site_fract_y
  _atom_site_fract_z
  _atom_site_occupancy
  H   H1        1.0  0.68500  0.37700  0.09120  1.0000
  H   H2        1.0  0.31500  0.87700  0.09120  1.0000
  H   H3        1.0  0.20000  0.06670  0.25000  1.0000
  H   H4        1.0  0.17900  0.22700  0.25000  1.0000
  H   H5        1.0  0.80000  0.56700  0.25000  1.0000
  H   H6        1.0  0.82100  0.72700  0.25000  1.0000
  H   H7        1.0  0.68500  0.37700  0.40900  1.0000
  H   H8        1.0  0.31500  0.87700  0.40900  1.0000
  H   H9        1.0  0.68500  0.12300  0.59100  1.0000
  H   H10       1.0  0.31500  0.62300  0.59100  1.0000
  H   H11       1.0  0.17900  0.27300  0.75000  1.0000
  H   H12       1.0  0.20000  0.43300  0.75000  1.0000
  H   H13       1.0  0.82100  0.77300  0.75000  1.0000
  H   H14       1.0  0.80000  0.93300  0.75000  1.0000
  H   H15       1.0  0.68500  0.12300  0.90900  1.0000
  H   H16       1.0  0.31500  0.62300  0.90900  1.0000
  S   S1        1.0  0.95500  0.14300  0.25000  1.0000
  S   S2        1.0  0.45900  0.39800  0.25000  1.0000
  S   S3        1.0  0.04470  0.64300  0.25000  1.0000
  S   S4        1.0  0.54100  0.89800  0.25000  1.0000
  S   S5        1.0  0.45900  0.10200  0.75000  1.0000
  S   S6        1.0  0.95500  0.35700  0.75000  1.0000
  S   S7        1.0  0.54100  0.60200  0.75000  1.0000
  S   S8        1.0  0.04470  0.85700  0.75000  1.0000
