data_image0
_chemical_formula_structural       Fe3H6KO14S2
_chemical_formula_sum              "Fe3 H6 K1 O14 S2"
_cell_length_a       7.02076
_cell_length_b       7.02076
_cell_length_c       7.02076
_cell_angle_alpha    117.685
_cell_angle_beta     117.685
_cell_angle_gamma    62.315

_space_group_name_H-M_alt    "P 1"
_space_group_IT_number       1

loop_
  _space_group_symop_operation_xyz
  'x, y, z'

loop_
  _atom_site_type_symbol
  _atom_site_label
  _atom_site_symmetry_multiplicity
  _atom_site_fract_x
  _atom_site_fract_y
  _atom_site_fract_z
  _atom_site_occupancy
  Fe  Fe1       1.0  1.00000  0.50000  1.00000  1.0000
  Fe  Fe2       1.0  0.50000  0.00000  0.00000  1.0000
  Fe  Fe3       1.0  0.00000  0.00000  0.50000  1.0000
  H   H1        1.0  0.31200  0.31200  0.29100  1.0000
  H   H2        1.0  0.29100  0.68800  0.31200  1.0000
  H   H3        1.0  0.68800  0.29100  0.31200  1.0000
  H   H4        1.0  0.70900  0.31200  0.68800  1.0000
  H   H5        1.0  0.31200  0.70900  0.68800  1.0000
  H   H6        1.0  0.68800  0.68800  0.70900  1.0000
  K   K1        1.0  0.00000  0.00000  0.00000  1.0000
  O   O1        1.0  0.73600  0.73600  0.87700  1.0000
  O   O2        1.0  0.26400  0.26400  0.12300  1.0000
  O   O3        1.0  0.49400  0.82900  0.17100  1.0000
  O   O4        1.0  0.82900  0.49400  0.17100  1.0000
  O   O5        1.0  0.12300  0.73600  0.26400  1.0000
  O   O6        1.0  0.73600  0.12300  0.26400  1.0000
  O   O7        1.0  0.60100  0.60100  0.39900  1.0000
  O   O8        1.0  0.17100  0.17100  0.49400  1.0000
  O   O9        1.0  0.82900  0.82900  0.50600  1.0000
  O   O10       1.0  0.39900  0.39900  0.60100  1.0000
  O   O11       1.0  0.87700  0.26400  0.73600  1.0000
  O   O12       1.0  0.26400  0.87700  0.73600  1.0000
  O   O13       1.0  0.17100  0.50600  0.82900  1.0000
  O   O14       1.0  0.50600  0.17100  0.82900  1.0000
  S   S1        1.0  0.68900  0.68900  0.31100  1.0000
  S   S2        1.0  0.31100  0.31100  0.68900  1.0000
