data_image0
_chemical_formula_structural       Cl2H4O12Rb2Se4Zn2
_chemical_formula_sum              "Cl2 H4 O12 Rb2 Se4 Zn2"
_cell_length_a       6.39515
_cell_length_b       5.97768
_cell_length_c       10.7536
_cell_angle_alpha    90
_cell_angle_beta     103.365
_cell_angle_gamma    90

_space_group_name_H-M_alt    "P 1"
_space_group_IT_number       1

loop_
  _space_group_symop_operation_xyz
  'x, y, z'

loop_
  _atom_site_type_symbol
  _atom_site_label
  _atom_site_symmetry_multiplicity
  _atom_site_fract_x
  _atom_site_fract_y
  _atom_site_fract_z
  _atom_site_occupancy
  Cl  Cl1       1.0  0.50000  0.95100  0.25000  1.0000
  Cl  Cl2       1.0  0.50000  0.04930  0.75000  1.0000
  H   H1        1.0  0.06990  0.66100  0.09060  1.0000
  H   H2        1.0  0.93000  0.66100  0.40900  1.0000
  H   H3        1.0  0.06990  0.33900  0.59100  1.0000
  H   H4        1.0  0.93000  0.33900  0.90900  1.0000
  O   O1        1.0  0.96600  0.79300  0.07780  1.0000
  O   O2        1.0  0.68000  0.48200  0.11400  1.0000
  O   O3        1.0  0.23900  0.45500  0.11700  1.0000
  O   O4        1.0  0.76100  0.45500  0.38300  1.0000
  O   O5        1.0  0.32000  0.48200  0.38600  1.0000
  O   O6        1.0  0.03420  0.79300  0.42200  1.0000
  O   O7        1.0  0.96600  0.20700  0.57800  1.0000
  O   O8        1.0  0.68000  0.51800  0.61400  1.0000
  O   O9        1.0  0.23900  0.54500  0.61700  1.0000
  O   O10       1.0  0.76100  0.54500  0.88300  1.0000
  O   O11       1.0  0.32000  0.51800  0.88600  1.0000
  O   O12       1.0  0.03420  0.20700  0.92200  1.0000
  Rb  Rb1       1.0  0.00000  0.16500  0.25000  1.0000
  Rb  Rb2       1.0  0.00000  0.83500  0.75000  1.0000
  Se  Se1       1.0  0.70100  0.69300  0.00928  1.0000
  Se  Se2       1.0  0.29900  0.69300  0.49100  1.0000
  Se  Se3       1.0  0.70100  0.30700  0.50900  1.0000
  Se  Se4       1.0  0.29900  0.30700  0.99100  1.0000
  Zn  Zn1       1.0  0.50000  0.56700  0.25000  1.0000
  Zn  Zn2       1.0  0.50000  0.43300  0.75000  1.0000
