data_image0
_chemical_formula_structural       F2Li2Ni2O8S2
_chemical_formula_sum              "F2 Li2 Ni2 O8 S2"
_cell_length_a       5.08207
_cell_length_b       5.31035
_cell_length_c       7.01261
_cell_angle_alpha    106.777
_cell_angle_beta     107.896
_cell_angle_gamma    98.485

_space_group_name_H-M_alt    "P 1"
_space_group_IT_number       1

loop_
  _space_group_symop_operation_xyz
  'x, y, z'

loop_
  _atom_site_type_symbol
  _atom_site_label
  _atom_site_symmetry_multiplicity
  _atom_site_fract_x
  _atom_site_fract_y
  _atom_site_fract_z
  _atom_site_occupancy
  F   F1        1.0  0.86600  0.07530  0.23800  1.0000
  F   F2        1.0  0.13400  0.92500  0.76200  1.0000
  Li  Li1       1.0  0.72500  0.36300  0.21200  1.0000
  Li  Li2       1.0  0.27500  0.63700  0.78800  1.0000
  Ni  Ni1       1.0  0.00000  0.00000  0.00000  1.0000
  Ni  Ni2       1.0  0.00000  1.00000  0.50000  1.0000
  O   O1        1.0  0.28300  0.78100  0.09820  1.0000
  O   O2        1.0  0.31900  0.35200  0.14500  1.0000
  O   O3        1.0  0.09570  0.64800  0.34500  1.0000
  O   O4        1.0  0.60900  0.76100  0.43000  1.0000
  O   O5        1.0  0.39100  0.23900  0.57000  1.0000
  O   O6        1.0  0.90400  0.35200  0.65500  1.0000
  O   O7        1.0  0.68100  0.64800  0.85500  1.0000
  O   O8        1.0  0.71700  0.21900  0.90200  1.0000
  S   S1        1.0  0.32600  0.64000  0.25600  1.0000
  S   S2        1.0  0.67400  0.36000  0.74400  1.0000
