data_image0
_chemical_formula_structural       H8O12P4Sr2
_chemical_formula_sum              "H8 O12 P4 Sr2"
_cell_length_a       5.72429
_cell_length_b       7.13744
_cell_length_c       7.91994
_cell_angle_alpha    97.634
_cell_angle_beta     104.616
_cell_angle_gamma    106.557

_space_group_name_H-M_alt    "P 1"
_space_group_IT_number       1

loop_
  _space_group_symop_operation_xyz
  'x, y, z'

loop_
  _atom_site_type_symbol
  _atom_site_label
  _atom_site_symmetry_multiplicity
  _atom_site_fract_x
  _atom_site_fract_y
  _atom_site_fract_z
  _atom_site_occupancy
  H   H1        1.0  0.93900  0.55600  0.22100  1.0000
  H   H2        1.0  0.42000  0.78600  0.42100  1.0000
  H   H3        1.0  0.75900  0.52900  0.44000  1.0000
  H   H4        1.0  0.84600  0.11000  0.44000  1.0000
  H   H5        1.0  0.15400  0.89000  0.56000  1.0000
  H   H6        1.0  0.24100  0.47100  0.56000  1.0000
  H   H7        1.0  0.58000  0.21400  0.57900  1.0000
  H   H8        1.0  0.06120  0.44400  0.77900  1.0000
  O   O1        1.0  0.40700  0.57800  0.15300  1.0000
  O   O2        1.0  0.42700  0.93600  0.16900  1.0000
  O   O3        1.0  0.98700  0.10600  0.18000  1.0000
  O   O4        1.0  0.02500  0.68700  0.18900  1.0000
  O   O5        1.0  0.79300  0.36700  0.28700  1.0000
  O   O6        1.0  0.23400  0.36300  0.46000  1.0000
  O   O7        1.0  0.76600  0.63700  0.54000  1.0000
  O   O8        1.0  0.20700  0.63300  0.71300  1.0000
  O   O9        1.0  0.97500  0.31300  0.81100  1.0000
  O   O10       1.0  0.01320  0.89400  0.82000  1.0000
  O   O11       1.0  0.57300  0.06370  0.83100  1.0000
  O   O12       1.0  0.59300  0.42200  0.84700  1.0000
  P   P1        1.0  0.32900  0.74700  0.23300  1.0000
  P   P2        1.0  0.95500  0.23100  0.33600  1.0000
  P   P3        1.0  0.04530  0.76900  0.66400  1.0000
  P   P4        1.0  0.67100  0.25300  0.76700  1.0000
  Sr  Sr1       1.0  0.33500  0.21600  0.03890  1.0000
  Sr  Sr2       1.0  0.66500  0.78400  0.96100  1.0000
