data_image0
_chemical_formula_structural       B12Cs2H12
_chemical_formula_sum              "B12 Cs2 H12"
_cell_length_a       7.82024
_cell_length_b       7.82024
_cell_length_c       7.82024
_cell_angle_alpha    120
_cell_angle_beta     90
_cell_angle_gamma    120

_space_group_name_H-M_alt    "P 1"
_space_group_IT_number       1

loop_
  _space_group_symop_operation_xyz
  'x, y, z'

loop_
  _atom_site_type_symbol
  _atom_site_label
  _atom_site_symmetry_multiplicity
  _atom_site_fract_x
  _atom_site_fract_y
  _atom_site_fract_z
  _atom_site_occupancy
  B   B1        1.0  0.79000  0.84000  0.04970  1.0000
  B   B2        1.0  0.04970  0.26000  0.04970  1.0000
  B   B3        1.0  0.21000  0.00000  0.04970  1.0000
  B   B4        1.0  0.95000  0.16000  0.21000  1.0000
  B   B5        1.0  0.04970  0.00000  0.21000  1.0000
  B   B6        1.0  0.21000  0.26000  0.21000  1.0000
  B   B7        1.0  0.79000  0.74000  0.79000  1.0000
  B   B8        1.0  0.04970  0.84000  0.79000  1.0000
  B   B9        1.0  0.95000  0.00000  0.79000  1.0000
  B   B10       1.0  0.21000  0.16000  0.95000  1.0000
  B   B11       1.0  0.95000  0.74000  0.95000  1.0000
  B   B12       1.0  0.79000  0.00000  0.95000  1.0000
  Cs  Cs1       1.0  0.75000  0.50000  0.25000  1.0000
  Cs  Cs2       1.0  0.25000  0.50000  0.75000  1.0000
  H   H1        1.0  0.08780  0.44700  0.08780  1.0000
  H   H2        1.0  0.64000  0.72800  0.08780  1.0000
  H   H3        1.0  0.36000  0.00000  0.08780  1.0000
  H   H4        1.0  0.36000  0.44700  0.36000  1.0000
  H   H5        1.0  0.08780  0.00000  0.36000  1.0000
  H   H6        1.0  0.91200  0.27200  0.36000  1.0000
  H   H7        1.0  0.08780  0.72800  0.64000  1.0000
  H   H8        1.0  0.64000  0.55300  0.64000  1.0000
  H   H9        1.0  0.91200  0.00000  0.64000  1.0000
  H   H10       1.0  0.91200  0.55300  0.91200  1.0000
  H   H11       1.0  0.36000  0.27200  0.91200  1.0000
  H   H12       1.0  0.64000  0.00000  0.91200  1.0000
