data_image0
_chemical_formula_structural       C2Fe2H10O8P2
_chemical_formula_sum              "C2 Fe2 H10 O8 P2"
_cell_length_a       5.71437
_cell_length_b       8.37981
_cell_length_c       4.70531
_cell_angle_alpha    90
_cell_angle_beta     90
_cell_angle_gamma    90

_space_group_name_H-M_alt    "P 1"
_space_group_IT_number       1

loop_
  _space_group_symop_operation_xyz
  'x, y, z'

loop_
  _atom_site_type_symbol
  _atom_site_label
  _atom_site_symmetry_multiplicity
  _atom_site_fract_x
  _atom_site_fract_y
  _atom_site_fract_z
  _atom_site_occupancy
  C   C1        1.0  0.50000  0.58900  0.07150  1.0000
  C   C2        1.0  0.00000  0.41100  0.57100  1.0000
  Fe  Fe1       1.0  0.00000  0.97000  0.22300  1.0000
  Fe  Fe2       1.0  0.50000  0.02970  0.72300  1.0000
  H   H1        1.0  0.34400  0.53200  0.16100  1.0000
  H   H2        1.0  0.65600  0.53200  0.16100  1.0000
  H   H3        1.0  0.36300  0.20900  0.16400  1.0000
  H   H4        1.0  0.63700  0.20900  0.16400  1.0000
  H   H5        1.0  0.00000  0.42500  0.34000  1.0000
  H   H6        1.0  0.15600  0.46800  0.66100  1.0000
  H   H7        1.0  0.84400  0.46800  0.66100  1.0000
  H   H8        1.0  0.13700  0.79100  0.66400  1.0000
  H   H9        1.0  0.86300  0.79100  0.66400  1.0000
  H   H10       1.0  0.50000  0.57500  0.84000  1.0000
  O   O1        1.0  0.28300  0.87600  0.01140  1.0000
  O   O2        1.0  0.71700  0.87600  0.01140  1.0000
  O   O3        1.0  0.50000  0.22300  0.03810  1.0000
  O   O4        1.0  0.50000  0.81600  0.47900  1.0000
  O   O5        1.0  0.21700  0.12400  0.51100  1.0000
  O   O6        1.0  0.78300  0.12400  0.51100  1.0000
  O   O7        1.0  0.00000  0.77700  0.53800  1.0000
  O   O8        1.0  0.00000  0.18400  0.97900  1.0000
  P   P1        1.0  0.50000  0.79600  0.15800  1.0000
  P   P2        1.0  0.00000  0.20400  0.65800  1.0000
