data_image0
_chemical_formula_structural       Ag2F12Ta2
_chemical_formula_sum              "Ag2 F12 Ta2"
_cell_length_a       4.84982
_cell_length_b       4.84982
_cell_length_c       9.20658
_cell_angle_alpha    90
_cell_angle_beta     90
_cell_angle_gamma    90

_space_group_name_H-M_alt    "P 1"
_space_group_IT_number       1

loop_
  _space_group_symop_operation_xyz
  'x, y, z'

loop_
  _atom_site_type_symbol
  _atom_site_label
  _atom_site_symmetry_multiplicity
  _atom_site_fract_x
  _atom_site_fract_y
  _atom_site_fract_z
  _atom_site_occupancy
  Ag  Ag1       1.0  0.50000  0.50000  0.25000  1.0000
  Ag  Ag2       1.0  0.50000  0.50000  0.75000  1.0000
  F   F1        1.0  0.28100  0.28100  0.00000  1.0000
  F   F2        1.0  0.71900  0.71900  0.00000  1.0000
  F   F3        1.0  0.80400  0.19600  0.14700  1.0000
  F   F4        1.0  0.19600  0.80400  0.14700  1.0000
  F   F5        1.0  0.19600  0.19600  0.35300  1.0000
  F   F6        1.0  0.80400  0.80400  0.35300  1.0000
  F   F7        1.0  0.71900  0.28100  0.50000  1.0000
  F   F8        1.0  0.28100  0.71900  0.50000  1.0000
  F   F9        1.0  0.19600  0.19600  0.64700  1.0000
  F   F10       1.0  0.80400  0.80400  0.64700  1.0000
  F   F11       1.0  0.80400  0.19600  0.85300  1.0000
  F   F12       1.0  0.19600  0.80400  0.85300  1.0000
  Ta  Ta1       1.0  0.00000  0.00000  0.00000  1.0000
  Ta  Ta2       1.0  0.00000  0.00000  0.50000  1.0000
