data_image0
_chemical_formula_structural       Au2K6Sn8
_chemical_formula_sum              "Au2 K6 Sn8"
_cell_length_a       6.9761
_cell_length_b       12.8444
_cell_length_c       6.66475
_cell_angle_alpha    90
_cell_angle_beta     90
_cell_angle_gamma    90

_space_group_name_H-M_alt    "P 1"
_space_group_IT_number       1

loop_
  _space_group_symop_operation_xyz
  'x, y, z'

loop_
  _atom_site_type_symbol
  _atom_site_label
  _atom_site_symmetry_multiplicity
  _atom_site_fract_x
  _atom_site_fract_y
  _atom_site_fract_z
  _atom_site_occupancy
  Au  Au1       1.0  0.25000  0.75000  0.30200  1.0000
  Au  Au2       1.0  0.75000  0.25000  0.69800  1.0000
  K   K1        1.0  0.25000  0.00396  0.16500  1.0000
  K   K2        1.0  0.25000  0.49600  0.16500  1.0000
  K   K3        1.0  0.75000  0.75000  0.43300  1.0000
  K   K4        1.0  0.25000  0.25000  0.56700  1.0000
  K   K5        1.0  0.75000  0.50400  0.83500  1.0000
  K   K6        1.0  0.75000  0.99600  0.83500  1.0000
  Sn  Sn1       1.0  0.52000  0.25000  0.05160  1.0000
  Sn  Sn2       1.0  0.98000  0.25000  0.05160  1.0000
  Sn  Sn3       1.0  0.75000  0.12800  0.34400  1.0000
  Sn  Sn4       1.0  0.75000  0.37200  0.34400  1.0000
  Sn  Sn5       1.0  0.25000  0.62800  0.65600  1.0000
  Sn  Sn6       1.0  0.25000  0.87200  0.65600  1.0000
  Sn  Sn7       1.0  0.02000  0.75000  0.94800  1.0000
  Sn  Sn8       1.0  0.48000  0.75000  0.94800  1.0000
