data_image0
_chemical_formula_structural       FeH4KO14P4
_chemical_formula_sum              "Fe1 H4 K1 O14 P4"
_cell_length_a       4.94252
_cell_length_b       7.34852
_cell_length_c       7.68994
_cell_angle_alpha    82.5083
_cell_angle_beta     83.2714
_cell_angle_gamma    75.001

_space_group_name_H-M_alt    "P 1"
_space_group_IT_number       1

loop_
  _space_group_symop_operation_xyz
  'x, y, z'

loop_
  _atom_site_type_symbol
  _atom_site_label
  _atom_site_symmetry_multiplicity
  _atom_site_fract_x
  _atom_site_fract_y
  _atom_site_fract_z
  _atom_site_occupancy
  Fe  Fe1       1.0  0.00000  0.50000  0.00000  1.0000
  H   H1        1.0  0.69500  0.99800  0.38500  1.0000
  H   H2        1.0  0.10400  0.78900  0.42400  1.0000
  H   H3        1.0  0.89600  0.21100  0.57600  1.0000
  H   H4        1.0  0.30500  0.00192  0.61500  1.0000
  K   K1        1.0  0.00000  0.00000  0.00000  1.0000
  O   O1        1.0  0.26200  0.63500  0.07210  1.0000
  O   O2        1.0  0.16700  0.26300  0.15300  1.0000
  O   O3        1.0  0.73100  0.59400  0.20100  1.0000
  O   O4        1.0  0.61800  0.09730  0.28100  1.0000
  O   O5        1.0  0.29600  0.77900  0.34900  1.0000
  O   O6        1.0  0.36100  0.42900  0.36100  1.0000
  O   O7        1.0  0.17200  0.15300  0.48600  1.0000
  O   O8        1.0  0.82800  0.84700  0.51400  1.0000
  O   O9        1.0  0.63900  0.57100  0.63900  1.0000
  O   O10       1.0  0.70400  0.22100  0.65100  1.0000
  O   O11       1.0  0.38200  0.90300  0.71900  1.0000
  O   O12       1.0  0.26900  0.40600  0.79900  1.0000
  O   O13       1.0  0.83300  0.73700  0.84700  1.0000
  O   O14       1.0  0.73800  0.36500  0.92800  1.0000
  P   P1        1.0  0.41800  0.61100  0.23700  1.0000
  P   P2        1.0  0.31900  0.22900  0.31900  1.0000
  P   P3        1.0  0.68100  0.77100  0.68100  1.0000
  P   P4        1.0  0.58200  0.38900  0.76300  1.0000
