data_image0
_chemical_formula_structural       CsFeH12O10P
_chemical_formula_sum              "Cs1 Fe1 H12 O10 P1"
_cell_length_a       7.02741
_cell_length_b       7.02741
_cell_length_c       7.02741
_cell_angle_alpha    120
_cell_angle_beta     90
_cell_angle_gamma    120

_space_group_name_H-M_alt    "P 1"
_space_group_IT_number       1

loop_
  _space_group_symop_operation_xyz
  'x, y, z'

loop_
  _atom_site_type_symbol
  _atom_site_label
  _atom_site_symmetry_multiplicity
  _atom_site_fract_x
  _atom_site_fract_y
  _atom_site_fract_z
  _atom_site_occupancy
  Cs  Cs1       1.0  0.25000  0.50000  0.75000  1.0000
  Fe  Fe1       1.0  0.00000  0.00000  0.00000  1.0000
  H   H1        1.0  0.38700  0.11900  0.26800  1.0000
  H   H2        1.0  0.73200  0.11900  0.26800  1.0000
  H   H3        1.0  0.14800  0.53500  0.26800  1.0000
  H   H4        1.0  0.38700  0.53500  0.26800  1.0000
  H   H5        1.0  0.14800  0.88100  0.26800  1.0000
  H   H6        1.0  0.73200  0.88100  0.26800  1.0000
  H   H7        1.0  0.73200  0.46500  0.61300  1.0000
  H   H8        1.0  0.14800  0.88100  0.61300  1.0000
  H   H9        1.0  0.73200  0.88100  0.61300  1.0000
  H   H10       1.0  0.38700  0.11900  0.85200  1.0000
  H   H11       1.0  0.73200  0.11900  0.85200  1.0000
  H   H12       1.0  0.73200  0.46500  0.85200  1.0000
  O   O1        1.0  0.21200  0.00000  0.21200  1.0000
  O   O2        1.0  0.21200  0.42400  0.21200  1.0000
  O   O3        1.0  0.78800  0.00000  0.21200  1.0000
  O   O4        1.0  0.66000  0.32000  0.34000  1.0000
  O   O5        1.0  0.02030  0.68000  0.34000  1.0000
  O   O6        1.0  0.66000  0.68000  0.34000  1.0000
  O   O7        1.0  0.78800  0.00000  0.78800  1.0000
  O   O8        1.0  0.21200  0.00000  0.78800  1.0000
  O   O9        1.0  0.78800  0.57600  0.78800  1.0000
  O   O10       1.0  0.66000  0.32000  0.98000  1.0000
  P   P1        1.0  0.75000  0.50000  0.25000  1.0000
