data_image0
_chemical_formula_structural       H18N2Si6
_chemical_formula_sum              "H18 N2 Si6"
_cell_length_a       6.796
_cell_length_b       8.00792
_cell_length_c       6.83834
_cell_angle_alpha    95.4128
_cell_angle_beta     119.157
_cell_angle_gamma    98.6642

_space_group_name_H-M_alt    "P 1"
_space_group_IT_number       1

loop_
  _space_group_symop_operation_xyz
  'x, y, z'

loop_
  _atom_site_type_symbol
  _atom_site_label
  _atom_site_symmetry_multiplicity
  _atom_site_fract_x
  _atom_site_fract_y
  _atom_site_fract_z
  _atom_site_occupancy
  H   H1        1.0  0.21100  0.17800  0.07320  1.0000
  H   H2        1.0  0.25400  0.54900  0.07350  1.0000
  H   H3        1.0  0.29400  0.85600  0.09050  1.0000
  H   H4        1.0  0.63100  0.73400  0.19600  1.0000
  H   H5        1.0  0.70200  0.40200  0.29200  1.0000
  H   H6        1.0  0.71200  0.10300  0.30800  1.0000
  H   H7        1.0  0.10700  0.34600  0.31000  1.0000
  H   H8        1.0  0.09040  0.04290  0.31500  1.0000
  H   H9        1.0  0.04550  0.67800  0.34600  1.0000
  H   H10       1.0  0.95400  0.32200  0.65400  1.0000
  H   H11       1.0  0.91000  0.95700  0.68500  1.0000
  H   H12       1.0  0.89300  0.65400  0.69000  1.0000
  H   H13       1.0  0.28800  0.89700  0.69200  1.0000
  H   H14       1.0  0.29800  0.59800  0.70800  1.0000
  H   H15       1.0  0.36900  0.26600  0.80400  1.0000
  H   H16       1.0  0.70600  0.14400  0.90900  1.0000
  H   H17       1.0  0.74600  0.45100  0.92600  1.0000
  H   H18       1.0  0.78900  0.82200  0.92700  1.0000
  N   N1        1.0  0.48800  0.74900  0.48900  1.0000
  N   N2        1.0  0.51200  0.25100  0.51100  1.0000
  Si  Si1       1.0  0.41300  0.72000  0.20300  1.0000
  Si  Si2       1.0  0.22100  0.20200  0.29700  1.0000
  Si  Si3       1.0  0.72600  0.26900  0.43800  1.0000
  Si  Si4       1.0  0.27400  0.73100  0.56200  1.0000
  Si  Si5       1.0  0.77900  0.79800  0.70300  1.0000
  Si  Si6       1.0  0.58700  0.28000  0.79700  1.0000
