data_image0
_chemical_formula_structural       Cl4H8O8Sm4
_chemical_formula_sum              "Cl4 H8 O8 Sm4"
_cell_length_a       12.5634
_cell_length_b       3.74062
_cell_length_c       6.22699
_cell_angle_alpha    90
_cell_angle_beta     90
_cell_angle_gamma    90

_space_group_name_H-M_alt    "P 1"
_space_group_IT_number       1

loop_
  _space_group_symop_operation_xyz
  'x, y, z'

loop_
  _atom_site_type_symbol
  _atom_site_label
  _atom_site_symmetry_multiplicity
  _atom_site_fract_x
  _atom_site_fract_y
  _atom_site_fract_z
  _atom_site_occupancy
  Cl  Cl1       1.0  0.72200  0.25000  0.08920  1.0000
  Cl  Cl2       1.0  0.22200  0.25000  0.41100  1.0000
  Cl  Cl3       1.0  0.77800  0.75000  0.58900  1.0000
  Cl  Cl4       1.0  0.27800  0.75000  0.91100  1.0000
  H   H1        1.0  0.84500  0.75000  0.06120  1.0000
  H   H2        1.0  0.38400  0.25000  0.20100  1.0000
  H   H3        1.0  0.88400  0.25000  0.29900  1.0000
  H   H4        1.0  0.34500  0.75000  0.43900  1.0000
  H   H5        1.0  0.65500  0.25000  0.56100  1.0000
  H   H6        1.0  0.11600  0.75000  0.70100  1.0000
  H   H7        1.0  0.61600  0.75000  0.79900  1.0000
  H   H8        1.0  0.15500  0.25000  0.93900  1.0000
  O   O1        1.0  0.08280  0.25000  0.99900  1.0000
  O   O2        1.0  0.91700  0.75000  0.00117  1.0000
  O   O3        1.0  0.45400  0.25000  0.13300  1.0000
  O   O4        1.0  0.95400  0.25000  0.36700  1.0000
  O   O5        1.0  0.41700  0.75000  0.49900  1.0000
  O   O6        1.0  0.58300  0.25000  0.50100  1.0000
  O   O7        1.0  0.04580  0.75000  0.63300  1.0000
  O   O8        1.0  0.54600  0.75000  0.86700  1.0000
  Sm  Sm1       1.0  0.06190  0.75000  0.24800  1.0000
  Sm  Sm2       1.0  0.56200  0.75000  0.25200  1.0000
  Sm  Sm3       1.0  0.43800  0.25000  0.74800  1.0000
  Sm  Sm4       1.0  0.93800  0.25000  0.75200  1.0000
