data_image0
_chemical_formula_structural       H8Li4N4Sr8
_chemical_formula_sum              "H8 Li4 N4 Sr8"
_cell_length_a       7.25709
_cell_length_b       3.82984
_cell_length_c       14.1509
_cell_angle_alpha    90
_cell_angle_beta     90
_cell_angle_gamma    90

_space_group_name_H-M_alt    "P 1"
_space_group_IT_number       1

loop_
  _space_group_symop_operation_xyz
  'x, y, z'

loop_
  _atom_site_type_symbol
  _atom_site_label
  _atom_site_symmetry_multiplicity
  _atom_site_fract_x
  _atom_site_fract_y
  _atom_site_fract_z
  _atom_site_occupancy
  H   H1        1.0  0.38300  0.25000  0.07660  1.0000
  H   H2        1.0  0.36400  0.75000  0.22900  1.0000
  H   H3        1.0  0.86400  0.75000  0.27100  1.0000
  H   H4        1.0  0.88300  0.25000  0.42300  1.0000
  H   H5        1.0  0.11700  0.75000  0.57700  1.0000
  H   H6        1.0  0.13600  0.25000  0.72900  1.0000
  H   H7        1.0  0.63600  0.25000  0.77100  1.0000
  H   H8        1.0  0.61700  0.75000  0.92300  1.0000
  Li  Li1       1.0  0.87800  0.25000  0.23400  1.0000
  Li  Li2       1.0  0.37800  0.25000  0.26600  1.0000
  Li  Li3       1.0  0.62200  0.75000  0.73400  1.0000
  Li  Li4       1.0  0.12200  0.75000  0.76600  1.0000
  N   N1        1.0  0.86900  0.25000  0.09520  1.0000
  N   N2        1.0  0.36900  0.25000  0.40500  1.0000
  N   N3        1.0  0.63100  0.75000  0.59500  1.0000
  N   N4        1.0  0.13100  0.75000  0.90500  1.0000
  Sr  Sr1       1.0  0.11600  0.75000  0.08810  1.0000
  Sr  Sr2       1.0  0.64000  0.75000  0.10500  1.0000
  Sr  Sr3       1.0  0.14000  0.75000  0.39500  1.0000
  Sr  Sr4       1.0  0.61600  0.75000  0.41200  1.0000
  Sr  Sr5       1.0  0.38400  0.25000  0.58800  1.0000
  Sr  Sr6       1.0  0.86000  0.25000  0.60500  1.0000
  Sr  Sr7       1.0  0.36000  0.25000  0.89500  1.0000
  Sr  Sr8       1.0  0.88400  0.25000  0.91200  1.0000
