data_image0
_chemical_formula_structural       F8H10In2N2O2
_chemical_formula_sum              "F8 H10 In2 N2 O2"
_cell_length_a       6.67117
_cell_length_b       5.96301
_cell_length_c       5.59204
_cell_angle_alpha    82.1503
_cell_angle_beta     90.2528
_cell_angle_gamma    70.7236

_space_group_name_H-M_alt    "P 1"
_space_group_IT_number       1

loop_
  _space_group_symop_operation_xyz
  'x, y, z'

loop_
  _atom_site_type_symbol
  _atom_site_label
  _atom_site_symmetry_multiplicity
  _atom_site_fract_x
  _atom_site_fract_y
  _atom_site_fract_z
  _atom_site_occupancy
  F   F1        1.0  0.76500  0.42300  0.13100  1.0000
  F   F2        1.0  0.63300  0.93000  0.21100  1.0000
  F   F3        1.0  0.00416  0.69200  0.38300  1.0000
  F   F4        1.0  0.37900  0.70400  0.39000  1.0000
  F   F5        1.0  0.62100  0.29600  0.61000  1.0000
  F   F6        1.0  0.99600  0.30800  0.61700  1.0000
  F   F7        1.0  0.36700  0.07020  0.78900  1.0000
  F   F8        1.0  0.23500  0.57700  0.86900  1.0000
  H   H1        1.0  0.80400  0.94600  0.04180  1.0000
  H   H2        1.0  0.29000  0.39300  0.08950  1.0000
  H   H3        1.0  0.98300  0.19900  0.12300  1.0000
  H   H4        1.0  0.13500  0.90500  0.21800  1.0000
  H   H5        1.0  0.44800  0.12700  0.22200  1.0000
  H   H6        1.0  0.55200  0.87300  0.77800  1.0000
  H   H7        1.0  0.86500  0.09480  0.78200  1.0000
  H   H8        1.0  0.01720  0.80100  0.87700  1.0000
  H   H9        1.0  0.71000  0.60700  0.91000  1.0000
  H   H10       1.0  0.19600  0.05380  0.95800  1.0000
  In  In1       1.0  0.72100  0.59000  0.43900  1.0000
  In  In2       1.0  0.27900  0.41000  0.56100  1.0000
  N   N1        1.0  0.07160  0.03600  0.06910  1.0000
  N   N2        1.0  0.92800  0.96400  0.93100  1.0000
  O   O1        1.0  0.30900  0.26500  0.23400  1.0000
  O   O2        1.0  0.69100  0.73500  0.76600  1.0000
