data_image0
_chemical_formula_structural       H2K2O14Se4V2
_chemical_formula_sum              "H2 K2 O14 Se4 V2"
_cell_length_a       7.8029
_cell_length_b       10.5108
_cell_length_c       3.94205
_cell_angle_alpha    90
_cell_angle_beta     95.3862
_cell_angle_gamma    90

_space_group_name_H-M_alt    "P 1"
_space_group_IT_number       1

loop_
  _space_group_symop_operation_xyz
  'x, y, z'

loop_
  _atom_site_type_symbol
  _atom_site_label
  _atom_site_symmetry_multiplicity
  _atom_site_fract_x
  _atom_site_fract_y
  _atom_site_fract_z
  _atom_site_occupancy
  H   H1        1.0  0.50000  0.00000  0.50000  1.0000
  H   H2        1.0  0.50000  0.50000  0.50000  1.0000
  K   K1        1.0  0.55400  0.25000  0.09960  1.0000
  K   K2        1.0  0.44600  0.75000  0.90000  1.0000
  O   O1        1.0  0.87900  0.11600  0.02600  1.0000
  O   O2        1.0  0.87900  0.38400  0.02600  1.0000
  O   O3        1.0  0.24600  0.12100  0.06460  1.0000
  O   O4        1.0  0.24600  0.37900  0.06460  1.0000
  O   O5        1.0  0.39300  0.57600  0.39100  1.0000
  O   O6        1.0  0.39300  0.92400  0.39100  1.0000
  O   O7        1.0  0.95200  0.75000  0.46500  1.0000
  O   O8        1.0  0.04840  0.25000  0.53500  1.0000
  O   O9        1.0  0.60700  0.07600  0.60900  1.0000
  O   O10       1.0  0.60700  0.42400  0.60900  1.0000
  O   O11       1.0  0.75400  0.62100  0.93500  1.0000
  O   O12       1.0  0.75400  0.87900  0.93500  1.0000
  O   O13       1.0  0.12100  0.61600  0.97400  1.0000
  O   O14       1.0  0.12100  0.88400  0.97400  1.0000
  Se  Se1       1.0  0.19000  0.51100  0.30000  1.0000
  Se  Se2       1.0  0.19000  0.98900  0.30000  1.0000
  Se  Se3       1.0  0.81000  0.01090  0.70000  1.0000
  Se  Se4       1.0  0.81000  0.48900  0.70000  1.0000
  V   V1        1.0  0.94000  0.75000  0.03580  1.0000
  V   V2        1.0  0.06030  0.25000  0.96400  1.0000
