data_image0
_chemical_formula_structural       Al2Cs2F8H8O4
_chemical_formula_sum              "Al2 Cs2 F8 H8 O4"
_cell_length_a       6.47011
_cell_length_b       6.47011
_cell_length_c       7.88959
_cell_angle_alpha    95.3628
_cell_angle_beta     107.436
_cell_angle_gamma    121.376

_space_group_name_H-M_alt    "P 1"
_space_group_IT_number       1

loop_
  _space_group_symop_operation_xyz
  'x, y, z'

loop_
  _atom_site_type_symbol
  _atom_site_label
  _atom_site_symmetry_multiplicity
  _atom_site_fract_x
  _atom_site_fract_y
  _atom_site_fract_z
  _atom_site_occupancy
  Al  Al1       1.0  0.00000  0.00000  0.50000  1.0000
  Al  Al2       1.0  0.00000  0.50000  0.00000  1.0000
  Cs  Cs1       1.0  0.48500  0.23500  0.25000  1.0000
  Cs  Cs2       1.0  0.51500  0.76500  0.75000  1.0000
  F   F1        1.0  0.94600  0.74700  0.01310  1.0000
  F   F2        1.0  0.35000  0.74300  0.06810  1.0000
  F   F3        1.0  0.17500  0.28200  0.43200  1.0000
  F   F4        1.0  0.23400  0.93300  0.48700  1.0000
  F   F5        1.0  0.76600  0.06730  0.51300  1.0000
  F   F6        1.0  0.82500  0.71800  0.56800  1.0000
  F   F7        1.0  0.65000  0.25700  0.93200  1.0000
  F   F8        1.0  0.05430  0.25300  0.98700  1.0000
  H   H1        1.0  0.84300  0.78700  0.15300  1.0000
  H   H2        1.0  0.59800  0.77900  0.18300  1.0000
  H   H3        1.0  0.09660  0.41600  0.31700  1.0000
  H   H4        1.0  0.13300  0.69000  0.34700  1.0000
  H   H5        1.0  0.86700  0.31000  0.65300  1.0000
  H   H6        1.0  0.90300  0.58400  0.68300  1.0000
  H   H7        1.0  0.40200  0.22100  0.81700  1.0000
  H   H8        1.0  0.15700  0.21300  0.84700  1.0000
  O   O1        1.0  0.77100  0.79900  0.24700  1.0000
  O   O2        1.0  0.05180  0.52400  0.25300  1.0000
  O   O3        1.0  0.94800  0.47600  0.74700  1.0000
  O   O4        1.0  0.22900  0.20100  0.75300  1.0000
