data_image0
_chemical_formula_structural       F8K4O2Te2
_chemical_formula_sum              "F8 K4 O2 Te2"
_cell_length_a       6.18225
_cell_length_b       6.41321
_cell_length_c       7.2014
_cell_angle_alpha    90
_cell_angle_beta     64.5807
_cell_angle_gamma    90

_space_group_name_H-M_alt    "P 1"
_space_group_IT_number       1

loop_
  _space_group_symop_operation_xyz
  'x, y, z'

loop_
  _atom_site_type_symbol
  _atom_site_label
  _atom_site_symmetry_multiplicity
  _atom_site_fract_x
  _atom_site_fract_y
  _atom_site_fract_z
  _atom_site_occupancy
  F   F1        1.0  0.13300  0.02570  0.22000  1.0000
  F   F2        1.0  0.64700  0.02570  0.22000  1.0000
  F   F3        1.0  0.13300  0.47400  0.22000  1.0000
  F   F4        1.0  0.64700  0.47400  0.22000  1.0000
  F   F5        1.0  0.35300  0.52600  0.78000  1.0000
  F   F6        1.0  0.86700  0.52600  0.78000  1.0000
  F   F7        1.0  0.35300  0.97400  0.78000  1.0000
  F   F8        1.0  0.86700  0.97400  0.78000  1.0000
  K   K1        1.0  0.45200  0.75000  0.09690  1.0000
  K   K2        1.0  0.75600  0.75000  0.48800  1.0000
  K   K3        1.0  0.24400  0.25000  0.51200  1.0000
  K   K4        1.0  0.54800  0.25000  0.90300  1.0000
  O   O1        1.0  0.75700  0.25000  0.48700  1.0000
  O   O2        1.0  0.24300  0.75000  0.51300  1.0000
  Te  Te1       1.0  0.89600  0.25000  0.20900  1.0000
  Te  Te2       1.0  0.10400  0.75000  0.79100  1.0000
