data_image0
_chemical_formula_structural       F14H2I2N2O2
_chemical_formula_sum              "F14 H2 I2 N2 O2"
_cell_length_a       4.65125
_cell_length_b       7.36931
_cell_length_c       7.72261
_cell_angle_alpha    112.982
_cell_angle_beta     94.9617
_cell_angle_gamma    101.755

_space_group_name_H-M_alt    "P 1"
_space_group_IT_number       1

loop_
  _space_group_symop_operation_xyz
  'x, y, z'

loop_
  _atom_site_type_symbol
  _atom_site_label
  _atom_site_symmetry_multiplicity
  _atom_site_fract_x
  _atom_site_fract_y
  _atom_site_fract_z
  _atom_site_occupancy
  F   F1        1.0  0.77000  0.58500  0.10600  1.0000
  F   F2        1.0  0.98400  0.30100  0.14800  1.0000
  F   F3        1.0  0.39400  0.09440  0.15000  1.0000
  F   F4        1.0  0.89000  0.98600  0.20600  1.0000
  F   F5        1.0  0.56000  0.51600  0.33600  1.0000
  F   F6        1.0  0.28000  0.08120  0.48100  1.0000
  F   F7        1.0  0.85700  0.29600  0.48400  1.0000
  F   F8        1.0  0.14300  0.70400  0.51600  1.0000
  F   F9        1.0  0.72000  0.91900  0.51900  1.0000
  F   F10       1.0  0.44000  0.48400  0.66400  1.0000
  F   F11       1.0  0.11000  0.01440  0.79400  1.0000
  F   F12       1.0  0.60600  0.90600  0.85000  1.0000
  F   F13       1.0  0.01620  0.69900  0.85200  1.0000
  F   F14       1.0  0.23000  0.41500  0.89400  1.0000
  H   H1        1.0  0.68300  0.54700  0.21900  1.0000
  H   H2        1.0  0.31700  0.45300  0.78100  1.0000
  I   I1        1.0  0.17800  0.23400  0.34000  1.0000
  I   I2        1.0  0.82200  0.76600  0.66000  1.0000
  N   N1        1.0  0.39500  0.72800  0.08740  1.0000
  N   N2        1.0  0.60500  0.27200  0.91300  1.0000
  O   O1        1.0  0.29600  0.74400  0.21600  1.0000
  O   O2        1.0  0.70400  0.25600  0.78400  1.0000
