data_image0
_chemical_formula_structural       As2H12N2O8
_chemical_formula_sum              "As2 H12 N2 O8"
_cell_length_a       6.50444
_cell_length_b       6.50444
_cell_length_c       6.50444
_cell_angle_alpha    109.111
_cell_angle_beta     110.194
_cell_angle_gamma    109.111

_space_group_name_H-M_alt    "P 1"
_space_group_IT_number       1

loop_
  _space_group_symop_operation_xyz
  'x, y, z'

loop_
  _atom_site_type_symbol
  _atom_site_label
  _atom_site_symmetry_multiplicity
  _atom_site_fract_x
  _atom_site_fract_y
  _atom_site_fract_z
  _atom_site_occupancy
  As  As1       1.0  0.00000  0.00000  0.00000  1.0000
  As  As2       1.0  0.25000  0.50000  0.75000  1.0000
  H   H1        1.0  0.12500  0.41200  0.03730  1.0000
  H   H2        1.0  0.55900  0.36800  0.15300  1.0000
  H   H3        1.0  0.78500  0.63200  0.19100  1.0000
  H   H4        1.0  0.84700  0.40700  0.21500  1.0000
  H   H5        1.0  0.40300  0.86800  0.30900  1.0000
  H   H6        1.0  0.96300  0.08770  0.37500  1.0000
  H   H7        1.0  0.80900  0.59300  0.44100  1.0000
  H   H8        1.0  0.44100  0.13200  0.53500  1.0000
  H   H9        1.0  0.69100  0.09330  0.55900  1.0000
  H   H10       1.0  0.46500  0.90700  0.59700  1.0000
  H   H11       1.0  0.62500  0.58800  0.71300  1.0000
  H   H12       1.0  0.28700  0.91200  0.87500  1.0000
  N   N1        1.0  0.75000  0.50000  0.25000  1.0000
  N   N2        1.0  0.50000  0.00000  0.50000  1.0000
  O   O1        1.0  0.29400  0.07600  0.03780  1.0000
  O   O2        1.0  0.96200  0.25700  0.03820  1.0000
  O   O3        1.0  0.28800  0.57600  0.04440  1.0000
  O   O4        1.0  0.96200  0.92400  0.21800  1.0000
  O   O5        1.0  0.95600  0.24300  0.53200  1.0000
  O   O6        1.0  0.78200  0.74300  0.70600  1.0000
  O   O7        1.0  0.46800  0.42400  0.71200  1.0000
  O   O8        1.0  0.28800  0.75700  0.71200  1.0000
