data_image0
_chemical_formula_structural       F10O2Sn4
_chemical_formula_sum              "F10 O2 Sn4"
_cell_length_a       5.59127
_cell_length_b       5.59127
_cell_length_c       8.05936
_cell_angle_alpha    98.5998
_cell_angle_beta     109.573
_cell_angle_gamma    107.552

_space_group_name_H-M_alt    "P 1"
_space_group_IT_number       1

loop_
  _space_group_symop_operation_xyz
  'x, y, z'

loop_
  _atom_site_type_symbol
  _atom_site_label
  _atom_site_symmetry_multiplicity
  _atom_site_fract_x
  _atom_site_fract_y
  _atom_site_fract_z
  _atom_site_occupancy
  F   F1        1.0  0.32800  0.80100  0.12900  1.0000
  F   F2        1.0  0.30900  0.31400  0.19900  1.0000
  F   F3        1.0  0.88500  0.89000  0.19900  1.0000
  F   F4        1.0  0.84100  0.38900  0.23000  1.0000
  F   F5        1.0  0.76300  0.72100  0.48300  1.0000
  F   F6        1.0  0.23700  0.27900  0.51700  1.0000
  F   F7        1.0  0.15900  0.61100  0.77000  1.0000
  F   F8        1.0  0.11500  0.11000  0.80100  1.0000
  F   F9        1.0  0.69100  0.68600  0.80100  1.0000
  F   F10       1.0  0.67200  0.19900  0.87100  1.0000
  O   O1        1.0  0.69500  0.19500  0.50000  1.0000
  O   O2        1.0  0.30500  0.80500  0.50000  1.0000
  Sn  Sn1       1.0  0.50000  0.50000  0.00000  1.0000
  Sn  Sn2       1.0  0.28800  0.03050  0.31900  1.0000
  Sn  Sn3       1.0  0.00000  0.50000  0.50000  1.0000
  Sn  Sn4       1.0  0.71200  0.97000  0.68100  1.0000
