data_image0
_chemical_formula_structural       Cl2H4O4Tm2
_chemical_formula_sum              "Cl2 H4 O4 Tm2"
_cell_length_a       6.11762
_cell_length_b       3.52881
_cell_length_c       6.55135
_cell_angle_alpha    90
_cell_angle_beta     105.665
_cell_angle_gamma    90

_space_group_name_H-M_alt    "P 1"
_space_group_IT_number       1

loop_
  _space_group_symop_operation_xyz
  'x, y, z'

loop_
  _atom_site_type_symbol
  _atom_site_label
  _atom_site_symmetry_multiplicity
  _atom_site_fract_x
  _atom_site_fract_y
  _atom_site_fract_z
  _atom_site_occupancy
  Cl  Cl1       1.0  0.22900  0.75000  0.42700  1.0000
  Cl  Cl2       1.0  0.77100  0.25000  0.57300  1.0000
  H   H1        1.0  0.87200  0.25000  0.23400  1.0000
  H   H2        1.0  0.64600  0.75000  0.30600  1.0000
  H   H3        1.0  0.35400  0.25000  0.69400  1.0000
  H   H4        1.0  0.12800  0.75000  0.76600  1.0000
  O   O1        1.0  0.89500  0.25000  0.09200  1.0000
  O   O2        1.0  0.54800  0.75000  0.16100  1.0000
  O   O3        1.0  0.45200  0.25000  0.83900  1.0000
  O   O4        1.0  0.10500  0.75000  0.90800  1.0000
  Tm  Tm1       1.0  0.28300  0.25000  0.11100  1.0000
  Tm  Tm2       1.0  0.71700  0.75000  0.88900  1.0000
