data_image0
_chemical_formula_structural       H8Nd8O8
_chemical_formula_sum              "H8 Nd8 O8"
_cell_length_a       7.85573
_cell_length_b       7.85573
_cell_length_c       5.54293
_cell_angle_alpha    90
_cell_angle_beta     90
_cell_angle_gamma    90

_space_group_name_H-M_alt    "P 1"
_space_group_IT_number       1

loop_
  _space_group_symop_operation_xyz
  'x, y, z'

loop_
  _atom_site_type_symbol
  _atom_site_label
  _atom_site_symmetry_multiplicity
  _atom_site_fract_x
  _atom_site_fract_y
  _atom_site_fract_z
  _atom_site_occupancy
  H   H1        1.0  0.25000  0.02080  0.25000  1.0000
  H   H2        1.0  0.02080  0.25000  0.25000  1.0000
  H   H3        1.0  0.47900  0.25000  0.25000  1.0000
  H   H4        1.0  0.25000  0.47900  0.25000  1.0000
  H   H5        1.0  0.75000  0.97900  0.75000  1.0000
  H   H6        1.0  0.75000  0.52100  0.75000  1.0000
  H   H7        1.0  0.97900  0.75000  0.75000  1.0000
  H   H8        1.0  0.52100  0.75000  0.75000  1.0000
  Nd  Nd1       1.0  0.75000  0.25000  0.00000  1.0000
  Nd  Nd2       1.0  0.25000  0.75000  0.00000  1.0000
  Nd  Nd3       1.0  0.75000  0.75000  0.04980  1.0000
  Nd  Nd4       1.0  0.00000  0.00000  0.50000  1.0000
  Nd  Nd5       1.0  0.50000  0.00000  0.50000  1.0000
  Nd  Nd6       1.0  0.00000  0.50000  0.50000  1.0000
  Nd  Nd7       1.0  0.50000  0.50000  0.50000  1.0000
  Nd  Nd8       1.0  0.25000  0.25000  0.95000  1.0000
  O   O1        1.0  0.75000  0.01460  0.25500  1.0000
  O   O2        1.0  0.75000  0.48500  0.25500  1.0000
  O   O3        1.0  0.01460  0.75000  0.25500  1.0000
  O   O4        1.0  0.48500  0.75000  0.25500  1.0000
  O   O5        1.0  0.51500  0.25000  0.74500  1.0000
  O   O6        1.0  0.98500  0.25000  0.74500  1.0000
  O   O7        1.0  0.25000  0.51500  0.74500  1.0000
  O   O8        1.0  0.25000  0.98500  0.74500  1.0000
