data_image0
_chemical_formula_structural       Ag2Br10Pb4
_chemical_formula_sum              "Ag2 Br10 Pb4"
_cell_length_a       7.18899
_cell_length_b       8.06155
_cell_length_c       9.12101
_cell_angle_alpha    95.3069
_cell_angle_beta     113.209
_cell_angle_gamma    90

_space_group_name_H-M_alt    "P 1"
_space_group_IT_number       1

loop_
  _space_group_symop_operation_xyz
  'x, y, z'

loop_
  _atom_site_type_symbol
  _atom_site_label
  _atom_site_symmetry_multiplicity
  _atom_site_fract_x
  _atom_site_fract_y
  _atom_site_fract_z
  _atom_site_occupancy
  Ag  Ag1       1.0  0.50000  0.50000  0.50000  1.0000
  Ag  Ag2       1.0  0.00000  0.00000  0.50000  1.0000
  Br  Br1       1.0  0.93000  0.25000  1.00000  1.0000
  Br  Br2       1.0  0.07000  0.75000  0.00000  1.0000
  Br  Br3       1.0  0.70500  0.92100  0.17500  1.0000
  Br  Br4       1.0  0.47000  0.42100  0.17500  1.0000
  Br  Br5       1.0  0.30700  0.82200  0.44400  1.0000
  Br  Br6       1.0  0.13700  0.32200  0.44400  1.0000
  Br  Br7       1.0  0.69300  0.17800  0.55600  1.0000
  Br  Br8       1.0  0.86300  0.67800  0.55600  1.0000
  Br  Br9       1.0  0.53000  0.57900  0.82500  1.0000
  Br  Br10      1.0  0.29500  0.07850  0.82500  1.0000
  Pb  Pb1       1.0  0.86900  0.56300  0.20700  1.0000
  Pb  Pb2       1.0  0.33800  0.06280  0.20700  1.0000
  Pb  Pb3       1.0  0.13100  0.43700  0.79300  1.0000
  Pb  Pb4       1.0  0.66200  0.93700  0.79300  1.0000
