data_image0
_chemical_formula_structural       H12Li3O10V
_chemical_formula_sum              "H12 Li3 O10 V1"
_cell_length_a       6.17689
_cell_length_b       6.17689
_cell_length_c       6.17689
_cell_angle_alpha    100.398
_cell_angle_beta     100.398
_cell_angle_gamma    100.398

_space_group_name_H-M_alt    "P 1"
_space_group_IT_number       1

loop_
  _space_group_symop_operation_xyz
  'x, y, z'

loop_
  _atom_site_type_symbol
  _atom_site_label
  _atom_site_symmetry_multiplicity
  _atom_site_fract_x
  _atom_site_fract_y
  _atom_site_fract_z
  _atom_site_occupancy
  H   H1        1.0  0.20100  0.04950  0.90100  1.0000
  H   H2        1.0  0.90100  0.20100  0.04950  1.0000
  H   H3        1.0  0.47800  0.65700  0.05330  1.0000
  H   H4        1.0  0.69200  0.25100  0.15100  1.0000
  H   H5        1.0  0.04950  0.90100  0.20100  1.0000
  H   H6        1.0  0.15100  0.69200  0.25100  1.0000
  H   H7        1.0  0.56200  0.79100  0.43400  1.0000
  H   H8        1.0  0.65700  0.05330  0.47800  1.0000
  H   H9        1.0  0.79100  0.43400  0.56200  1.0000
  H   H10       1.0  0.05330  0.47800  0.65700  1.0000
  H   H11       1.0  0.25100  0.15100  0.69200  1.0000
  H   H12       1.0  0.43400  0.56200  0.79100  1.0000
  Li  Li1       1.0  0.96100  0.81300  0.55200  1.0000
  Li  Li2       1.0  0.55200  0.96100  0.81300  1.0000
  Li  Li3       1.0  0.81300  0.55200  0.96100  1.0000
  O   O1        1.0  0.74900  0.24000  0.00681  1.0000
  O   O2        1.0  0.13500  0.13500  0.13500  1.0000
  O   O3        1.0  0.00681  0.74900  0.24000  1.0000
  O   O4        1.0  0.37200  0.59500  0.25900  1.0000
  O   O5        1.0  0.59500  0.25900  0.37200  1.0000
  O   O6        1.0  0.67900  0.91800  0.54300  1.0000
  O   O7        1.0  0.25900  0.37200  0.59500  1.0000
  O   O8        1.0  0.91800  0.54300  0.67900  1.0000
  O   O9        1.0  0.24000  0.00681  0.74900  1.0000
  O   O10       1.0  0.54300  0.67900  0.91800  1.0000
  V   V1        1.0  0.33800  0.33800  0.33800  1.0000
