data_image0
_chemical_formula_structural       C4Cl8S4
_chemical_formula_sum              "C4 Cl8 S4"
_cell_length_a       6.61348
_cell_length_b       6.31443
_cell_length_c       9.97662
_cell_angle_alpha    90
_cell_angle_beta     100.171
_cell_angle_gamma    90

_space_group_name_H-M_alt    "P 1"
_space_group_IT_number       1

loop_
  _space_group_symop_operation_xyz
  'x, y, z'

loop_
  _atom_site_type_symbol
  _atom_site_label
  _atom_site_symmetry_multiplicity
  _atom_site_fract_x
  _atom_site_fract_y
  _atom_site_fract_z
  _atom_site_occupancy
  C   C1        1.0  0.66500  0.08060  0.04990  1.0000
  C   C2        1.0  0.33500  0.58100  0.45000  1.0000
  C   C3        1.0  0.66500  0.41900  0.55000  1.0000
  C   C4        1.0  0.33500  0.91900  0.95000  1.0000
  Cl  Cl1       1.0  0.74500  0.34500  0.02470  1.0000
  Cl  Cl2       1.0  0.86900  0.95200  0.16300  1.0000
  Cl  Cl3       1.0  0.13100  0.45200  0.33700  1.0000
  Cl  Cl4       1.0  0.25500  0.84500  0.47500  1.0000
  Cl  Cl5       1.0  0.74500  0.15500  0.52500  1.0000
  Cl  Cl6       1.0  0.86900  0.54800  0.66300  1.0000
  Cl  Cl7       1.0  0.13100  0.04790  0.83700  1.0000
  Cl  Cl8       1.0  0.25500  0.65500  0.97500  1.0000
  S   S1        1.0  0.41900  0.06450  0.10800  1.0000
  S   S2        1.0  0.58100  0.56500  0.39200  1.0000
  S   S3        1.0  0.41900  0.43500  0.60800  1.0000
  S   S4        1.0  0.58100  0.93500  0.89200  1.0000
