data_image0
_chemical_formula_structural       B12H12Rb2
_chemical_formula_sum              "B12 H12 Rb2"
_cell_length_a       7.54382
_cell_length_b       7.54382
_cell_length_c       7.54382
_cell_angle_alpha    120
_cell_angle_beta     90
_cell_angle_gamma    120

_space_group_name_H-M_alt    "P 1"
_space_group_IT_number       1

loop_
  _space_group_symop_operation_xyz
  'x, y, z'

loop_
  _atom_site_type_symbol
  _atom_site_label
  _atom_site_symmetry_multiplicity
  _atom_site_fract_x
  _atom_site_fract_y
  _atom_site_fract_z
  _atom_site_occupancy
  B   B1        1.0  0.78200  0.83400  0.05170  1.0000
  B   B2        1.0  0.21800  0.00000  0.05170  1.0000
  B   B3        1.0  0.05170  0.26900  0.05170  1.0000
  B   B4        1.0  0.94800  0.16600  0.21800  1.0000
  B   B5        1.0  0.05170  0.00000  0.21800  1.0000
  B   B6        1.0  0.21800  0.26900  0.21800  1.0000
  B   B7        1.0  0.78200  0.73100  0.78200  1.0000
  B   B8        1.0  0.05170  0.83400  0.78200  1.0000
  B   B9        1.0  0.94800  0.00000  0.78200  1.0000
  B   B10       1.0  0.21800  0.16600  0.94800  1.0000
  B   B11       1.0  0.94800  0.73100  0.94800  1.0000
  B   B12       1.0  0.78200  0.00000  0.94800  1.0000
  H   H1        1.0  0.37200  0.00000  0.09130  1.0000
  H   H2        1.0  0.09130  0.46400  0.09130  1.0000
  H   H3        1.0  0.62800  0.71900  0.09130  1.0000
  H   H4        1.0  0.90900  0.28100  0.37200  1.0000
  H   H5        1.0  0.09130  0.00000  0.37200  1.0000
  H   H6        1.0  0.37200  0.46400  0.37200  1.0000
  H   H7        1.0  0.62800  0.53600  0.62800  1.0000
  H   H8        1.0  0.09130  0.71900  0.62800  1.0000
  H   H9        1.0  0.90900  0.00000  0.62800  1.0000
  H   H10       1.0  0.90900  0.53600  0.90900  1.0000
  H   H11       1.0  0.37200  0.28100  0.90900  1.0000
  H   H12       1.0  0.62800  0.00000  0.90900  1.0000
  Rb  Rb1       1.0  0.75000  0.50000  0.25000  1.0000
  Rb  Rb2       1.0  0.25000  0.50000  0.75000  1.0000
