data_image0
_chemical_formula_structural       Fe10H14La2
_chemical_formula_sum              "Fe10 H14 La2"
_cell_length_a       5.46613
_cell_length_b       5.46613
_cell_length_c       8.15562
_cell_angle_alpha    90
_cell_angle_beta     90
_cell_angle_gamma    63.8561

_space_group_name_H-M_alt    "P 1"
_space_group_IT_number       1

loop_
  _space_group_symop_operation_xyz
  'x, y, z'

loop_
  _atom_site_type_symbol
  _atom_site_label
  _atom_site_symmetry_multiplicity
  _atom_site_fract_x
  _atom_site_fract_y
  _atom_site_fract_z
  _atom_site_occupancy
  Fe  Fe1       1.0  0.33800  0.35500  0.00000  1.0000
  Fe  Fe2       1.0  0.66200  0.64500  0.00000  1.0000
  Fe  Fe3       1.0  0.50000  0.00000  0.23300  1.0000
  Fe  Fe4       1.0  0.50000  0.50000  0.25000  1.0000
  Fe  Fe5       1.0  1.00000  0.50000  0.26700  1.0000
  Fe  Fe6       1.0  0.35500  0.33800  0.50000  1.0000
  Fe  Fe7       1.0  0.64500  0.66200  0.50000  1.0000
  Fe  Fe8       1.0  1.00000  0.50000  0.73300  1.0000
  Fe  Fe9       1.0  0.50000  0.50000  0.75000  1.0000
  Fe  Fe10      1.0  0.50000  0.00000  0.76700  1.0000
  H   H1        1.0  0.50000  0.00000  0.00000  1.0000
  H   H2        1.0  0.80100  0.40700  0.15100  1.0000
  H   H3        1.0  0.19900  0.59300  0.15100  1.0000
  H   H4        1.0  0.15600  0.15600  0.25000  1.0000
  H   H5        1.0  0.84400  0.84400  0.25000  1.0000
  H   H6        1.0  0.59300  0.19900  0.34900  1.0000
  H   H7        1.0  0.40700  0.80100  0.34900  1.0000
  H   H8        1.0  1.00000  0.50000  0.50000  1.0000
  H   H9        1.0  0.59300  0.19900  0.65100  1.0000
  H   H10       1.0  0.40700  0.80100  0.65100  1.0000
  H   H11       1.0  0.15600  0.15600  0.75000  1.0000
  H   H12       1.0  0.84400  0.84400  0.75000  1.0000
  H   H13       1.0  0.80100  0.40700  0.84900  1.0000
  H   H14       1.0  0.19900  0.59300  0.84900  1.0000
  La  La1       1.0  0.00000  0.00000  0.00000  1.0000
  La  La2       1.0  0.00000  0.00000  0.50000  1.0000
