data_image0
_chemical_formula_structural       H8NiO12Re2
_chemical_formula_sum              "H8 Ni1 O12 Re2"
_cell_length_a       6.4448
_cell_length_b       6.44212
_cell_length_c       6.84229
_cell_angle_alpha    66.8406
_cell_angle_beta     71.651
_cell_angle_gamma    73.0374

_space_group_name_H-M_alt    "P 1"
_space_group_IT_number       1

loop_
  _space_group_symop_operation_xyz
  'x, y, z'

loop_
  _atom_site_type_symbol
  _atom_site_label
  _atom_site_symmetry_multiplicity
  _atom_site_fract_x
  _atom_site_fract_y
  _atom_site_fract_z
  _atom_site_occupancy
  H   H1        1.0  0.73000  0.20900  0.07330  1.0000
  H   H2        1.0  0.61900  0.56600  0.26600  1.0000
  H   H3        1.0  0.70700  0.97700  0.28100  1.0000
  H   H4        1.0  0.38300  0.69200  0.36300  1.0000
  H   H5        1.0  0.61700  0.30800  0.63700  1.0000
  H   H6        1.0  0.29300  0.02280  0.71900  1.0000
  H   H7        1.0  0.38100  0.43400  0.73400  1.0000
  H   H8        1.0  0.27000  0.79100  0.92700  1.0000
  Ni  Ni1       1.0  0.50000  1.00000  0.00000  1.0000
  O   O1        1.0  0.12800  0.58000  0.09590  1.0000
  O   O2        1.0  0.63000  0.10000  0.17200  1.0000
  O   O3        1.0  0.18900  0.09300  0.18200  1.0000
  O   O4        1.0  0.48900  0.68500  0.22400  1.0000
  O   O5        1.0  0.79200  0.32400  0.39200  1.0000
  O   O6        1.0  0.80400  0.73900  0.48700  1.0000
  O   O7        1.0  0.19600  0.26100  0.51300  1.0000
  O   O8        1.0  0.20800  0.67600  0.60800  1.0000
  O   O9        1.0  0.51100  0.31500  0.77600  1.0000
  O   O10       1.0  0.81100  0.90700  0.81800  1.0000
  O   O11       1.0  0.37000  0.90000  0.82800  1.0000
  O   O12       1.0  0.87200  0.42000  0.90400  1.0000
  Re  Re1       1.0  0.08060  0.31700  0.29400  1.0000
  Re  Re2       1.0  0.91900  0.68300  0.70600  1.0000
