data_image0
_chemical_formula_structural       C6Ir10
_chemical_formula_sum              "C6 Ir10"
_cell_length_a       6.90497
_cell_length_b       10.6489
_cell_length_c       2.98042
_cell_angle_alpha    90
_cell_angle_beta     90
_cell_angle_gamma    90

_space_group_name_H-M_alt    "P 1"
_space_group_IT_number       1

loop_
  _space_group_symop_operation_xyz
  'x, y, z'

loop_
  _atom_site_type_symbol
  _atom_site_label
  _atom_site_symmetry_multiplicity
  _atom_site_fract_x
  _atom_site_fract_y
  _atom_site_fract_z
  _atom_site_occupancy
  C   C1        1.0  0.75200  0.25000  0.00000  1.0000
  C   C2        1.0  0.25200  0.25000  0.00000  1.0000
  C   C3        1.0  0.74800  0.75000  0.00000  1.0000
  C   C4        1.0  0.24800  0.75000  0.00000  1.0000
  C   C5        1.0  0.50000  0.00000  0.50000  1.0000
  C   C6        1.0  0.00000  0.50000  0.50000  1.0000
  Ir  Ir1       1.0  0.00000  0.00000  0.00000  1.0000
  Ir  Ir2       1.0  0.50000  0.50000  0.00000  1.0000
  Ir  Ir3       1.0  0.27900  0.12400  0.50000  1.0000
  Ir  Ir4       1.0  0.72200  0.12500  0.50000  1.0000
  Ir  Ir5       1.0  0.22200  0.37500  0.50000  1.0000
  Ir  Ir6       1.0  0.77900  0.37600  0.50000  1.0000
  Ir  Ir7       1.0  0.22100  0.62400  0.50000  1.0000
  Ir  Ir8       1.0  0.77800  0.62500  0.50000  1.0000
  Ir  Ir9       1.0  0.27800  0.87500  0.50000  1.0000
  Ir  Ir10      1.0  0.72100  0.87600  0.50000  1.0000
