data_image0
_chemical_formula_structural       B12H12Tl2
_chemical_formula_sum              "B12 H12 Tl2"
_cell_length_a       7.47668
_cell_length_b       7.47668
_cell_length_c       7.47668
_cell_angle_alpha    120
_cell_angle_beta     90
_cell_angle_gamma    120

_space_group_name_H-M_alt    "P 1"
_space_group_IT_number       1

loop_
  _space_group_symop_operation_xyz
  'x, y, z'

loop_
  _atom_site_type_symbol
  _atom_site_label
  _atom_site_symmetry_multiplicity
  _atom_site_fract_x
  _atom_site_fract_y
  _atom_site_fract_z
  _atom_site_occupancy
  B   B1        1.0  0.78000  0.00000  0.05280  1.0000
  B   B2        1.0  0.05280  0.83300  0.05280  1.0000
  B   B3        1.0  0.22000  0.27200  0.05280  1.0000
  B   B4        1.0  0.22000  0.16700  0.22000  1.0000
  B   B5        1.0  0.05280  0.27200  0.22000  1.0000
  B   B6        1.0  0.94700  0.00000  0.22000  1.0000
  B   B7        1.0  0.05280  0.00000  0.78000  1.0000
  B   B8        1.0  0.78000  0.83300  0.78000  1.0000
  B   B9        1.0  0.94700  0.72800  0.78000  1.0000
  B   B10       1.0  0.94700  0.16700  0.94700  1.0000
  B   B11       1.0  0.22000  0.00000  0.94700  1.0000
  B   B12       1.0  0.78000  0.72800  0.94700  1.0000
  H   H1        1.0  0.37600  0.46900  0.09300  1.0000
  H   H2        1.0  0.62400  0.00000  0.09300  1.0000
  H   H3        1.0  0.09300  0.71700  0.09300  1.0000
  H   H4        1.0  0.90700  0.00000  0.37600  1.0000
  H   H5        1.0  0.37600  0.28300  0.37600  1.0000
  H   H6        1.0  0.09300  0.46900  0.37600  1.0000
  H   H7        1.0  0.09300  1.00000  0.62400  1.0000
  H   H8        1.0  0.90700  0.53100  0.62400  1.0000
  H   H9        1.0  0.62400  0.71700  0.62400  1.0000
  H   H10       1.0  0.37600  1.00000  0.90700  1.0000
  H   H11       1.0  0.90700  0.28300  0.90700  1.0000
  H   H12       1.0  0.62400  0.53100  0.90700  1.0000
  Tl  Tl1       1.0  0.75000  0.50000  0.25000  1.0000
  Tl  Tl2       1.0  0.25000  0.50000  0.75000  1.0000
