data_image0
_chemical_formula_structural       Cs2H12Li4N6
_chemical_formula_sum              "Cs2 H12 Li4 N6"
_cell_length_a       5.62283
_cell_length_b       7.55017
_cell_length_c       7.55017
_cell_angle_alpha    112.598
_cell_angle_beta     90
_cell_angle_gamma    90

_space_group_name_H-M_alt    "P 1"
_space_group_IT_number       1

loop_
  _space_group_symop_operation_xyz
  'x, y, z'

loop_
  _atom_site_type_symbol
  _atom_site_label
  _atom_site_symmetry_multiplicity
  _atom_site_fract_x
  _atom_site_fract_y
  _atom_site_fract_z
  _atom_site_occupancy
  Cs  Cs1       1.0  0.75000  0.67600  0.32400  1.0000
  Cs  Cs2       1.0  0.25000  0.32400  0.67600  1.0000
  H   H1        1.0  0.25000  0.55200  0.07270  1.0000
  H   H2        1.0  0.25000  0.65700  0.08540  1.0000
  H   H3        1.0  0.25000  0.91500  0.34300  1.0000
  H   H4        1.0  0.25000  0.52600  0.38200  1.0000
  H   H5        1.0  0.25000  0.92700  0.44800  1.0000
  H   H6        1.0  0.25000  0.61800  0.47400  1.0000
  H   H7        1.0  0.75000  0.38200  0.52600  1.0000
  H   H8        1.0  0.75000  0.07270  0.55200  1.0000
  H   H9        1.0  0.75000  0.47400  0.61800  1.0000
  H   H10       1.0  0.75000  0.08540  0.65700  1.0000
  H   H11       1.0  0.75000  0.34300  0.91500  1.0000
  H   H12       1.0  0.75000  0.44800  0.92700  1.0000
  Li  Li1       1.0  0.00000  0.16000  0.16000  1.0000
  Li  Li2       1.0  0.50000  0.16000  0.16000  1.0000
  Li  Li3       1.0  0.00000  0.84000  0.84000  1.0000
  Li  Li4       1.0  0.50000  0.84000  0.84000  1.0000
  N   N1        1.0  0.25000  0.25000  0.03350  1.0000
  N   N2        1.0  0.75000  0.94000  0.05980  1.0000
  N   N3        1.0  0.75000  0.03350  0.25000  1.0000
  N   N4        1.0  0.25000  0.96700  0.75000  1.0000
  N   N5        1.0  0.25000  0.05980  0.94000  1.0000
  N   N6        1.0  0.75000  0.75000  0.96700  1.0000
