data_image0
_chemical_formula_structural       Cu2H12O10Sr2
_chemical_formula_sum              "Cu2 H12 O10 Sr2"
_cell_length_a       5.30958
_cell_length_b       6.18298
_cell_length_c       7.77629
_cell_angle_alpha    90
_cell_angle_beta     107.997
_cell_angle_gamma    90

_space_group_name_H-M_alt    "P 1"
_space_group_IT_number       1

loop_
  _space_group_symop_operation_xyz
  'x, y, z'

loop_
  _atom_site_type_symbol
  _atom_site_label
  _atom_site_symmetry_multiplicity
  _atom_site_fract_x
  _atom_site_fract_y
  _atom_site_fract_z
  _atom_site_occupancy
  Cu  Cu1       1.0  0.00000  0.00000  0.00000  1.0000
  Cu  Cu2       1.0  0.00000  0.00000  0.50000  1.0000
  H   H1        1.0  0.35100  0.74000  0.02940  1.0000
  H   H2        1.0  0.62700  0.95300  0.11000  1.0000
  H   H3        1.0  0.43400  0.29500  0.14300  1.0000
  H   H4        1.0  0.56600  0.29500  0.35700  1.0000
  H   H5        1.0  0.37300  0.95300  0.39000  1.0000
  H   H6        1.0  0.64900  0.74000  0.47100  1.0000
  H   H7        1.0  0.35100  0.26000  0.52900  1.0000
  H   H8        1.0  0.62700  0.04680  0.61000  1.0000
  H   H9        1.0  0.43400  0.70500  0.64300  1.0000
  H   H10       1.0  0.56600  0.70500  0.85700  1.0000
  H   H11       1.0  0.37300  0.04680  0.89000  1.0000
  H   H12       1.0  0.64900  0.26000  0.97100  1.0000
  O   O1        1.0  0.84100  0.27700  0.99700  1.0000
  O   O2        1.0  0.15900  0.72300  0.00278  1.0000
  O   O3        1.0  0.70900  0.84300  0.05540  1.0000
  O   O4        1.0  0.50000  0.39200  0.25000  1.0000
  O   O5        1.0  0.29100  0.84300  0.44500  1.0000
  O   O6        1.0  0.84100  0.72300  0.49700  1.0000
  O   O7        1.0  0.15900  0.27700  0.50300  1.0000
  O   O8        1.0  0.70900  0.15700  0.55500  1.0000
  O   O9        1.0  0.50000  0.60800  0.75000  1.0000
  O   O10       1.0  0.29100  0.15700  0.94500  1.0000
  Sr  Sr1       1.0  0.00000  0.54700  0.25000  1.0000
  Sr  Sr2       1.0  0.00000  0.45300  0.75000  1.0000
