data_image0
_chemical_formula_structural       B6Cs2H16
_chemical_formula_sum              "B6 Cs2 H16"
_cell_length_a       5.58369
_cell_length_b       5.58369
_cell_length_c       8.65992
_cell_angle_alpha    90
_cell_angle_beta     90
_cell_angle_gamma    81.1978

_space_group_name_H-M_alt    "P 1"
_space_group_IT_number       1

loop_
  _space_group_symop_operation_xyz
  'x, y, z'

loop_
  _atom_site_type_symbol
  _atom_site_label
  _atom_site_symmetry_multiplicity
  _atom_site_fract_x
  _atom_site_fract_y
  _atom_site_fract_z
  _atom_site_occupancy
  B   B1        1.0  0.22500  0.21800  0.14700  1.0000
  B   B2        1.0  0.40200  0.40000  0.25000  1.0000
  B   B3        1.0  0.22500  0.21800  0.35300  1.0000
  B   B4        1.0  0.78200  0.77500  0.64700  1.0000
  B   B5        1.0  0.60000  0.59800  0.75000  1.0000
  B   B6        1.0  0.78200  0.77500  0.85300  1.0000
  Cs  Cs1       1.0  0.82400  0.82200  0.25000  1.0000
  Cs  Cs2       1.0  0.17800  0.17600  0.75000  1.0000
  H   H1        1.0  0.35700  0.35700  0.08540  1.0000
  H   H2        1.0  0.30900  0.01910  0.09790  1.0000
  H   H3        1.0  0.02370  0.29700  0.09830  1.0000
  H   H4        1.0  0.62000  0.34100  0.25000  1.0000
  H   H5        1.0  0.33900  0.61800  0.25000  1.0000
  H   H6        1.0  0.02370  0.29700  0.40200  1.0000
  H   H7        1.0  0.30900  0.01910  0.40200  1.0000
  H   H8        1.0  0.35700  0.35700  0.41500  1.0000
  H   H9        1.0  0.64300  0.64300  0.58500  1.0000
  H   H10       1.0  0.98100  0.69100  0.59800  1.0000
  H   H11       1.0  0.70300  0.97600  0.59800  1.0000
  H   H12       1.0  0.65900  0.38000  0.75000  1.0000
  H   H13       1.0  0.38200  0.66100  0.75000  1.0000
  H   H14       1.0  0.70300  0.97600  0.90200  1.0000
  H   H15       1.0  0.98100  0.69100  0.90200  1.0000
  H   H16       1.0  0.64300  0.64300  0.91500  1.0000
