data_image0
_chemical_formula_structural       Br2Fe2N6O6
_chemical_formula_sum              "Br2 Fe2 N6 O6"
_cell_length_a       7.04302
_cell_length_b       7.04294
_cell_length_c       6.02933
_cell_angle_alpha    90
_cell_angle_beta     90
_cell_angle_gamma    120

_space_group_name_H-M_alt    "P 1"
_space_group_IT_number       1

loop_
  _space_group_symop_operation_xyz
  'x, y, z'

loop_
  _atom_site_type_symbol
  _atom_site_label
  _atom_site_symmetry_multiplicity
  _atom_site_fract_x
  _atom_site_fract_y
  _atom_site_fract_z
  _atom_site_occupancy
  Br  Br1       1.0  0.33300  0.66700  0.13300  1.0000
  Br  Br2       1.0  0.66700  0.33300  0.63300  1.0000
  Fe  Fe1       1.0  0.66700  0.33300  0.02630  1.0000
  Fe  Fe2       1.0  0.33300  0.66700  0.52600  1.0000
  N   N1        1.0  0.40400  0.20200  0.12700  1.0000
  N   N2        1.0  0.79800  0.20200  0.12700  1.0000
  N   N3        1.0  0.79800  0.59600  0.12700  1.0000
  N   N4        1.0  0.20200  0.79800  0.62700  1.0000
  N   N5        1.0  0.59600  0.79800  0.62700  1.0000
  N   N6        1.0  0.20200  0.40400  0.62700  1.0000
  O   O1        1.0  0.87000  0.74000  0.25600  1.0000
  O   O2        1.0  0.26000  0.13000  0.25600  1.0000
  O   O3        1.0  0.87000  0.13000  0.25600  1.0000
  O   O4        1.0  0.13000  0.26000  0.75600  1.0000
  O   O5        1.0  0.13000  0.87000  0.75600  1.0000
  O   O6        1.0  0.74000  0.87000  0.75600  1.0000
