data_image0
_chemical_formula_structural       H4Na6O12Os2
_chemical_formula_sum              "H4 Na6 O12 Os2"
_cell_length_a       5.691
_cell_length_b       9.08525
_cell_length_c       5.87631
_cell_angle_alpha    90
_cell_angle_beta     117.815
_cell_angle_gamma    90

_space_group_name_H-M_alt    "P 1"
_space_group_IT_number       1

loop_
  _space_group_symop_operation_xyz
  'x, y, z'

loop_
  _atom_site_type_symbol
  _atom_site_label
  _atom_site_symmetry_multiplicity
  _atom_site_fract_x
  _atom_site_fract_y
  _atom_site_fract_z
  _atom_site_occupancy
  H   H1        1.0  0.99200  0.02360  0.25300  1.0000
  H   H2        1.0  0.99200  0.47600  0.25300  1.0000
  H   H3        1.0  0.00839  0.52400  0.74700  1.0000
  H   H4        1.0  0.00839  0.97600  0.74700  1.0000
  Na  Na1       1.0  0.97900  0.75000  0.01650  1.0000
  Na  Na2       1.0  0.54100  0.57100  0.24800  1.0000
  Na  Na3       1.0  0.54100  0.92900  0.24800  1.0000
  Na  Na4       1.0  0.45900  0.07130  0.75200  1.0000
  Na  Na5       1.0  0.45900  0.42900  0.75200  1.0000
  Na  Na6       1.0  0.02120  0.25000  0.98300  1.0000
  O   O1        1.0  0.46100  0.25000  0.11200  1.0000
  O   O2        1.0  0.82600  0.07980  0.14800  1.0000
  O   O3        1.0  0.82600  0.42000  0.14800  1.0000
  O   O4        1.0  0.24900  0.60500  0.41800  1.0000
  O   O5        1.0  0.24900  0.89500  0.41800  1.0000
  O   O6        1.0  0.85600  0.75000  0.47900  1.0000
  O   O7        1.0  0.14400  0.25000  0.52100  1.0000
  O   O8        1.0  0.75100  0.10500  0.58200  1.0000
  O   O9        1.0  0.75100  0.39500  0.58200  1.0000
  O   O10       1.0  0.17400  0.58000  0.85200  1.0000
  O   O11       1.0  0.17400  0.92000  0.85200  1.0000
  O   O12       1.0  0.53900  0.75000  0.88800  1.0000
  Os  Os1       1.0  0.78900  0.25000  0.38200  1.0000
  Os  Os2       1.0  0.21100  0.75000  0.61800  1.0000
