data_image0
_chemical_formula_structural       H6Na2O12Se4
_chemical_formula_sum              "H6 Na2 O12 Se4"
_cell_length_a       10.1369
_cell_length_b       5.41815
_cell_length_c       4.67091
_cell_angle_alpha    90
_cell_angle_beta     92.8904
_cell_angle_gamma    90

_space_group_name_H-M_alt    "P 1"
_space_group_IT_number       1

loop_
  _space_group_symop_operation_xyz
  'x, y, z'

loop_
  _atom_site_type_symbol
  _atom_site_label
  _atom_site_symmetry_multiplicity
  _atom_site_fract_x
  _atom_site_fract_y
  _atom_site_fract_z
  _atom_site_occupancy
  H   H1        1.0  0.00000  0.50000  0.00000  1.0000
  H   H2        1.0  0.31300  0.47100  0.09560  1.0000
  H   H3        1.0  0.18700  0.97100  0.40400  1.0000
  H   H4        1.0  0.50000  0.00000  0.50000  1.0000
  H   H5        1.0  0.81300  0.02880  0.59600  1.0000
  H   H6        1.0  0.68700  0.52900  0.90400  1.0000
  Na  Na1       1.0  0.00000  0.00000  0.00000  1.0000
  Na  Na2       1.0  0.50000  0.50000  0.50000  1.0000
  O   O1        1.0  0.65300  0.35500  0.13600  1.0000
  O   O2        1.0  0.03140  0.37700  0.20900  1.0000
  O   O3        1.0  0.19700  0.85000  0.23100  1.0000
  O   O4        1.0  0.30300  0.35000  0.26900  1.0000
  O   O5        1.0  0.46900  0.87700  0.29100  1.0000
  O   O6        1.0  0.84700  0.85500  0.36400  1.0000
  O   O7        1.0  0.15300  0.14500  0.63600  1.0000
  O   O8        1.0  0.53100  0.12300  0.70900  1.0000
  O   O9        1.0  0.69700  0.65000  0.73100  1.0000
  O   O10       1.0  0.80300  0.15000  0.76900  1.0000
  O   O11       1.0  0.96900  0.62300  0.79100  1.0000
  O   O12       1.0  0.34700  0.64500  0.86400  1.0000
  Se  Se1       1.0  0.34000  0.92600  0.02700  1.0000
  Se  Se2       1.0  0.16000  0.42600  0.47300  1.0000
  Se  Se3       1.0  0.84000  0.57400  0.52700  1.0000
  Se  Se4       1.0  0.66000  0.07380  0.97300  1.0000
