data_image0
_chemical_formula_structural       H12N3NbO8
_chemical_formula_sum              "H12 N3 Nb1 O8"
_cell_length_a       6.22652
_cell_length_b       6.22652
_cell_length_c       6.22652
_cell_angle_alpha    112.579
_cell_angle_beta     112.579
_cell_angle_gamma    103.42

_space_group_name_H-M_alt    "P 1"
_space_group_IT_number       1

loop_
  _space_group_symop_operation_xyz
  'x, y, z'

loop_
  _atom_site_type_symbol
  _atom_site_label
  _atom_site_symmetry_multiplicity
  _atom_site_fract_x
  _atom_site_fract_y
  _atom_site_fract_z
  _atom_site_occupancy
  H   H1        1.0  0.33900  0.51700  0.00000  1.0000
  H   H2        1.0  0.51700  0.33900  0.00000  1.0000
  H   H3        1.0  0.66100  0.66100  0.17800  1.0000
  H   H4        1.0  0.12200  0.56300  0.33700  1.0000
  H   H5        1.0  0.56300  0.12200  0.33700  1.0000
  H   H6        1.0  0.21400  0.87800  0.44100  1.0000
  H   H7        1.0  0.87800  0.21400  0.44100  1.0000
  H   H8        1.0  0.77400  0.43700  0.55900  1.0000
  H   H9        1.0  0.43700  0.77400  0.55900  1.0000
  H   H10       1.0  0.22600  0.78600  0.66300  1.0000
  H   H11       1.0  0.78600  0.22600  0.66300  1.0000
  H   H12       1.0  0.48300  0.48300  0.82200  1.0000
  N   N1        1.0  0.50000  0.50000  0.00000  1.0000
  N   N2        1.0  0.25000  0.75000  0.50000  1.0000
  N   N3        1.0  0.75000  0.25000  0.50000  1.0000
  Nb  Nb1       1.0  0.00000  0.00000  0.00000  1.0000
  O   O1        1.0  0.19600  0.77000  0.00000  1.0000
  O   O2        1.0  0.66800  0.95200  0.00000  1.0000
  O   O3        1.0  0.95200  0.66800  0.00000  1.0000
  O   O4        1.0  0.77000  0.19600  0.00000  1.0000
  O   O5        1.0  0.33200  0.33200  0.28400  1.0000
  O   O6        1.0  0.23000  0.23000  0.42600  1.0000
  O   O7        1.0  0.80400  0.80400  0.57400  1.0000
  O   O8        1.0  0.04760  0.04760  0.71600  1.0000
