data_image0
_chemical_formula_structural       Cr3H6KO14S2
_chemical_formula_sum              "Cr3 H6 K1 O14 S2"
_cell_length_a       6.98513
_cell_length_b       6.98513
_cell_length_c       6.98513
_cell_angle_alpha    117.76
_cell_angle_beta     62.2404
_cell_angle_gamma    117.76

_space_group_name_H-M_alt    "P 1"
_space_group_IT_number       1

loop_
  _space_group_symop_operation_xyz
  'x, y, z'

loop_
  _atom_site_type_symbol
  _atom_site_label
  _atom_site_symmetry_multiplicity
  _atom_site_fract_x
  _atom_site_fract_y
  _atom_site_fract_z
  _atom_site_occupancy
  Cr  Cr1       1.0  0.50000  1.00000  1.00000  1.0000
  Cr  Cr2       1.0  0.00000  0.50000  0.00000  1.0000
  Cr  Cr3       1.0  1.00000  0.00000  0.50000  1.0000
  H   H1        1.0  0.68800  0.31200  0.29300  1.0000
  H   H2        1.0  0.31200  0.29300  0.31200  1.0000
  H   H3        1.0  0.70700  0.68800  0.31200  1.0000
  H   H4        1.0  0.29300  0.31200  0.68800  1.0000
  H   H5        1.0  0.68800  0.70700  0.68800  1.0000
  H   H6        1.0  0.31200  0.68800  0.70700  1.0000
  K   K1        1.0  0.00000  0.00000  0.00000  1.0000
  O   O1        1.0  0.73700  0.26300  0.12500  1.0000
  O   O2        1.0  0.16800  0.49300  0.16800  1.0000
  O   O3        1.0  0.50700  0.83200  0.16800  1.0000
  O   O4        1.0  0.26300  0.12500  0.26300  1.0000
  O   O5        1.0  0.87500  0.73700  0.26300  1.0000
  O   O6        1.0  0.39700  0.60300  0.39700  1.0000
  O   O7        1.0  0.83200  0.16800  0.49300  1.0000
  O   O8        1.0  0.16800  0.83200  0.50700  1.0000
  O   O9        1.0  0.60300  0.39700  0.60300  1.0000
  O   O10       1.0  0.12500  0.26300  0.73700  1.0000
  O   O11       1.0  0.73700  0.87500  0.73700  1.0000
  O   O12       1.0  0.49300  0.16800  0.83200  1.0000
  O   O13       1.0  0.83200  0.50700  0.83200  1.0000
  O   O14       1.0  0.26300  0.73700  0.87500  1.0000
  S   S1        1.0  0.31000  0.69000  0.31000  1.0000
  S   S2        1.0  0.69000  0.31000  0.69000  1.0000
