data_image0
_chemical_formula_structural       Cu2H4Na2O13Si4
_chemical_formula_sum              "Cu2 H4 Na2 O13 Si4"
_cell_length_a       5.19483
_cell_length_b       6.3607
_cell_length_c       8.52256
_cell_angle_alpha    101.444
_cell_angle_beta     94.4863
_cell_angle_gamma    103.028

_space_group_name_H-M_alt    "P 1"
_space_group_IT_number       1

loop_
  _space_group_symop_operation_xyz
  'x, y, z'

loop_
  _atom_site_type_symbol
  _atom_site_label
  _atom_site_symmetry_multiplicity
  _atom_site_fract_x
  _atom_site_fract_y
  _atom_site_fract_z
  _atom_site_occupancy
  Cu  Cu1       1.0  0.78900  0.11500  0.07050  1.0000
  Cu  Cu2       1.0  0.21100  0.88500  0.92900  1.0000
  H   H1        1.0  0.91100  0.30300  0.41200  1.0000
  H   H2        1.0  0.84500  0.74700  0.49800  1.0000
  H   H3        1.0  0.15500  0.25300  0.50200  1.0000
  H   H4        1.0  0.08860  0.69700  0.58800  1.0000
  Na  Na1       1.0  0.35200  0.35800  0.20200  1.0000
  Na  Na2       1.0  0.64800  0.64200  0.79800  1.0000
  O   O1        1.0  0.90100  0.83600  0.04630  1.0000
  O   O2        1.0  0.75200  0.40800  0.07490  1.0000
  O   O3        1.0  0.50500  0.04650  0.19500  1.0000
  O   O4        1.0  0.17800  0.69300  0.27300  1.0000
  O   O5        1.0  0.68900  0.72500  0.30400  1.0000
  O   O6        1.0  0.08070  0.26700  0.39500  1.0000
  O   O7        1.0  0.50000  0.00000  0.50000  1.0000
  O   O8        1.0  0.91900  0.73300  0.60500  1.0000
  O   O9        1.0  0.31100  0.27500  0.69600  1.0000
  O   O10       1.0  0.82200  0.30700  0.72700  1.0000
  O   O11       1.0  0.49500  0.95300  0.80500  1.0000
  O   O12       1.0  0.24800  0.59200  0.92500  1.0000
  O   O13       1.0  0.09920  0.16400  0.95400  1.0000
  Si  Si1       1.0  0.88700  0.65900  0.16500  1.0000
  Si  Si2       1.0  0.46800  0.87700  0.31200  1.0000
  Si  Si3       1.0  0.53200  0.12300  0.68800  1.0000
  Si  Si4       1.0  0.11300  0.34100  0.83500  1.0000
