data_image0
_chemical_formula_structural       Cs4F8O2Te2
_chemical_formula_sum              "Cs4 F8 O2 Te2"
_cell_length_a       6.57234
_cell_length_b       7.03898
_cell_length_c       7.67851
_cell_angle_alpha    90
_cell_angle_beta     64.6612
_cell_angle_gamma    90

_space_group_name_H-M_alt    "P 1"
_space_group_IT_number       1

loop_
  _space_group_symop_operation_xyz
  'x, y, z'

loop_
  _atom_site_type_symbol
  _atom_site_label
  _atom_site_symmetry_multiplicity
  _atom_site_fract_x
  _atom_site_fract_y
  _atom_site_fract_z
  _atom_site_occupancy
  Cs  Cs1       1.0  0.44400  0.75000  0.11100  1.0000
  Cs  Cs2       1.0  0.75900  0.75000  0.48100  1.0000
  Cs  Cs3       1.0  0.24100  0.25000  0.51900  1.0000
  Cs  Cs4       1.0  0.55600  0.25000  0.88900  1.0000
  F   F1        1.0  0.12000  0.04350  0.21600  1.0000
  F   F2        1.0  0.66400  0.04350  0.21600  1.0000
  F   F3        1.0  0.12000  0.45600  0.21600  1.0000
  F   F4        1.0  0.66400  0.45600  0.21600  1.0000
  F   F5        1.0  0.33600  0.54400  0.78400  1.0000
  F   F6        1.0  0.88000  0.54400  0.78400  1.0000
  F   F7        1.0  0.33600  0.95600  0.78400  1.0000
  F   F8        1.0  0.88000  0.95600  0.78400  1.0000
  O   O1        1.0  0.76500  0.25000  0.46900  1.0000
  O   O2        1.0  0.23500  0.75000  0.53100  1.0000
  Te  Te1       1.0  0.89600  0.25000  0.20800  1.0000
  Te  Te2       1.0  0.10400  0.75000  0.79200  1.0000
