data_image0
_chemical_formula_structural       Ag4K2Se8Ta2
_chemical_formula_sum              "Ag4 K2 Se8 Ta2"
_cell_length_a       6.13089
_cell_length_b       8.16299
_cell_length_c       10.3162
_cell_angle_alpha    90
_cell_angle_beta     72.7136
_cell_angle_gamma    90

_space_group_name_H-M_alt    "P 1"
_space_group_IT_number       1

loop_
  _space_group_symop_operation_xyz
  'x, y, z'

loop_
  _atom_site_type_symbol
  _atom_site_label
  _atom_site_symmetry_multiplicity
  _atom_site_fract_x
  _atom_site_fract_y
  _atom_site_fract_z
  _atom_site_occupancy
  Ag  Ag1       1.0  0.63400  0.00000  0.00000  1.0000
  Ag  Ag2       1.0  0.63400  0.50000  0.00000  1.0000
  Ag  Ag3       1.0  0.96800  0.75000  0.23900  1.0000
  Ag  Ag4       1.0  0.20800  0.25000  0.76100  1.0000
  K   K1        1.0  0.18200  0.25000  0.36900  1.0000
  K   K2        1.0  0.55100  0.75000  0.63100  1.0000
  Se  Se1       1.0  0.34100  0.75000  0.02580  1.0000
  Se  Se2       1.0  0.69000  0.00003  0.24400  1.0000
  Se  Se3       1.0  0.69000  0.50000  0.24400  1.0000
  Se  Se4       1.0  0.15600  0.75000  0.43900  1.0000
  Se  Se5       1.0  0.59400  0.25000  0.56100  1.0000
  Se  Se6       1.0  0.93300  0.50000  0.75600  1.0000
  Se  Se7       1.0  0.93300  0.00000  0.75600  1.0000
  Se  Se8       1.0  0.36700  0.25000  0.97400  1.0000
  Ta  Ta1       1.0  0.47200  0.75000  0.23200  1.0000
  Ta  Ta2       1.0  0.70300  0.25000  0.76800  1.0000
