data_image0
_chemical_formula_structural       H4K2MnO10Se2
_chemical_formula_sum              "H4 K2 Mn1 O10 Se2"
_cell_length_a       6.08948
_cell_length_b       6.76584
_cell_length_c       7.88257
_cell_angle_alpha    118.469
_cell_angle_beta     98.4453
_cell_angle_gamma    99.951

_space_group_name_H-M_alt    "P 1"
_space_group_IT_number       1

loop_
  _space_group_symop_operation_xyz
  'x, y, z'

loop_
  _atom_site_type_symbol
  _atom_site_label
  _atom_site_symmetry_multiplicity
  _atom_site_fract_x
  _atom_site_fract_y
  _atom_site_fract_z
  _atom_site_occupancy
  H   H1        1.0  0.41700  0.92100  0.23800  1.0000
  H   H2        1.0  0.62200  0.66800  0.47400  1.0000
  H   H3        1.0  0.37800  0.33200  0.52600  1.0000
  H   H4        1.0  0.58300  0.07920  0.76200  1.0000
  K   K1        1.0  0.10900  0.62700  0.29200  1.0000
  K   K2        1.0  0.89100  0.37300  0.70800  1.0000
  Mn  Mn1       1.0  0.00000  0.00000  0.00000  1.0000
  O   O1        1.0  0.11100  0.76600  0.04750  1.0000
  O   O2        1.0  0.35400  0.77100  0.10200  1.0000
  O   O3        1.0  0.30900  0.27400  0.14200  1.0000
  O   O4        1.0  0.72900  0.56800  0.39700  1.0000
  O   O5        1.0  0.51900  0.19400  0.41400  1.0000
  O   O6        1.0  0.48100  0.80600  0.58600  1.0000
  O   O7        1.0  0.27100  0.43200  0.60300  1.0000
  O   O8        1.0  0.69100  0.72600  0.85800  1.0000
  O   O9        1.0  0.64600  0.22900  0.89800  1.0000
  O   O10       1.0  0.88900  0.23400  0.95300  1.0000
  Se  Se1       1.0  0.57300  0.26500  0.23600  1.0000
  Se  Se2       1.0  0.42700  0.73500  0.76400  1.0000
