data_image0
_chemical_formula_structural       H4O16Se4Zn2
_chemical_formula_sum              "H4 O16 Se4 Zn2"
_cell_length_a       4.99543
_cell_length_b       8.65535
_cell_length_c       7.12636
_cell_angle_alpha    90
_cell_angle_beta     98.0837
_cell_angle_gamma    90

_space_group_name_H-M_alt    "P 1"
_space_group_IT_number       1

loop_
  _space_group_symop_operation_xyz
  'x, y, z'

loop_
  _atom_site_type_symbol
  _atom_site_label
  _atom_site_symmetry_multiplicity
  _atom_site_fract_x
  _atom_site_fract_y
  _atom_site_fract_z
  _atom_site_occupancy
  H   H1        1.0  0.71700  0.49000  0.13600  1.0000
  H   H2        1.0  0.78300  0.99000  0.36400  1.0000
  H   H3        1.0  0.21700  0.01010  0.63600  1.0000
  H   H4        1.0  0.28300  0.51000  0.86400  1.0000
  O   O1        1.0  0.67400  0.14300  0.02200  1.0000
  O   O2        1.0  0.78900  0.59000  0.08670  1.0000
  O   O3        1.0  0.21800  0.14200  0.20200  1.0000
  O   O4        1.0  0.90000  0.87000  0.22900  1.0000
  O   O5        1.0  0.60000  0.37000  0.27100  1.0000
  O   O6        1.0  0.28200  0.64200  0.29800  1.0000
  O   O7        1.0  0.71100  0.09050  0.41300  1.0000
  O   O8        1.0  0.82600  0.64300  0.47800  1.0000
  O   O9        1.0  0.17400  0.35700  0.52200  1.0000
  O   O10       1.0  0.28900  0.91000  0.58700  1.0000
  O   O11       1.0  0.71800  0.35800  0.70200  1.0000
  O   O12       1.0  0.40000  0.63000  0.72900  1.0000
  O   O13       1.0  0.09960  0.13000  0.77100  1.0000
  O   O14       1.0  0.78200  0.85800  0.79800  1.0000
  O   O15       1.0  0.21100  0.41000  0.91300  1.0000
  O   O16       1.0  0.32600  0.85700  0.97800  1.0000
  Se  Se1       1.0  0.54200  0.18500  0.21600  1.0000
  Se  Se2       1.0  0.95800  0.68500  0.28400  1.0000
  Se  Se3       1.0  0.04160  0.31500  0.71600  1.0000
  Se  Se4       1.0  0.45800  0.81500  0.78400  1.0000
  Zn  Zn1       1.0  0.00000  0.00000  0.00000  1.0000
  Zn  Zn2       1.0  0.50000  0.50000  0.50000  1.0000
