data_image0
_chemical_formula_structural       Fe3H6O14PPbS
_chemical_formula_sum              "Fe3 H6 O14 P1 Pb1 S1"
_cell_length_a       6.94011
_cell_length_b       6.94011
_cell_length_c       6.94011
_cell_angle_alpha    117.045
_cell_angle_beta     117.045
_cell_angle_gamma    62.9554

_space_group_name_H-M_alt    "P 1"
_space_group_IT_number       1

loop_
  _space_group_symop_operation_xyz
  'x, y, z'

loop_
  _atom_site_type_symbol
  _atom_site_label
  _atom_site_symmetry_multiplicity
  _atom_site_fract_x
  _atom_site_fract_y
  _atom_site_fract_z
  _atom_site_occupancy
  Fe  Fe1       1.0  0.50100  0.99200  0.00793  1.0000
  Fe  Fe2       1.0  0.99200  0.50100  0.00793  1.0000
  Fe  Fe3       1.0  0.99200  0.99200  0.49900  1.0000
  H   H1        1.0  0.30700  0.30700  0.29400  1.0000
  H   H2        1.0  0.68300  0.29800  0.31700  1.0000
  H   H3        1.0  0.29800  0.68300  0.31700  1.0000
  H   H4        1.0  0.30700  0.70600  0.69300  1.0000
  H   H5        1.0  0.70600  0.30700  0.69300  1.0000
  H   H6        1.0  0.68300  0.68300  0.70200  1.0000
  O   O1        1.0  0.25700  0.25700  0.12600  1.0000
  O   O2        1.0  0.83100  0.48300  0.16900  1.0000
  O   O3        1.0  0.48300  0.83100  0.16900  1.0000
  O   O4        1.0  0.73900  0.12600  0.26100  1.0000
  O   O5        1.0  0.12600  0.73900  0.26100  1.0000
  O   O6        1.0  0.59000  0.59000  0.41000  1.0000
  O   O7        1.0  0.16900  0.16900  0.49500  1.0000
  O   O8        1.0  0.83100  0.83100  0.51700  1.0000
  O   O9        1.0  0.40000  0.40000  0.60000  1.0000
  O   O10       1.0  0.25700  0.87400  0.74300  1.0000
  O   O11       1.0  0.87400  0.25700  0.74300  1.0000
  O   O12       1.0  0.16900  0.50500  0.83100  1.0000
  O   O13       1.0  0.50500  0.16900  0.83100  1.0000
  O   O14       1.0  0.73900  0.73900  0.87400  1.0000
  P   P1        1.0  0.68300  0.68300  0.31700  1.0000
  Pb  Pb1       1.0  0.00000  0.00000  0.00001  1.0000
  S   S1        1.0  0.31100  0.31100  0.68900  1.0000
