data_image0
_chemical_formula_structural       I10In2Sr4
_chemical_formula_sum              "I10 In2 Sr4"
_cell_length_a       9.19301
_cell_length_b       9.19301
_cell_length_c       9.98334
_cell_angle_alpha    117.414
_cell_angle_beta     117.414
_cell_angle_gamma    90

_space_group_name_H-M_alt    "P 1"
_space_group_IT_number       1

loop_
  _space_group_symop_operation_xyz
  'x, y, z'

loop_
  _atom_site_type_symbol
  _atom_site_label
  _atom_site_symmetry_multiplicity
  _atom_site_fract_x
  _atom_site_fract_y
  _atom_site_fract_z
  _atom_site_occupancy
  I   I1        1.0  0.00000  0.00000  0.00000  1.0000
  I   I2        1.0  0.50000  0.50000  0.00000  1.0000
  I   I3        1.0  0.79000  0.29000  0.27900  1.0000
  I   I4        1.0  0.29000  0.48800  0.27900  1.0000
  I   I5        1.0  0.98800  0.79000  0.27900  1.0000
  I   I6        1.0  0.48800  0.98800  0.27900  1.0000
  I   I7        1.0  0.51200  0.01160  0.72100  1.0000
  I   I8        1.0  0.01160  0.21000  0.72100  1.0000
  I   I9        1.0  0.71000  0.51200  0.72100  1.0000
  I   I10       1.0  0.21000  0.71000  0.72100  1.0000
  In  In1       1.0  0.25000  0.25000  0.50000  1.0000
  In  In2       1.0  0.75000  0.75000  0.50000  1.0000
  Sr  Sr1       1.0  0.34500  0.15500  0.00000  1.0000
  Sr  Sr2       1.0  0.84500  0.34500  0.00000  1.0000
  Sr  Sr3       1.0  0.15500  0.65500  0.00000  1.0000
  Sr  Sr4       1.0  0.65500  0.84500  0.00000  1.0000
