data_image0
_chemical_formula_structural       P2S10Ti2Tl2
_chemical_formula_sum              "P2 S10 Ti2 Tl2"
_cell_length_a       6.50364
_cell_length_b       7.08523
_cell_length_c       9.37992
_cell_angle_alpha    108.262
_cell_angle_beta     98.7077
_cell_angle_gamma    91.3312

_space_group_name_H-M_alt    "P 1"
_space_group_IT_number       1

loop_
  _space_group_symop_operation_xyz
  'x, y, z'

loop_
  _atom_site_type_symbol
  _atom_site_label
  _atom_site_symmetry_multiplicity
  _atom_site_fract_x
  _atom_site_fract_y
  _atom_site_fract_z
  _atom_site_occupancy
  P   P1        1.0  0.72100  0.11600  0.26700  1.0000
  P   P2        1.0  0.27900  0.88400  0.73300  1.0000
  S   S1        1.0  0.33900  0.54900  0.12800  1.0000
  S   S2        1.0  0.83300  0.84400  0.16700  1.0000
  S   S3        1.0  0.83500  0.31300  0.17100  1.0000
  S   S4        1.0  0.40500  0.06880  0.17100  1.0000
  S   S5        1.0  0.77400  0.20800  0.49400  1.0000
  S   S6        1.0  0.22600  0.79200  0.50600  1.0000
  S   S7        1.0  0.59500  0.93100  0.82900  1.0000
  S   S8        1.0  0.16500  0.68700  0.82900  1.0000
  S   S9        1.0  0.16700  0.15600  0.83300  1.0000
  S   S10       1.0  0.66100  0.45100  0.87200  1.0000
  Ti  Ti1       1.0  0.50200  0.27600  0.00052  1.0000
  Ti  Ti2       1.0  0.49800  0.72400  0.99900  1.0000
  Tl  Tl1       1.0  0.72200  0.69900  0.43700  1.0000
  Tl  Tl2       1.0  0.27800  0.30100  0.56300  1.0000
