data_image0
_chemical_formula_structural       As4K4O8
_chemical_formula_sum              "As4 K4 O8"
_cell_length_a       7.03269
_cell_length_b       7.40852
_cell_length_c       5.40779
_cell_angle_alpha    90
_cell_angle_beta     90
_cell_angle_gamma    90

_space_group_name_H-M_alt    "P 1"
_space_group_IT_number       1

loop_
  _space_group_symop_operation_xyz
  'x, y, z'

loop_
  _atom_site_type_symbol
  _atom_site_label
  _atom_site_symmetry_multiplicity
  _atom_site_fract_x
  _atom_site_fract_y
  _atom_site_fract_z
  _atom_site_occupancy
  As  As1       1.0  0.86500  0.37700  0.25000  1.0000
  As  As2       1.0  0.13500  0.87700  0.25000  1.0000
  As  As3       1.0  0.86500  0.12300  0.75000  1.0000
  As  As4       1.0  0.13500  0.62300  0.75000  1.0000
  K   K1        1.0  0.36500  0.40800  0.25000  1.0000
  K   K2        1.0  0.63500  0.90800  0.25000  1.0000
  K   K3        1.0  0.36500  0.09230  0.75000  1.0000
  K   K4        1.0  0.63500  0.59200  0.75000  1.0000
  O   O1        1.0  0.73800  0.25000  0.00000  1.0000
  O   O2        1.0  0.26200  0.75000  0.00000  1.0000
  O   O3        1.0  0.27800  0.06470  0.25000  1.0000
  O   O4        1.0  0.72200  0.56500  0.25000  1.0000
  O   O5        1.0  0.73800  0.25000  0.50000  1.0000
  O   O6        1.0  0.26200  0.75000  0.50000  1.0000
  O   O7        1.0  0.27800  0.43500  0.75000  1.0000
  O   O8        1.0  0.72200  0.93500  0.75000  1.0000
