data_image0
_chemical_formula_structural       B6H16Na2
_chemical_formula_sum              "B6 H16 Na2"
_cell_length_a       7.45211
_cell_length_b       4.52762
_cell_length_c       5.88813
_cell_angle_alpha    90
_cell_angle_beta     90
_cell_angle_gamma    90

_space_group_name_H-M_alt    "P 1"
_space_group_IT_number       1

loop_
  _space_group_symop_operation_xyz
  'x, y, z'

loop_
  _atom_site_type_symbol
  _atom_site_label
  _atom_site_symmetry_multiplicity
  _atom_site_fract_x
  _atom_site_fract_y
  _atom_site_fract_z
  _atom_site_occupancy
  B   B1        1.0  0.11800  0.50000  0.24700  1.0000
  B   B2        1.0  0.88200  0.50000  0.24700  1.0000
  B   B3        1.0  0.50000  0.00000  0.49200  1.0000
  B   B4        1.0  0.00000  0.50000  0.50800  1.0000
  B   B5        1.0  0.38200  0.00000  0.75300  1.0000
  B   B6        1.0  0.61800  0.00000  0.75300  1.0000
  H   H1        1.0  0.18400  0.27500  0.17200  1.0000
  H   H2        1.0  0.81600  0.27500  0.17200  1.0000
  H   H3        1.0  0.18400  0.72500  0.17200  1.0000
  H   H4        1.0  0.81600  0.72500  0.17200  1.0000
  H   H5        1.0  0.50000  0.22600  0.38400  1.0000
  H   H6        1.0  0.50000  0.77400  0.38400  1.0000
  H   H7        1.0  0.18500  0.50000  0.44500  1.0000
  H   H8        1.0  0.81500  0.50000  0.44500  1.0000
  H   H9        1.0  0.31500  0.00000  0.55500  1.0000
  H   H10       1.0  0.68500  0.00000  0.55500  1.0000
  H   H11       1.0  0.00000  0.27400  0.61600  1.0000
  H   H12       1.0  0.00000  0.72600  0.61600  1.0000
  H   H13       1.0  0.31600  0.22500  0.82800  1.0000
  H   H14       1.0  0.68400  0.22500  0.82800  1.0000
  H   H15       1.0  0.31600  0.77500  0.82800  1.0000
  H   H16       1.0  0.68400  0.77500  0.82800  1.0000
  Na  Na1       1.0  0.50000  0.50000  0.05770  1.0000
  Na  Na2       1.0  0.00000  0.00000  0.94200  1.0000
