data_image0
_chemical_formula_structural       H8S12Si8
_chemical_formula_sum              "H8 S12 Si8"
_cell_length_a       7.80706
_cell_length_b       7.80706
_cell_length_c       8.81912
_cell_angle_alpha    90
_cell_angle_beta     90
_cell_angle_gamma    90

_space_group_name_H-M_alt    "P 1"
_space_group_IT_number       1

loop_
  _space_group_symop_operation_xyz
  'x, y, z'

loop_
  _atom_site_type_symbol
  _atom_site_label
  _atom_site_symmetry_multiplicity
  _atom_site_fract_x
  _atom_site_fract_y
  _atom_site_fract_z
  _atom_site_occupancy
  H   H1        1.0  0.64900  0.11700  0.23000  1.0000
  H   H2        1.0  0.35100  0.88300  0.23000  1.0000
  H   H3        1.0  0.14900  0.38300  0.27000  1.0000
  H   H4        1.0  0.85100  0.61700  0.27000  1.0000
  H   H5        1.0  0.61700  0.14900  0.73000  1.0000
  H   H6        1.0  0.38300  0.85100  0.73000  1.0000
  H   H7        1.0  0.11700  0.35100  0.77000  1.0000
  H   H8        1.0  0.88300  0.64900  0.77000  1.0000
  S   S1        1.0  0.29200  0.14300  0.99900  1.0000
  S   S2        1.0  0.70800  0.85700  0.99900  1.0000
  S   S3        1.0  0.85700  0.29200  0.00119  1.0000
  S   S4        1.0  0.14300  0.70800  0.00119  1.0000
  S   S5        1.0  0.50000  0.50000  0.21500  1.0000
  S   S6        1.0  0.00000  0.00000  0.28500  1.0000
  S   S7        1.0  0.35700  0.20800  0.49900  1.0000
  S   S8        1.0  0.64300  0.79200  0.49900  1.0000
  S   S9        1.0  0.79200  0.35700  0.50100  1.0000
  S   S10       1.0  0.20800  0.64300  0.50100  1.0000
  S   S11       1.0  0.00000  0.00000  0.71500  1.0000
  S   S12       1.0  0.50000  0.50000  0.78500  1.0000
  Si  Si1       1.0  0.79700  0.06880  0.13300  1.0000
  Si  Si2       1.0  0.20300  0.93100  0.13300  1.0000
  Si  Si3       1.0  0.29700  0.43100  0.36700  1.0000
  Si  Si4       1.0  0.70300  0.56900  0.36700  1.0000
  Si  Si5       1.0  0.56900  0.29700  0.63300  1.0000
  Si  Si6       1.0  0.43100  0.70300  0.63300  1.0000
  Si  Si7       1.0  0.06880  0.20300  0.86700  1.0000
  Si  Si8       1.0  0.93100  0.79700  0.86700  1.0000
