data_image0
_chemical_formula_structural       B12H12K2
_chemical_formula_sum              "B12 H12 K2"
_cell_length_a       7.34408
_cell_length_b       7.34408
_cell_length_c       7.34408
_cell_angle_alpha    120
_cell_angle_beta     90
_cell_angle_gamma    120

_space_group_name_H-M_alt    "P 1"
_space_group_IT_number       1

loop_
  _space_group_symop_operation_xyz
  'x, y, z'

loop_
  _atom_site_type_symbol
  _atom_site_label
  _atom_site_symmetry_multiplicity
  _atom_site_fract_x
  _atom_site_fract_y
  _atom_site_fract_z
  _atom_site_occupancy
  B   B1        1.0  0.22300  0.00000  0.05340  1.0000
  B   B2        1.0  0.05340  0.27700  0.05340  1.0000
  B   B3        1.0  0.77700  0.83000  0.05340  1.0000
  B   B4        1.0  0.05340  0.00000  0.22300  1.0000
  B   B5        1.0  0.22300  0.27700  0.22300  1.0000
  B   B6        1.0  0.94700  0.17000  0.22300  1.0000
  B   B7        1.0  0.94700  1.00000  0.77700  1.0000
  B   B8        1.0  0.77700  0.72300  0.77700  1.0000
  B   B9        1.0  0.05340  0.83000  0.77700  1.0000
  B   B10       1.0  0.77700  0.00000  0.94700  1.0000
  B   B11       1.0  0.22300  0.17000  0.94700  1.0000
  B   B12       1.0  0.94700  0.72300  0.94700  1.0000
  H   H1        1.0  0.38200  0.00000  0.09490  1.0000
  H   H2        1.0  0.09490  0.47700  0.09490  1.0000
  H   H3        1.0  0.61800  0.71300  0.09490  1.0000
  H   H4        1.0  0.09490  0.00000  0.38200  1.0000
  H   H5        1.0  0.38200  0.47700  0.38200  1.0000
  H   H6        1.0  0.90500  0.28700  0.38200  1.0000
  H   H7        1.0  0.61800  0.52300  0.61800  1.0000
  H   H8        1.0  0.09490  0.71300  0.61800  1.0000
  H   H9        1.0  0.90500  0.00000  0.61800  1.0000
  H   H10       1.0  0.90500  0.52300  0.90500  1.0000
  H   H11       1.0  0.38200  0.28700  0.90500  1.0000
  H   H12       1.0  0.61800  0.00000  0.90500  1.0000
  K   K1        1.0  0.75000  0.50000  0.25000  1.0000
  K   K2        1.0  0.25000  0.50000  0.75000  1.0000
