data_image0
_chemical_formula_structural       Ag4K2Nb2Se8
_chemical_formula_sum              "Ag4 K2 Nb2 Se8"
_cell_length_a       6.1022
_cell_length_b       8.11506
_cell_length_c       10.2957
_cell_angle_alpha    90
_cell_angle_beta     72.7617
_cell_angle_gamma    90

_space_group_name_H-M_alt    "P 1"
_space_group_IT_number       1

loop_
  _space_group_symop_operation_xyz
  'x, y, z'

loop_
  _atom_site_type_symbol
  _atom_site_label
  _atom_site_symmetry_multiplicity
  _atom_site_fract_x
  _atom_site_fract_y
  _atom_site_fract_z
  _atom_site_occupancy
  Ag  Ag1       1.0  0.07150  0.00000  0.00000  1.0000
  Ag  Ag2       1.0  0.07150  0.50000  0.00000  1.0000
  Ag  Ag3       1.0  0.50000  0.25000  0.23900  1.0000
  Ag  Ag4       1.0  0.73900  0.75000  0.76100  1.0000
  K   K1        1.0  0.16500  0.75000  0.36500  1.0000
  K   K2        1.0  0.53100  0.25000  0.63500  1.0000
  Nb  Nb1       1.0  0.00331  0.25000  0.23300  1.0000
  Nb  Nb2       1.0  0.23600  0.75000  0.76700  1.0000
  Se  Se1       1.0  0.34100  0.25000  0.02480  1.0000
  Se  Se2       1.0  0.77200  0.50300  0.24400  1.0000
  Se  Se3       1.0  0.77200  0.99700  0.24400  1.0000
  Se  Se4       1.0  0.11500  0.25000  0.44000  1.0000
  Se  Se5       1.0  0.55500  0.75000  0.56000  1.0000
  Se  Se6       1.0  0.01600  0.00256  0.75600  1.0000
  Se  Se7       1.0  0.01600  0.49700  0.75600  1.0000
  Se  Se8       1.0  0.36600  0.75000  0.97500  1.0000
