data_image0
_chemical_formula_structural       Br2H12Na2O10
_chemical_formula_sum              "Br2 H12 Na2 O10"
_cell_length_a       5.23022
_cell_length_b       6.25549
_cell_length_c       8.68657
_cell_angle_alpha    72.2564
_cell_angle_beta     85.8682
_cell_angle_gamma    70.3263

_space_group_name_H-M_alt    "P 1"
_space_group_IT_number       1

loop_
  _space_group_symop_operation_xyz
  'x, y, z'

loop_
  _atom_site_type_symbol
  _atom_site_label
  _atom_site_symmetry_multiplicity
  _atom_site_fract_x
  _atom_site_fract_y
  _atom_site_fract_z
  _atom_site_occupancy
  Br  Br1       1.0  0.12300  0.17200  0.11300  1.0000
  Br  Br2       1.0  0.87700  0.82800  0.88700  1.0000
  H   H1        1.0  0.38000  0.68300  0.06720  1.0000
  H   H2        1.0  0.59700  0.42700  0.14900  1.0000
  H   H3        1.0  0.79900  0.88700  0.25800  1.0000
  H   H4        1.0  0.69900  0.67500  0.26100  1.0000
  H   H5        1.0  0.86700  0.22600  0.41300  1.0000
  H   H6        1.0  0.26000  0.91100  0.43400  1.0000
  H   H7        1.0  0.74000  0.08880  0.56600  1.0000
  H   H8        1.0  0.13300  0.77400  0.58700  1.0000
  H   H9        1.0  0.30100  0.32500  0.73900  1.0000
  H   H10       1.0  0.20100  0.11300  0.74200  1.0000
  H   H11       1.0  0.40300  0.57300  0.85100  1.0000
  H   H12       1.0  0.62000  0.31700  0.93300  1.0000
  Na  Na1       1.0  0.26700  0.45900  0.40200  1.0000
  Na  Na2       1.0  0.73300  0.54100  0.59800  1.0000
  O   O1        1.0  0.79000  0.16100  0.11300  1.0000
  O   O2        1.0  0.49600  0.58300  0.16600  1.0000
  O   O3        1.0  0.17600  0.18200  0.30500  1.0000
  O   O4        1.0  0.82000  0.71900  0.32000  1.0000
  O   O5        1.0  0.71400  0.24900  0.48600  1.0000
  O   O6        1.0  0.28600  0.75100  0.51400  1.0000
  O   O7        1.0  0.18000  0.28100  0.68000  1.0000
  O   O8        1.0  0.82400  0.81800  0.69500  1.0000
  O   O9        1.0  0.50400  0.41700  0.83400  1.0000
  O   O10       1.0  0.21000  0.83900  0.88700  1.0000
