data_image0
_chemical_formula_structural       C2F6H12N6Si
_chemical_formula_sum              "C2 F6 H12 N6 Si1"
_cell_length_a       5.59847
_cell_length_b       7.10605
_cell_length_c       7.11409
_cell_angle_alpha    119.963
_cell_angle_beta     111.95
_cell_angle_gamma    90

_space_group_name_H-M_alt    "P 1"
_space_group_IT_number       1

loop_
  _space_group_symop_operation_xyz
  'x, y, z'

loop_
  _atom_site_type_symbol
  _atom_site_label
  _atom_site_symmetry_multiplicity
  _atom_site_fract_x
  _atom_site_fract_y
  _atom_site_fract_z
  _atom_site_occupancy
  C   C1        1.0  0.27300  0.72400  0.44800  1.0000
  C   C2        1.0  0.72700  0.27600  0.55200  1.0000
  F   F1        1.0  0.79600  0.18200  0.02440  1.0000
  F   F2        1.0  0.79600  0.84200  0.02440  1.0000
  F   F3        1.0  0.17500  0.15200  0.30400  1.0000
  F   F4        1.0  0.82500  0.84800  0.69600  1.0000
  F   F5        1.0  0.20400  0.15800  0.97600  1.0000
  F   F6        1.0  0.20400  0.81800  0.97600  1.0000
  H   H1        1.0  0.25800  0.44800  0.14200  1.0000
  H   H2        1.0  0.25800  0.69400  0.14200  1.0000
  H   H3        1.0  0.73700  0.30500  0.28300  1.0000
  H   H4        1.0  0.73700  0.97800  0.28300  1.0000
  H   H5        1.0  0.25500  0.02080  0.46800  1.0000
  H   H6        1.0  0.25500  0.44700  0.46800  1.0000
  H   H7        1.0  0.74500  0.55300  0.53200  1.0000
  H   H8        1.0  0.74500  0.97900  0.53200  1.0000
  H   H9        1.0  0.26300  0.02190  0.71700  1.0000
  H   H10       1.0  0.26300  0.69500  0.71700  1.0000
  H   H11       1.0  0.74200  0.30600  0.85800  1.0000
  H   H12       1.0  0.74200  0.55200  0.85800  1.0000
  N   N1        1.0  0.28300  0.61800  0.23500  1.0000
  N   N2        1.0  0.72600  0.05960  0.44400  1.0000
  N   N3        1.0  0.72600  0.38400  0.44400  1.0000
  N   N4        1.0  0.27400  0.61600  0.55600  1.0000
  N   N5        1.0  0.27400  0.94000  0.55600  1.0000
  N   N6        1.0  0.71700  0.38200  0.76500  1.0000
  Si  Si1       1.0  0.00000  0.00000  0.00000  1.0000
