data_image0
_chemical_formula_structural       CrH10N4O8S2
_chemical_formula_sum              "Cr1 H10 N4 O8 S2"
_cell_length_a       7.16629
_cell_length_b       5.42859
_cell_length_c       5.62082
_cell_angle_alpha    97.8813
_cell_angle_beta     91.7475
_cell_angle_gamma    103.75

_space_group_name_H-M_alt    "P 1"
_space_group_IT_number       1

loop_
  _space_group_symop_operation_xyz
  'x, y, z'

loop_
  _atom_site_type_symbol
  _atom_site_label
  _atom_site_symmetry_multiplicity
  _atom_site_fract_x
  _atom_site_fract_y
  _atom_site_fract_z
  _atom_site_occupancy
  Cr  Cr1       1.0  0.00000  0.00000  0.00000  1.0000
  H   H1        1.0  0.61600  0.87500  0.06710  1.0000
  H   H2        1.0  0.71200  0.55200  0.20700  1.0000
  H   H3        1.0  0.72400  0.08770  0.29600  1.0000
  H   H4        1.0  0.58900  0.70400  0.41100  1.0000
  H   H5        1.0  0.83500  0.75900  0.44900  1.0000
  H   H6        1.0  0.16500  0.24100  0.55100  1.0000
  H   H7        1.0  0.41100  0.29600  0.58900  1.0000
  H   H8        1.0  0.27600  0.91200  0.70400  1.0000
  H   H9        1.0  0.28800  0.44800  0.79300  1.0000
  H   H10       1.0  0.38400  0.12500  0.93300  1.0000
  N   N1        1.0  0.73900  0.92700  0.18100  1.0000
  N   N2        1.0  0.71900  0.72300  0.32400  1.0000
  N   N3        1.0  0.28100  0.27700  0.67600  1.0000
  N   N4        1.0  0.26100  0.07250  0.81900  1.0000
  O   O1        1.0  0.34100  0.67400  0.04000  1.0000
  O   O2        1.0  0.09040  0.40600  0.24300  1.0000
  O   O3        1.0  0.12200  0.86800  0.28100  1.0000
  O   O4        1.0  0.36100  0.70600  0.47700  1.0000
  O   O5        1.0  0.63900  0.29400  0.52300  1.0000
  O   O6        1.0  0.87800  0.13200  0.71900  1.0000
  O   O7        1.0  0.91000  0.59400  0.75700  1.0000
  O   O8        1.0  0.65900  0.32600  0.96000  1.0000
  S   S1        1.0  0.22800  0.65800  0.25700  1.0000
  S   S2        1.0  0.77200  0.34200  0.74300  1.0000
