data_image0
_chemical_formula_structural       H4Na8O12P4
_chemical_formula_sum              "H4 Na8 O12 P4"
_cell_length_a       9.66026
_cell_length_b       6.88561
_cell_length_c       4.9638
_cell_angle_alpha    90
_cell_angle_beta     92.2087
_cell_angle_gamma    90

_space_group_name_H-M_alt    "P 1"
_space_group_IT_number       1

loop_
  _space_group_symop_operation_xyz
  'x, y, z'

loop_
  _atom_site_type_symbol
  _atom_site_label
  _atom_site_symmetry_multiplicity
  _atom_site_fract_x
  _atom_site_fract_y
  _atom_site_fract_z
  _atom_site_occupancy
  H   H1        1.0  0.08610  0.06500  0.16200  1.0000
  H   H2        1.0  0.41400  0.56500  0.33800  1.0000
  H   H3        1.0  0.58600  0.43500  0.66200  1.0000
  H   H4        1.0  0.91400  0.93500  0.83800  1.0000
  Na  Na1       1.0  0.10500  0.69300  0.22300  1.0000
  Na  Na2       1.0  0.75400  0.56200  0.23300  1.0000
  Na  Na3       1.0  0.74600  0.06210  0.26700  1.0000
  Na  Na4       1.0  0.39500  0.19300  0.27700  1.0000
  Na  Na5       1.0  0.60500  0.80700  0.72300  1.0000
  Na  Na6       1.0  0.25400  0.93800  0.73300  1.0000
  Na  Na7       1.0  0.24600  0.43800  0.76700  1.0000
  Na  Na8       1.0  0.89500  0.30700  0.77700  1.0000
  O   O1        1.0  0.59700  0.31700  0.11400  1.0000
  O   O2        1.0  0.18700  0.37500  0.22200  1.0000
  O   O3        1.0  0.57500  0.81100  0.24600  1.0000
  O   O4        1.0  0.92500  0.31100  0.25400  1.0000
  O   O5        1.0  0.31300  0.87500  0.27800  1.0000
  O   O6        1.0  0.90300  0.81700  0.38600  1.0000
  O   O7        1.0  0.09750  0.18300  0.61400  1.0000
  O   O8        1.0  0.68700  0.12500  0.72200  1.0000
  O   O9        1.0  0.07510  0.68900  0.74600  1.0000
  O   O10       1.0  0.42500  0.18900  0.75400  1.0000
  O   O11       1.0  0.81300  0.62500  0.77800  1.0000
  O   O12       1.0  0.40300  0.68300  0.88600  1.0000
  P   P1        1.0  0.42700  0.73600  0.18400  1.0000
  P   P2        1.0  0.07320  0.23600  0.31600  1.0000
  P   P3        1.0  0.92700  0.76400  0.68400  1.0000
  P   P4        1.0  0.57300  0.26400  0.81600  1.0000
