data_image0
_chemical_formula_structural       F10Fe4H8O4
_chemical_formula_sum              "F10 Fe4 H8 O4"
_cell_length_a       6.25518
_cell_length_b       7.20257
_cell_length_c       7.20257
_cell_angle_alpha    94.9483
_cell_angle_beta     115.736
_cell_angle_gamma    115.736

_space_group_name_H-M_alt    "P 1"
_space_group_IT_number       1

loop_
  _space_group_symop_operation_xyz
  'x, y, z'

loop_
  _atom_site_type_symbol
  _atom_site_label
  _atom_site_symmetry_multiplicity
  _atom_site_fract_x
  _atom_site_fract_y
  _atom_site_fract_z
  _atom_site_occupancy
  F   F1        1.0  0.25000  0.33900  0.09130  1.0000
  F   F2        1.0  0.75000  0.40900  0.16100  1.0000
  F   F3        1.0  0.67000  0.75000  0.25000  1.0000
  F   F4        1.0  0.18000  0.09130  0.33900  1.0000
  F   F5        1.0  0.82000  0.16100  0.40900  1.0000
  F   F6        1.0  0.18000  0.83900  0.59100  1.0000
  F   F7        1.0  0.82000  0.90900  0.66100  1.0000
  F   F8        1.0  0.33000  0.25000  0.75000  1.0000
  F   F9        1.0  0.25000  0.59100  0.83900  1.0000
  F   F10       1.0  0.75000  0.66100  0.90900  1.0000
  Fe  Fe1       1.0  0.00000  0.00000  0.00000  1.0000
  Fe  Fe2       1.0  0.50000  0.50000  0.00000  1.0000
  Fe  Fe3       1.0  0.00000  0.50000  0.50000  1.0000
  Fe  Fe4       1.0  0.00000  0.00000  0.50000  1.0000
  H   H1        1.0  0.72000  0.19800  0.01590  1.0000
  H   H2        1.0  0.49400  0.01590  0.19800  1.0000
  H   H3        1.0  0.28000  0.48400  0.30200  1.0000
  H   H4        1.0  0.50600  0.30200  0.48400  1.0000
  H   H5        1.0  0.49400  0.69800  0.51600  1.0000
  H   H6        1.0  0.72000  0.51600  0.69800  1.0000
  H   H7        1.0  0.50600  0.98400  0.80200  1.0000
  H   H8        1.0  0.28000  0.80200  0.98400  1.0000
  O   O1        1.0  0.30400  0.93300  0.06650  1.0000
  O   O2        1.0  0.30400  0.56700  0.43300  1.0000
  O   O3        1.0  0.69600  0.43300  0.56700  1.0000
  O   O4        1.0  0.69600  0.06650  0.93300  1.0000
