data_image0
_chemical_formula_structural       Cl2H12Na2O10
_chemical_formula_sum              "Cl2 H12 Na2 O10"
_cell_length_a       6.67324
_cell_length_b       8.53834
_cell_length_c       5.26597
_cell_angle_alpha    93.9666
_cell_angle_beta     118.195
_cell_angle_gamma    103.901

_space_group_name_H-M_alt    "P 1"
_space_group_IT_number       1

loop_
  _space_group_symop_operation_xyz
  'x, y, z'

loop_
  _atom_site_type_symbol
  _atom_site_label
  _atom_site_symmetry_multiplicity
  _atom_site_fract_x
  _atom_site_fract_y
  _atom_site_fract_z
  _atom_site_occupancy
  Cl  Cl1       1.0  0.18400  0.87900  0.28600  1.0000
  Cl  Cl2       1.0  0.81600  0.12100  0.71400  1.0000
  H   H1        1.0  0.44200  0.85300  0.03960  1.0000
  H   H2        1.0  0.69500  0.93900  0.07040  1.0000
  H   H3        1.0  0.22700  0.58600  0.08900  1.0000
  H   H4        1.0  0.91100  0.57000  0.17300  1.0000
  H   H5        1.0  0.11000  0.25900  0.30100  1.0000
  H   H6        1.0  0.68800  0.74500  0.38400  1.0000
  H   H7        1.0  0.31200  0.25500  0.61600  1.0000
  H   H8        1.0  0.89000  0.74100  0.69900  1.0000
  H   H9        1.0  0.08920  0.43000  0.82700  1.0000
  H   H10       1.0  0.77300  0.41400  0.91100  1.0000
  H   H11       1.0  0.30500  0.06120  0.93000  1.0000
  H   H12       1.0  0.55800  0.14700  0.96000  1.0000
  Na  Na1       1.0  0.54100  0.39900  0.27500  1.0000
  Na  Na2       1.0  0.45900  0.60100  0.72500  1.0000
  O   O1        1.0  0.82900  0.12500  0.02540  1.0000
  O   O2        1.0  0.75000  0.48800  0.03880  1.0000
  O   O3        1.0  0.59800  0.83700  0.08890  1.0000
  O   O4        1.0  0.18600  0.70400  0.36200  1.0000
  O   O5        1.0  0.27700  0.31900  0.45700  1.0000
  O   O6        1.0  0.72300  0.68100  0.54300  1.0000
  O   O7        1.0  0.81400  0.29600  0.63800  1.0000
  O   O8        1.0  0.40200  0.16300  0.91100  1.0000
  O   O9        1.0  0.25000  0.51200  0.96100  1.0000
  O   O10       1.0  0.17100  0.87500  0.97500  1.0000
