data_image0
_chemical_formula_structural       H12Hg2I6N2O2
_chemical_formula_sum              "H12 Hg2 I6 N2 O2"
_cell_length_a       7.28791
_cell_length_b       7.28791
_cell_length_c       8.93775
_cell_angle_alpha    91.4392
_cell_angle_beta     91.4392
_cell_angle_gamma    81.6527

_space_group_name_H-M_alt    "P 1"
_space_group_IT_number       1

loop_
  _space_group_symop_operation_xyz
  'x, y, z'

loop_
  _atom_site_type_symbol
  _atom_site_label
  _atom_site_symmetry_multiplicity
  _atom_site_fract_x
  _atom_site_fract_y
  _atom_site_fract_z
  _atom_site_occupancy
  H   H1        1.0  0.96400  0.22800  0.17000  1.0000
  H   H2        1.0  0.77900  0.16400  0.24900  1.0000
  H   H3        1.0  0.87500  0.34100  0.32600  1.0000
  H   H4        1.0  0.98900  0.11900  0.34000  1.0000
  H   H5        1.0  0.14100  0.83900  0.38500  1.0000
  H   H6        1.0  0.97800  0.90400  0.49200  1.0000
  H   H7        1.0  0.22800  0.96400  0.67000  1.0000
  H   H8        1.0  0.16400  0.77900  0.74900  1.0000
  H   H9        1.0  0.34100  0.87500  0.82600  1.0000
  H   H10       1.0  0.11900  0.98900  0.84000  1.0000
  H   H11       1.0  0.83900  0.14100  0.88500  1.0000
  H   H12       1.0  0.90400  0.97800  0.99200  1.0000
  Hg  Hg1       1.0  0.38600  0.45000  0.10400  1.0000
  Hg  Hg2       1.0  0.45000  0.38600  0.60400  1.0000
  I   I1        1.0  0.03310  0.65300  0.12700  1.0000
  I   I2        1.0  0.46100  0.06780  0.13600  1.0000
  I   I3        1.0  0.56500  0.60700  0.37400  1.0000
  I   I4        1.0  0.65300  0.03310  0.62700  1.0000
  I   I5        1.0  0.06780  0.46100  0.63600  1.0000
  I   I6        1.0  0.60700  0.56500  0.87400  1.0000
  N   N1        1.0  0.90400  0.21400  0.27200  1.0000
  N   N2        1.0  0.21400  0.90400  0.77200  1.0000
  O   O1        1.0  0.09240  0.94100  0.45400  1.0000
  O   O2        1.0  0.94100  0.09240  0.95400  1.0000
