data_image0
_chemical_formula_structural       Ba8H16Pd4
_chemical_formula_sum              "Ba8 H16 Pd4"
_cell_length_a       8.02486
_cell_length_b       5.7406
_cell_length_c       10.1517
_cell_angle_alpha    90
_cell_angle_beta     90
_cell_angle_gamma    90

_space_group_name_H-M_alt    "P 1"
_space_group_IT_number       1

loop_
  _space_group_symop_operation_xyz
  'x, y, z'

loop_
  _atom_site_type_symbol
  _atom_site_label
  _atom_site_symmetry_multiplicity
  _atom_site_fract_x
  _atom_site_fract_y
  _atom_site_fract_z
  _atom_site_occupancy
  Ba  Ba1       1.0  0.64700  0.75000  0.09560  1.0000
  Ba  Ba2       1.0  0.01200  0.25000  0.16700  1.0000
  Ba  Ba3       1.0  0.51200  0.25000  0.33300  1.0000
  Ba  Ba4       1.0  0.14700  0.75000  0.40400  1.0000
  Ba  Ba5       1.0  0.85300  0.25000  0.59600  1.0000
  Ba  Ba6       1.0  0.48800  0.75000  0.66700  1.0000
  Ba  Ba7       1.0  0.98800  0.75000  0.83300  1.0000
  Ba  Ba8       1.0  0.35300  0.25000  0.90400  1.0000
  H   H1        1.0  0.67100  0.25000  0.08140  1.0000
  H   H2        1.0  0.02150  0.75000  0.11100  1.0000
  H   H3        1.0  0.32100  0.00952  0.15700  1.0000
  H   H4        1.0  0.32100  0.49000  0.15700  1.0000
  H   H5        1.0  0.82100  0.00952  0.34300  1.0000
  H   H6        1.0  0.82100  0.49000  0.34300  1.0000
  H   H7        1.0  0.52100  0.75000  0.38900  1.0000
  H   H8        1.0  0.17100  0.25000  0.41900  1.0000
  H   H9        1.0  0.82900  0.75000  0.58100  1.0000
  H   H10       1.0  0.47900  0.25000  0.61100  1.0000
  H   H11       1.0  0.17900  0.51000  0.65700  1.0000
  H   H12       1.0  0.17900  0.99000  0.65700  1.0000
  H   H13       1.0  0.67900  0.51000  0.84300  1.0000
  H   H14       1.0  0.67900  0.99000  0.84300  1.0000
  H   H15       1.0  0.97900  0.25000  0.88900  1.0000
  H   H16       1.0  0.32900  0.75000  0.91900  1.0000
  Pd  Pd1       1.0  0.24200  0.75000  0.08230  1.0000
  Pd  Pd2       1.0  0.74200  0.75000  0.41800  1.0000
  Pd  Pd3       1.0  0.25800  0.25000  0.58200  1.0000
  Pd  Pd4       1.0  0.75800  0.25000  0.91800  1.0000
