data_image0
_chemical_formula_structural       Br2H4O12Rb2Se4Zn2
_chemical_formula_sum              "Br2 H4 O12 Rb2 Se4 Zn2"
_cell_length_a       6.38612
_cell_length_b       6.10928
_cell_length_c       10.7886
_cell_angle_alpha    90
_cell_angle_beta     102.948
_cell_angle_gamma    90

_space_group_name_H-M_alt    "P 1"
_space_group_IT_number       1

loop_
  _space_group_symop_operation_xyz
  'x, y, z'

loop_
  _atom_site_type_symbol
  _atom_site_label
  _atom_site_symmetry_multiplicity
  _atom_site_fract_x
  _atom_site_fract_y
  _atom_site_fract_z
  _atom_site_occupancy
  Br  Br1       1.0  0.50000  0.95000  0.25000  1.0000
  Br  Br2       1.0  0.50000  0.04960  0.75000  1.0000
  H   H1        1.0  0.07440  0.65600  0.09190  1.0000
  H   H2        1.0  0.92600  0.65600  0.40800  1.0000
  H   H3        1.0  0.07440  0.34400  0.59200  1.0000
  H   H4        1.0  0.92600  0.34400  0.90800  1.0000
  O   O1        1.0  0.97000  0.78600  0.07940  1.0000
  O   O2        1.0  0.68400  0.47600  0.11400  1.0000
  O   O3        1.0  0.23800  0.45100  0.11600  1.0000
  O   O4        1.0  0.76200  0.45100  0.38400  1.0000
  O   O5        1.0  0.31600  0.47600  0.38600  1.0000
  O   O6        1.0  0.02960  0.78600  0.42100  1.0000
  O   O7        1.0  0.97000  0.21400  0.57900  1.0000
  O   O8        1.0  0.68400  0.52400  0.61400  1.0000
  O   O9        1.0  0.23800  0.54900  0.61600  1.0000
  O   O10       1.0  0.76200  0.54900  0.88400  1.0000
  O   O11       1.0  0.31600  0.52400  0.88600  1.0000
  O   O12       1.0  0.02960  0.21400  0.92100  1.0000
  Rb  Rb1       1.0  0.00000  0.16200  0.25000  1.0000
  Rb  Rb2       1.0  0.00000  0.83800  0.75000  1.0000
  Se  Se1       1.0  0.70500  0.68800  0.01340  1.0000
  Se  Se2       1.0  0.29500  0.68800  0.48700  1.0000
  Se  Se3       1.0  0.70500  0.31200  0.51300  1.0000
  Se  Se4       1.0  0.29500  0.31200  0.98700  1.0000
  Zn  Zn1       1.0  0.50000  0.54800  0.25000  1.0000
  Zn  Zn2       1.0  0.50000  0.45200  0.75000  1.0000
