data_image0
_chemical_formula_structural       H8NiO14P2V2
_chemical_formula_sum              "H8 Ni1 O14 P2 V2"
_cell_length_a       6.22441
_cell_length_b       6.22441
_cell_length_c       7.89647
_cell_angle_alpha    113.211
_cell_angle_beta     113.211
_cell_angle_gamma    90

_space_group_name_H-M_alt    "P 1"
_space_group_IT_number       1

loop_
  _space_group_symop_operation_xyz
  'x, y, z'

loop_
  _atom_site_type_symbol
  _atom_site_label
  _atom_site_symmetry_multiplicity
  _atom_site_fract_x
  _atom_site_fract_y
  _atom_site_fract_z
  _atom_site_occupancy
  H   H1        1.0  0.71500  0.24400  0.12200  1.0000
  H   H2        1.0  0.24400  0.40700  0.12200  1.0000
  H   H3        1.0  0.87900  0.71500  0.12200  1.0000
  H   H4        1.0  0.40700  0.87900  0.12200  1.0000
  H   H5        1.0  0.59300  0.12100  0.87800  1.0000
  H   H6        1.0  0.12100  0.28500  0.87800  1.0000
  H   H7        1.0  0.75600  0.59300  0.87800  1.0000
  H   H8        1.0  0.28500  0.75600  0.87800  1.0000
  Ni  Ni1       1.0  0.00000  0.00000  0.00000  1.0000
  O   O1        1.0  0.74400  0.20500  0.00000  1.0000
  O   O2        1.0  0.20500  0.25600  0.00000  1.0000
  O   O3        1.0  0.79500  0.74400  0.00000  1.0000
  O   O4        1.0  0.25600  0.79500  0.00000  1.0000
  O   O5        1.0  0.15400  0.15400  0.30900  1.0000
  O   O6        1.0  0.70900  0.37500  0.35800  1.0000
  O   O7        1.0  0.37500  0.64900  0.35800  1.0000
  O   O8        1.0  0.98300  0.70900  0.35800  1.0000
  O   O9        1.0  0.64900  0.98300  0.35800  1.0000
  O   O10       1.0  0.35100  0.01660  0.64200  1.0000
  O   O11       1.0  0.01660  0.29100  0.64200  1.0000
  O   O12       1.0  0.62500  0.35100  0.64200  1.0000
  O   O13       1.0  0.29100  0.62500  0.64200  1.0000
  O   O14       1.0  0.84600  0.84600  0.69100  1.0000
  P   P1        1.0  0.75000  0.25000  0.50000  1.0000
  P   P2        1.0  0.25000  0.75000  0.50000  1.0000
  V   V1        1.0  0.72100  0.72100  0.44100  1.0000
  V   V2        1.0  0.27900  0.27900  0.55900  1.0000
