data_image0
_chemical_formula_structural       B12H12IK3
_chemical_formula_sum              "B12 H12 I1 K3"
_cell_length_a       6.89379
_cell_length_b       6.89379
_cell_length_c       6.89379
_cell_angle_alpha    93.9381
_cell_angle_beta     93.9381
_cell_angle_gamma    93.9381

_space_group_name_H-M_alt    "P 1"
_space_group_IT_number       1

loop_
  _space_group_symop_operation_xyz
  'x, y, z'

loop_
  _atom_site_type_symbol
  _atom_site_label
  _atom_site_symmetry_multiplicity
  _atom_site_fract_x
  _atom_site_fract_y
  _atom_site_fract_z
  _atom_site_occupancy
  B   B1        1.0  0.23800  0.06250  0.06250  1.0000
  B   B2        1.0  0.06250  0.23800  0.06250  1.0000
  B   B3        1.0  0.12400  0.83900  0.12400  1.0000
  B   B4        1.0  0.83900  0.12400  0.12400  1.0000
  B   B5        1.0  0.87600  0.87600  0.16100  1.0000
  B   B6        1.0  0.06250  0.06250  0.23800  1.0000
  B   B7        1.0  0.93700  0.93700  0.76200  1.0000
  B   B8        1.0  0.12400  0.12400  0.83900  1.0000
  B   B9        1.0  0.16100  0.87600  0.87600  1.0000
  B   B10       1.0  0.87600  0.16100  0.87600  1.0000
  B   B11       1.0  0.93700  0.76200  0.93700  1.0000
  B   B12       1.0  0.76200  0.93700  0.93700  1.0000
  H   H1        1.0  0.10800  0.40800  0.10800  1.0000
  H   H2        1.0  0.40800  0.10800  0.10800  1.0000
  H   H3        1.0  0.21300  0.72400  0.21300  1.0000
  H   H4        1.0  0.72400  0.21300  0.21300  1.0000
  H   H5        1.0  0.78700  0.78700  0.27600  1.0000
  H   H6        1.0  0.10800  0.10800  0.40800  1.0000
  H   H7        1.0  0.89200  0.89200  0.59200  1.0000
  H   H8        1.0  0.21300  0.21300  0.72400  1.0000
  H   H9        1.0  0.27600  0.78700  0.78700  1.0000
  H   H10       1.0  0.78700  0.27600  0.78700  1.0000
  H   H11       1.0  0.59200  0.89200  0.89200  1.0000
  H   H12       1.0  0.89200  0.59200  0.89200  1.0000
  I   I1        1.0  0.50000  0.50000  0.50000  1.0000
  K   K1        1.0  0.50000  0.50000  0.00000  1.0000
  K   K2        1.0  0.00000  0.50000  0.50000  1.0000
  K   K3        1.0  0.50000  0.00000  0.50000  1.0000
