data_image0
_chemical_formula_structural       Ca2F2H8O10P2
_chemical_formula_sum              "Ca2 F2 H8 O10 P2"
_cell_length_a       8.3739
_cell_length_b       6.32523
_cell_length_c       5.63616
_cell_angle_alpha    121.641
_cell_angle_beta     109.383
_cell_angle_gamma    93.5667

_space_group_name_H-M_alt    "P 1"
_space_group_IT_number       1

loop_
  _space_group_symop_operation_xyz
  'x, y, z'

loop_
  _atom_site_type_symbol
  _atom_site_label
  _atom_site_symmetry_multiplicity
  _atom_site_fract_x
  _atom_site_fract_y
  _atom_site_fract_z
  _atom_site_occupancy
  Ca  Ca1       1.0  0.15500  0.32300  0.35200  1.0000
  Ca  Ca2       1.0  0.84500  0.67700  0.64800  1.0000
  F   F1        1.0  0.72800  0.91700  0.32400  1.0000
  F   F2        1.0  0.27200  0.08340  0.67600  1.0000
  H   H1        1.0  0.33900  0.63400  0.03500  1.0000
  H   H2        1.0  0.51600  0.30800  0.07300  1.0000
  H   H3        1.0  0.37000  0.99700  0.11300  1.0000
  H   H4        1.0  0.51600  0.24200  0.43500  1.0000
  H   H5        1.0  0.48400  0.75800  0.56500  1.0000
  H   H6        1.0  0.63000  0.00340  0.88700  1.0000
  H   H7        1.0  0.48400  0.69200  0.92700  1.0000
  H   H8        1.0  0.66100  0.36600  0.96500  1.0000
  O   O1        1.0  0.64200  0.34900  0.12200  1.0000
  O   O2        1.0  0.06580  0.87300  0.13800  1.0000
  O   O3        1.0  0.39700  0.18600  0.26600  1.0000
  O   O4        1.0  0.28400  0.64800  0.28900  1.0000
  O   O5        1.0  0.03140  0.68000  0.43000  1.0000
  O   O6        1.0  0.96900  0.32000  0.57000  1.0000
  O   O7        1.0  0.71600  0.35200  0.71100  1.0000
  O   O8        1.0  0.60300  0.81400  0.73400  1.0000
  O   O9        1.0  0.93400  0.12700  0.86200  1.0000
  O   O10       1.0  0.35800  0.65100  0.87800  1.0000
  P   P1        1.0  0.15200  0.80300  0.35900  1.0000
  P   P2        1.0  0.84800  0.19700  0.64100  1.0000
