data_image0
_chemical_formula_structural       H4K2Mn3O12P4
_chemical_formula_sum              "H4 K2 Mn3 O12 P4"
_cell_length_a       5.44786
_cell_length_b       5.44779
_cell_length_c       12.0375
_cell_angle_alpha    76.9238
_cell_angle_beta     103.076
_cell_angle_gamma    120

_space_group_name_H-M_alt    "P 1"
_space_group_IT_number       1

loop_
  _space_group_symop_operation_xyz
  'x, y, z'

loop_
  _atom_site_type_symbol
  _atom_site_label
  _atom_site_symmetry_multiplicity
  _atom_site_fract_x
  _atom_site_fract_y
  _atom_site_fract_z
  _atom_site_occupancy
  H   H1        1.0  0.34400  0.65500  0.03350  1.0000
  H   H2        1.0  0.40100  0.59900  0.20400  1.0000
  H   H3        1.0  0.59900  0.40100  0.79600  1.0000
  H   H4        1.0  0.65600  0.34500  0.96600  1.0000
  K   K1        1.0  0.81300  0.18700  0.44000  1.0000
  K   K2        1.0  0.18700  0.81300  0.56000  1.0000
  Mn  Mn1       1.0  0.00000  0.00000  0.00000  1.0000
  Mn  Mn2       1.0  0.08510  0.91500  0.25500  1.0000
  Mn  Mn3       1.0  0.91500  0.08510  0.74500  1.0000
  O   O1        1.0  0.86500  0.13500  0.12400  1.0000
  O   O2        1.0  0.39400  0.13500  0.12400  1.0000
  O   O3        1.0  0.86500  0.60600  0.12400  1.0000
  O   O4        1.0  0.76600  0.70000  0.36500  1.0000
  O   O5        1.0  0.30000  0.70000  0.36500  1.0000
  O   O6        1.0  0.30000  0.23400  0.36500  1.0000
  O   O7        1.0  0.70000  0.76600  0.63500  1.0000
  O   O8        1.0  0.70000  0.30000  0.63500  1.0000
  O   O9        1.0  0.23400  0.30000  0.63500  1.0000
  O   O10       1.0  0.13500  0.39400  0.87600  1.0000
  O   O11       1.0  0.60600  0.86500  0.87600  1.0000
  O   O12       1.0  0.13500  0.86500  0.87600  1.0000
  P   P1        1.0  0.69600  0.30400  0.08770  1.0000
  P   P2        1.0  0.44200  0.55800  0.32500  1.0000
  P   P3        1.0  0.55800  0.44200  0.67500  1.0000
  P   P4        1.0  0.30400  0.69600  0.91200  1.0000
