data_image0
_chemical_formula_structural       As4K4Se8
_chemical_formula_sum              "As4 K4 Se8"
_cell_length_a       6.7437
_cell_length_b       6.7437
_cell_length_c       12.9029
_cell_angle_alpha    79.4739
_cell_angle_beta     100.526
_cell_angle_gamma    72.6023

_space_group_name_H-M_alt    "P 1"
_space_group_IT_number       1

loop_
  _space_group_symop_operation_xyz
  'x, y, z'

loop_
  _atom_site_type_symbol
  _atom_site_label
  _atom_site_symmetry_multiplicity
  _atom_site_fract_x
  _atom_site_fract_y
  _atom_site_fract_z
  _atom_site_occupancy
  As  As1       1.0  0.73400  0.40700  0.44400  1.0000
  As  As2       1.0  0.59300  0.26600  0.94400  1.0000
  As  As3       1.0  0.87300  0.42800  0.17600  1.0000
  As  As4       1.0  0.57200  0.12700  0.67600  1.0000
  K   K1        1.0  0.17200  0.86400  0.49600  1.0000
  K   K2        1.0  0.13600  0.82800  0.99600  1.0000
  K   K3        1.0  0.49500  0.05470  0.26000  1.0000
  K   K4        1.0  0.94500  0.50500  0.76000  1.0000
  Se  Se1       1.0  0.54600  0.54100  0.24600  1.0000
  Se  Se2       1.0  0.45900  0.45400  0.74600  1.0000
  Se  Se3       1.0  0.71900  0.72000  0.50100  1.0000
  Se  Se4       1.0  0.28000  0.28100  0.00066  1.0000
  Se  Se5       1.0  0.66500  0.58900  0.98200  1.0000
  Se  Se6       1.0  0.41100  0.33500  0.48200  1.0000
  Se  Se7       1.0  0.96700  0.05440  0.20500  1.0000
  Se  Se8       1.0  0.94600  0.03330  0.70500  1.0000
