data_image0
_chemical_formula_structural       F6H12O6TiZn
_chemical_formula_sum              "F6 H12 O6 Ti1 Zn1"
_cell_length_a       5.99625
_cell_length_b       5.99626
_cell_length_c       5.99625
_cell_angle_alpha    96.0772
_cell_angle_beta     96.0772
_cell_angle_gamma    96.0772

_space_group_name_H-M_alt    "P 1"
_space_group_IT_number       1

loop_
  _space_group_symop_operation_xyz
  'x, y, z'

loop_
  _atom_site_type_symbol
  _atom_site_label
  _atom_site_symmetry_multiplicity
  _atom_site_fract_x
  _atom_site_fract_y
  _atom_site_fract_z
  _atom_site_occupancy
  F   F1        1.0  0.34900  0.56900  0.22900  1.0000
  F   F2        1.0  0.56900  0.22900  0.34900  1.0000
  F   F3        1.0  0.77100  0.65100  0.43100  1.0000
  F   F4        1.0  0.22900  0.34900  0.56900  1.0000
  F   F5        1.0  0.43100  0.77100  0.65100  1.0000
  F   F6        1.0  0.65100  0.43100  0.77100  1.0000
  H   H1        1.0  0.42900  0.18900  0.06380  1.0000
  H   H2        1.0  0.69600  0.74800  0.16600  1.0000
  H   H3        1.0  0.06380  0.42900  0.18900  1.0000
  H   H4        1.0  0.83400  0.30400  0.25200  1.0000
  H   H5        1.0  0.25200  0.83400  0.30400  1.0000
  H   H6        1.0  0.18900  0.06380  0.42900  1.0000
  H   H7        1.0  0.81100  0.93600  0.57100  1.0000
  H   H8        1.0  0.74800  0.16600  0.69600  1.0000
  H   H9        1.0  0.16600  0.69600  0.74800  1.0000
  H   H10       1.0  0.93600  0.57100  0.81100  1.0000
  H   H11       1.0  0.30400  0.25200  0.83400  1.0000
  H   H12       1.0  0.57100  0.81100  0.93600  1.0000
  O   O1        1.0  0.68200  0.86800  0.06750  1.0000
  O   O2        1.0  0.93200  0.31800  0.13200  1.0000
  O   O3        1.0  0.13200  0.93200  0.31800  1.0000
  O   O4        1.0  0.86800  0.06750  0.68200  1.0000
  O   O5        1.0  0.06750  0.68200  0.86800  1.0000
  O   O6        1.0  0.31800  0.13200  0.93200  1.0000
  Ti  Ti1       1.0  0.50000  0.50000  0.50000  1.0000
  Zn  Zn1       1.0  0.00000  0.00000  0.00000  1.0000
