data_image0
_chemical_formula_structural       Br6H12O6Zn3
_chemical_formula_sum              "Br6 H12 O6 Zn3"
_cell_length_a       7.74838
_cell_length_b       8.23743
_cell_length_c       8.23743
_cell_angle_alpha    104.651
_cell_angle_beta     118.055
_cell_angle_gamma    61.9452

_space_group_name_H-M_alt    "P 1"
_space_group_IT_number       1

loop_
  _space_group_symop_operation_xyz
  'x, y, z'

loop_
  _atom_site_type_symbol
  _atom_site_label
  _atom_site_symmetry_multiplicity
  _atom_site_fract_x
  _atom_site_fract_y
  _atom_site_fract_z
  _atom_site_occupancy
  Br  Br1       1.0  0.70500  0.60500  0.01470  1.0000
  Br  Br2       1.0  0.70500  0.98500  0.39500  1.0000
  Br  Br3       1.0  0.24100  0.50000  0.50000  1.0000
  Br  Br4       1.0  0.75900  0.50000  0.50000  1.0000
  Br  Br5       1.0  0.29500  0.01470  0.60500  1.0000
  Br  Br6       1.0  0.29500  0.39500  0.98500  1.0000
  H   H1        1.0  0.18600  0.23700  0.08850  1.0000
  H   H2        1.0  0.66600  0.23700  0.08850  1.0000
  H   H3        1.0  0.25400  0.66600  0.17300  1.0000
  H   H4        1.0  0.33400  0.08850  0.23700  1.0000
  H   H5        1.0  0.81400  0.08850  0.23700  1.0000
  H   H6        1.0  0.25400  0.82700  0.33400  1.0000
  H   H7        1.0  0.74600  0.17300  0.66600  1.0000
  H   H8        1.0  0.18600  0.91100  0.76300  1.0000
  H   H9        1.0  0.66600  0.91100  0.76300  1.0000
  H   H10       1.0  0.74600  0.33400  0.82700  1.0000
  H   H11       1.0  0.33400  0.76300  0.91100  1.0000
  H   H12       1.0  0.81400  0.76300  0.91100  1.0000
  O   O1        1.0  0.18300  0.15400  0.15400  1.0000
  O   O2        1.0  0.81700  0.15400  0.15400  1.0000
  O   O3        1.0  0.20100  0.79900  0.20100  1.0000
  O   O4        1.0  0.79900  0.20100  0.79900  1.0000
  O   O5        1.0  0.18300  0.84600  0.84600  1.0000
  O   O6        1.0  0.81700  0.84600  0.84600  1.0000
  Zn  Zn1       1.0  0.00000  0.00000  0.00000  1.0000
  Zn  Zn2       1.0  0.84500  0.65500  0.34500  1.0000
  Zn  Zn3       1.0  0.15500  0.34500  0.65500  1.0000
