data_image0
_chemical_formula_structural       C4Cl2H12O6V2
_chemical_formula_sum              "C4 Cl2 H12 O6 V2"
_cell_length_a       5.82571
_cell_length_b       6.13541
_cell_length_c       8.16222
_cell_angle_alpha    82.2816
_cell_angle_beta     76.6463
_cell_angle_gamma    80.6885

_space_group_name_H-M_alt    "P 1"
_space_group_IT_number       1

loop_
  _space_group_symop_operation_xyz
  'x, y, z'

loop_
  _atom_site_type_symbol
  _atom_site_label
  _atom_site_symmetry_multiplicity
  _atom_site_fract_x
  _atom_site_fract_y
  _atom_site_fract_z
  _atom_site_occupancy
  C   C1        1.0  0.90300  0.23500  0.09500  1.0000
  C   C2        1.0  0.83700  0.75600  0.46300  1.0000
  C   C3        1.0  0.16300  0.24400  0.53700  1.0000
  C   C4        1.0  0.09740  0.76500  0.90500  1.0000
  Cl  Cl1       1.0  0.43200  0.86100  0.21800  1.0000
  Cl  Cl2       1.0  0.56800  0.13900  0.78200  1.0000
  H   H1        1.0  0.07150  0.66500  0.02850  1.0000
  H   H2        1.0  0.78500  0.11200  0.09660  1.0000
  H   H3        1.0  0.07600  0.15300  0.11800  1.0000
  H   H4        1.0  0.95600  0.71600  0.34300  1.0000
  H   H5        1.0  0.06270  0.27100  0.43600  1.0000
  H   H6        1.0  0.75500  0.93000  0.45100  1.0000
  H   H7        1.0  0.24500  0.07010  0.54900  1.0000
  H   H8        1.0  0.93700  0.72900  0.56400  1.0000
  H   H9        1.0  0.04380  0.28400  0.65700  1.0000
  H   H10       1.0  0.92400  0.84700  0.88200  1.0000
  H   H11       1.0  0.21500  0.88800  0.90300  1.0000
  H   H12       1.0  0.92900  0.33500  0.97100  1.0000
  O   O1        1.0  0.36400  0.40300  0.17300  1.0000
  O   O2        1.0  0.80100  0.37700  0.22600  1.0000
  O   O3        1.0  0.34400  0.38600  0.50000  1.0000
  O   O4        1.0  0.65600  0.61400  0.50000  1.0000
  O   O5        1.0  0.19900  0.62300  0.77400  1.0000
  O   O6        1.0  0.63600  0.59700  0.82700  1.0000
  V   V1        1.0  0.50100  0.49900  0.29200  1.0000
  V   V2        1.0  0.49900  0.50100  0.70800  1.0000
