data_image0
_chemical_formula_structural       H8Li4O12P4
_chemical_formula_sum              "H8 Li4 O12 P4"
_cell_length_a       5.12219
_cell_length_b       10.9305
_cell_length_c       4.95979
_cell_angle_alpha    90
_cell_angle_beta     90
_cell_angle_gamma    90

_space_group_name_H-M_alt    "P 1"
_space_group_IT_number       1

loop_
  _space_group_symop_operation_xyz
  'x, y, z'

loop_
  _atom_site_type_symbol
  _atom_site_label
  _atom_site_symmetry_multiplicity
  _atom_site_fract_x
  _atom_site_fract_y
  _atom_site_fract_z
  _atom_site_occupancy
  H   H1        1.0  0.62900  0.16100  0.97300  1.0000
  H   H2        1.0  0.12900  0.83900  0.02730  1.0000
  H   H3        1.0  0.65000  0.87000  0.09040  1.0000
  H   H4        1.0  0.65000  0.37000  0.41000  1.0000
  H   H5        1.0  0.12900  0.33900  0.47300  1.0000
  H   H6        1.0  0.62900  0.66100  0.52700  1.0000
  H   H7        1.0  0.15000  0.63000  0.59000  1.0000
  H   H8        1.0  0.15000  0.13000  0.91000  1.0000
  Li  Li1       1.0  0.75900  0.57800  0.02770  1.0000
  Li  Li2       1.0  0.75900  0.07760  0.47200  1.0000
  Li  Li3       1.0  0.25900  0.92200  0.52800  1.0000
  Li  Li4       1.0  0.25900  0.42200  0.97200  1.0000
  O   O1        1.0  0.12200  0.56900  0.12400  1.0000
  O   O2        1.0  0.54800  0.12100  0.15100  1.0000
  O   O3        1.0  0.20700  0.28900  0.22400  1.0000
  O   O4        1.0  0.20700  0.78900  0.27600  1.0000
  O   O5        1.0  0.54800  0.62100  0.34900  1.0000
  O   O6        1.0  0.12200  0.06900  0.37600  1.0000
  O   O7        1.0  0.62200  0.93100  0.62400  1.0000
  O   O8        1.0  0.04830  0.37900  0.65100  1.0000
  O   O9        1.0  0.70700  0.21100  0.72400  1.0000
  O   O10       1.0  0.70700  0.71100  0.77600  1.0000
  O   O11       1.0  0.04830  0.87900  0.84900  1.0000
  O   O12       1.0  0.62200  0.43100  0.87600  1.0000
  P   P1        1.0  0.24600  0.15300  0.17000  1.0000
  P   P2        1.0  0.24600  0.65300  0.33000  1.0000
  P   P3        1.0  0.74600  0.34700  0.67000  1.0000
  P   P4        1.0  0.74600  0.84700  0.83000  1.0000
