data_image0
_chemical_formula_structural       B2H4Na2O14Si4
_chemical_formula_sum              "B2 H4 Na2 O14 Si4"
_cell_length_a       7.93048
_cell_length_b       6.9312
_cell_length_c       4.87958
_cell_angle_alpha    90
_cell_angle_beta     91.3026
_cell_angle_gamma    90

_space_group_name_H-M_alt    "P 1"
_space_group_IT_number       1

loop_
  _space_group_symop_operation_xyz
  'x, y, z'

loop_
  _atom_site_type_symbol
  _atom_site_label
  _atom_site_symmetry_multiplicity
  _atom_site_fract_x
  _atom_site_fract_y
  _atom_site_fract_z
  _atom_site_occupancy
  B   B1        1.0  0.35000  0.68500  0.22200  1.0000
  B   B2        1.0  0.65000  0.18500  0.77800  1.0000
  H   H1        1.0  0.72800  0.36200  0.21000  1.0000
  H   H2        1.0  0.54600  0.43000  0.26900  1.0000
  H   H3        1.0  0.45400  0.93000  0.73100  1.0000
  H   H4        1.0  0.27200  0.86200  0.79000  1.0000
  Na  Na1       1.0  0.48600  0.06260  0.26800  1.0000
  Na  Na2       1.0  0.51400  0.56300  0.73200  1.0000
  O   O1        1.0  0.90400  0.94500  0.09210  1.0000
  O   O2        1.0  0.19900  0.78900  0.15600  1.0000
  O   O3        1.0  0.50200  0.73300  0.15800  1.0000
  O   O4        1.0  0.18200  0.15500  0.24400  1.0000
  O   O5        1.0  0.31200  0.49600  0.32700  1.0000
  O   O6        1.0  0.64100  0.35700  0.35000  1.0000
  O   O7        1.0  0.97700  0.43200  0.40700  1.0000
  O   O8        1.0  0.02270  0.93200  0.59300  1.0000
  O   O9        1.0  0.35900  0.85700  0.65000  1.0000
  O   O10       1.0  0.68800  0.99600  0.67300  1.0000
  O   O11       1.0  0.81800  0.65500  0.75600  1.0000
  O   O12       1.0  0.49800  0.23300  0.84200  1.0000
  O   O13       1.0  0.80100  0.28900  0.84400  1.0000
  O   O14       1.0  0.09630  0.44500  0.90800  1.0000
  Si  Si1       1.0  0.14200  0.38400  0.22400  1.0000
  Si  Si2       1.0  0.07760  0.95300  0.27600  1.0000
  Si  Si3       1.0  0.92200  0.45300  0.72400  1.0000
  Si  Si4       1.0  0.85800  0.88400  0.77600  1.0000
