data_image0
_chemical_formula_structural       C5DyH9N2O8
_chemical_formula_sum              "C5 Dy1 H9 N2 O8"
_cell_length_a       6.4834
_cell_length_b       6.61277
_cell_length_c       6.61277
_cell_angle_alpha    64.0019
_cell_angle_beta     106.891
_cell_angle_gamma    106.891

_space_group_name_H-M_alt    "P 1"
_space_group_IT_number       1

loop_
  _space_group_symop_operation_xyz
  'x, y, z'

loop_
  _atom_site_type_symbol
  _atom_site_label
  _atom_site_symmetry_multiplicity
  _atom_site_fract_x
  _atom_site_fract_y
  _atom_site_fract_z
  _atom_site_occupancy
  C   C1        1.0  0.69900  0.52800  0.29300  1.0000
  C   C2        1.0  0.95700  0.06110  0.46000  1.0000
  C   C3        1.0  0.30100  0.70700  0.47200  1.0000
  C   C4        1.0  0.50000  0.07690  0.92300  1.0000
  C   C5        1.0  0.04260  0.54000  0.93900  1.0000
  Dy  Dy1       1.0  1.00000  0.00387  0.99600  1.0000
  H   H1        1.0  0.50000  0.92000  0.08000  1.0000
  H   H2        1.0  0.40100  0.34700  0.19400  1.0000
  H   H3        1.0  0.81300  0.53400  0.45100  1.0000
  H   H4        1.0  0.12400  0.16800  0.45600  1.0000
  H   H5        1.0  0.18700  0.54900  0.46600  1.0000
  H   H6        1.0  0.52400  0.24600  0.49200  1.0000
  H   H7        1.0  0.59900  0.80600  0.65300  1.0000
  H   H8        1.0  0.47600  0.50800  0.75400  1.0000
  H   H9        1.0  0.87600  0.54400  0.83200  1.0000
  N   N1        1.0  0.52800  0.35900  0.32700  1.0000
  N   N2        1.0  0.47200  0.67300  0.64100  1.0000
  O   O1        1.0  0.13600  0.69800  0.01000  1.0000
  O   O2        1.0  0.73400  0.67200  0.09810  1.0000
  O   O3        1.0  0.86400  0.99000  0.30200  1.0000
  O   O4        1.0  0.26600  0.90200  0.32800  1.0000
  O   O5        1.0  0.87200  0.01820  0.62900  1.0000
  O   O6        1.0  0.66900  0.15600  0.83100  1.0000
  O   O7        1.0  0.33100  0.16900  0.84400  1.0000
  O   O8        1.0  0.12800  0.37100  0.98200  1.0000
