data_image0
_chemical_formula_structural       Cu2H4O12Pb2S2
_chemical_formula_sum              "Cu2 H4 O12 Pb2 S2"
_cell_length_a       9.39616
_cell_length_b       5.48734
_cell_length_c       4.53193
_cell_angle_alpha    90
_cell_angle_beta     106.098
_cell_angle_gamma    90

_space_group_name_H-M_alt    "P 1"
_space_group_IT_number       1

loop_
  _space_group_symop_operation_xyz
  'x, y, z'

loop_
  _atom_site_type_symbol
  _atom_site_label
  _atom_site_symmetry_multiplicity
  _atom_site_fract_x
  _atom_site_fract_y
  _atom_site_fract_z
  _atom_site_occupancy
  Cu  Cu1       1.0  0.00000  0.00000  0.00000  1.0000
  Cu  Cu2       1.0  0.00000  0.50000  0.00000  1.0000
  H   H1        1.0  0.84600  0.25000  0.23100  1.0000
  H   H2        1.0  0.96400  0.75000  0.43700  1.0000
  H   H3        1.0  0.03550  0.25000  0.56300  1.0000
  H   H4        1.0  0.15400  0.75000  0.76900  1.0000
  O   O1        1.0  0.91100  0.75000  0.19500  1.0000
  O   O2        1.0  0.66100  0.25000  0.19500  1.0000
  O   O3        1.0  0.95500  0.25000  0.25700  1.0000
  O   O4        1.0  0.24800  0.52400  0.32800  1.0000
  O   O5        1.0  0.24800  0.97600  0.32800  1.0000
  O   O6        1.0  0.48500  0.75000  0.43300  1.0000
  O   O7        1.0  0.51500  0.25000  0.56700  1.0000
  O   O8        1.0  0.75200  0.02430  0.67200  1.0000
  O   O9        1.0  0.75200  0.47600  0.67200  1.0000
  O   O10       1.0  0.04490  0.75000  0.74300  1.0000
  O   O11       1.0  0.33900  0.75000  0.80500  1.0000
  O   O12       1.0  0.08880  0.25000  0.80500  1.0000
  Pb  Pb1       1.0  0.65500  0.75000  0.02960  1.0000
  Pb  Pb2       1.0  0.34500  0.25000  0.97000  1.0000
  S   S1        1.0  0.33100  0.75000  0.46300  1.0000
  S   S2        1.0  0.66900  0.25000  0.53700  1.0000
