data_image0
_chemical_formula_structural       H12O12S2Zn
_chemical_formula_sum              "H12 O12 S2 Zn1"
_cell_length_a       6.56811
_cell_length_b       6.63713
_cell_length_c       6.12675
_cell_angle_alpha    94.1398
_cell_angle_beta     93.2327
_cell_angle_gamma    101.985

_space_group_name_H-M_alt    "P 1"
_space_group_IT_number       1

loop_
  _space_group_symop_operation_xyz
  'x, y, z'

loop_
  _atom_site_type_symbol
  _atom_site_label
  _atom_site_symmetry_multiplicity
  _atom_site_fract_x
  _atom_site_fract_y
  _atom_site_fract_z
  _atom_site_occupancy
  H   H1        1.0  0.18000  0.42300  0.07130  1.0000
  H   H2        1.0  0.31500  0.84300  0.17700  1.0000
  H   H3        1.0  0.40600  0.08470  0.18000  1.0000
  H   H4        1.0  0.84700  0.65600  0.18300  1.0000
  H   H5        1.0  0.79900  0.13200  0.30800  1.0000
  H   H6        1.0  0.02820  0.14900  0.40900  1.0000
  H   H7        1.0  0.97200  0.85100  0.59100  1.0000
  H   H8        1.0  0.20100  0.86800  0.69200  1.0000
  H   H9        1.0  0.15300  0.34400  0.81700  1.0000
  H   H10       1.0  0.59400  0.91500  0.82000  1.0000
  H   H11       1.0  0.68500  0.15700  0.82300  1.0000
  H   H12       1.0  0.82000  0.57700  0.92900  1.0000
  O   O1        1.0  0.89600  0.68700  0.03770  1.0000
  O   O2        1.0  0.29800  0.97000  0.11000  1.0000
  O   O3        1.0  0.32900  0.61000  0.27000  1.0000
  O   O4        1.0  0.91500  0.05870  0.31400  1.0000
  O   O5        1.0  0.60600  0.27200  0.33600  1.0000
  O   O6        1.0  0.80200  0.62300  0.45300  1.0000
  O   O7        1.0  0.19800  0.37700  0.54700  1.0000
  O   O8        1.0  0.39400  0.72800  0.66400  1.0000
  O   O9        1.0  0.08500  0.94100  0.68600  1.0000
  O   O10       1.0  0.67100  0.39000  0.73000  1.0000
  O   O11       1.0  0.70200  0.03010  0.89000  1.0000
  O   O12       1.0  0.10400  0.31300  0.96200  1.0000
  S   S1        1.0  0.35600  0.55400  0.49500  1.0000
  S   S2        1.0  0.64400  0.44600  0.50500  1.0000
  Zn  Zn1       1.0  0.00000  0.00000  0.00000  1.0000
