data_image0
_chemical_formula_structural       MgTe5
_chemical_formula_sum              "Mg1 Te5"
_cell_length_a       7.31068
_cell_length_b       7.31069
_cell_length_c       5.86646
_cell_angle_alpha    128.542
_cell_angle_beta     51.4578
_cell_angle_gamma    120

_space_group_name_H-M_alt    "P 1"
_space_group_IT_number       1

loop_
  _space_group_symop_operation_xyz
  'x, y, z'

loop_
  _atom_site_type_symbol
  _atom_site_label
  _atom_site_symmetry_multiplicity
  _atom_site_fract_x
  _atom_site_fract_y
  _atom_site_fract_z
  _atom_site_occupancy
  Mg  Mg1       1.0  0.83300  0.50000  0.50000  1.0000
  Te  Te1       1.0  0.71100  0.37800  0.00000  1.0000
  Te  Te2       1.0  0.95500  0.00000  0.00000  1.0000
  Te  Te3       1.0  0.33300  0.62200  0.00000  1.0000
  Te  Te4       1.0  0.50200  0.83200  0.49500  1.0000
  Te  Te5       1.0  0.16500  0.16800  0.50500  1.0000
