data_image0
_chemical_formula_structural       B12BrH12K3
_chemical_formula_sum              "B12 Br1 H12 K3"
_cell_length_a       6.79279
_cell_length_b       6.79279
_cell_length_c       6.79279
_cell_angle_alpha    93.7542
_cell_angle_beta     93.7542
_cell_angle_gamma    93.7542

_space_group_name_H-M_alt    "P 1"
_space_group_IT_number       1

loop_
  _space_group_symop_operation_xyz
  'x, y, z'

loop_
  _atom_site_type_symbol
  _atom_site_label
  _atom_site_symmetry_multiplicity
  _atom_site_fract_x
  _atom_site_fract_y
  _atom_site_fract_z
  _atom_site_occupancy
  B   B1        1.0  0.43700  0.43700  0.25900  1.0000
  B   B2        1.0  0.62600  0.62600  0.33600  1.0000
  B   B3        1.0  0.66400  0.37400  0.37400  1.0000
  B   B4        1.0  0.37400  0.66400  0.37400  1.0000
  B   B5        1.0  0.43700  0.25900  0.43700  1.0000
  B   B6        1.0  0.25900  0.43700  0.43700  1.0000
  B   B7        1.0  0.74100  0.56300  0.56300  1.0000
  B   B8        1.0  0.56300  0.74100  0.56300  1.0000
  B   B9        1.0  0.62600  0.33600  0.62600  1.0000
  B   B10       1.0  0.33600  0.62600  0.62600  1.0000
  B   B11       1.0  0.37400  0.37400  0.66400  1.0000
  B   B12       1.0  0.56300  0.56300  0.74100  1.0000
  Br  Br1       1.0  0.00000  0.00000  0.00000  1.0000
  H   H1        1.0  0.39200  0.39200  0.08740  1.0000
  H   H2        1.0  0.71700  0.71700  0.22200  1.0000
  H   H3        1.0  0.28300  0.77800  0.28300  1.0000
  H   H4        1.0  0.77800  0.28300  0.28300  1.0000
  H   H5        1.0  0.08740  0.39200  0.39200  1.0000
  H   H6        1.0  0.39200  0.08740  0.39200  1.0000
  H   H7        1.0  0.91300  0.60800  0.60800  1.0000
  H   H8        1.0  0.60800  0.91300  0.60800  1.0000
  H   H9        1.0  0.22200  0.71700  0.71700  1.0000
  H   H10       1.0  0.71700  0.22200  0.71700  1.0000
  H   H11       1.0  0.28300  0.28300  0.77800  1.0000
  H   H12       1.0  0.60800  0.60800  0.91300  1.0000
  K   K1        1.0  0.50000  1.00000  1.00000  1.0000
  K   K2        1.0  0.00000  0.50000  0.00000  1.0000
  K   K3        1.0  0.00000  1.00000  0.50000  1.0000
