data_image0
_chemical_formula_structural       C2Cu4H8O10
_chemical_formula_sum              "C2 Cu4 H8 O10"
_cell_length_a       5.88625
_cell_length_b       5.30651
_cell_length_c       7.08962
_cell_angle_alpha    90
_cell_angle_beta     97.9038
_cell_angle_gamma    90

_space_group_name_H-M_alt    "P 1"
_space_group_IT_number       1

loop_
  _space_group_symop_operation_xyz
  'x, y, z'

loop_
  _atom_site_type_symbol
  _atom_site_label
  _atom_site_symmetry_multiplicity
  _atom_site_fract_x
  _atom_site_fract_y
  _atom_site_fract_z
  _atom_site_occupancy
  C   C1        1.0  0.20000  0.74600  0.31800  1.0000
  C   C2        1.0  0.80000  0.24600  0.68200  1.0000
  Cu  Cu1       1.0  0.96700  0.50100  0.01360  1.0000
  Cu  Cu2       1.0  0.38300  0.28900  0.03980  1.0000
  Cu  Cu3       1.0  0.61700  0.78900  0.96000  1.0000
  Cu  Cu4       1.0  0.03290  0.00146  0.98600  1.0000
  H   H1        1.0  0.81900  0.15700  0.20300  1.0000
  H   H2        1.0  0.65100  0.98800  0.31500  1.0000
  H   H3        1.0  0.23800  0.27800  0.36900  1.0000
  H   H4        1.0  0.49000  0.37500  0.43000  1.0000
  H   H5        1.0  0.51000  0.87500  0.57000  1.0000
  H   H6        1.0  0.76200  0.77800  0.63100  1.0000
  H   H7        1.0  0.34900  0.48800  0.68500  1.0000
  H   H8        1.0  0.18100  0.65700  0.79700  1.0000
  O   O1        1.0  0.08400  0.24600  0.17200  1.0000
  O   O2        1.0  0.65700  0.08510  0.19300  1.0000
  O   O3        1.0  0.34200  0.72200  0.21600  1.0000
  O   O4        1.0  0.07030  0.77300  0.42700  1.0000
  O   O5        1.0  0.36000  0.30700  0.48500  1.0000
  O   O6        1.0  0.64000  0.80700  0.51500  1.0000
  O   O7        1.0  0.93000  0.27300  0.57300  1.0000
  O   O8        1.0  0.65800  0.22200  0.78400  1.0000
  O   O9        1.0  0.34300  0.58500  0.80700  1.0000
  O   O10       1.0  0.91600  0.74600  0.82800  1.0000
