data_image0
_chemical_formula_structural       Cl2H12N4O8Zn
_chemical_formula_sum              "Cl2 H12 N4 O8 Zn1"
_cell_length_a       7.05001
_cell_length_b       7.05001
_cell_length_c       7.05001
_cell_angle_alpha    120
_cell_angle_beta     90
_cell_angle_gamma    120

_space_group_name_H-M_alt    "P 1"
_space_group_IT_number       1

loop_
  _space_group_symop_operation_xyz
  'x, y, z'

loop_
  _atom_site_type_symbol
  _atom_site_label
  _atom_site_symmetry_multiplicity
  _atom_site_fract_x
  _atom_site_fract_y
  _atom_site_fract_z
  _atom_site_occupancy
  Cl  Cl1       1.0  0.75000  0.50000  0.25000  1.0000
  Cl  Cl2       1.0  0.50000  0.00000  0.50000  1.0000
  H   H1        1.0  0.21600  0.43100  0.02030  1.0000
  H   H2        1.0  0.21600  0.80500  0.02030  1.0000
  H   H3        1.0  0.58900  0.80500  0.02030  1.0000
  H   H4        1.0  0.21600  0.19500  0.41100  1.0000
  H   H5        1.0  0.21600  0.43100  0.41100  1.0000
  H   H6        1.0  0.98000  0.19500  0.41100  1.0000
  H   H7        1.0  0.21600  0.19500  0.78400  1.0000
  H   H8        1.0  0.98000  0.19500  0.78400  1.0000
  H   H9        1.0  0.58900  0.56900  0.78400  1.0000
  H   H10       1.0  0.21600  0.80500  0.78400  1.0000
  H   H11       1.0  0.58900  0.80500  0.78400  1.0000
  H   H12       1.0  0.98000  0.56900  0.78400  1.0000
  N   N1        1.0  0.11700  0.23300  0.35000  1.0000
  N   N2        1.0  0.11700  0.23300  0.88300  1.0000
  N   N3        1.0  0.11700  0.76700  0.88300  1.0000
  N   N4        1.0  0.65000  0.76700  0.88300  1.0000
  O   O1        1.0  0.49700  0.33100  0.16600  1.0000
  O   O2        1.0  0.83400  0.33100  0.16600  1.0000
  O   O3        1.0  0.83400  0.66900  0.16600  1.0000
  O   O4        1.0  0.41600  0.83100  0.24700  1.0000
  O   O5        1.0  0.83400  0.66900  0.50300  1.0000
  O   O6        1.0  0.75300  0.16900  0.58400  1.0000
  O   O7        1.0  0.41600  0.16900  0.58400  1.0000
  O   O8        1.0  0.41600  0.83100  0.58400  1.0000
  Zn  Zn1       1.0  0.00000  0.00000  0.00000  1.0000
