data_image0
_chemical_formula_structural       Al4Ca4H20
_chemical_formula_sum              "Al4 Ca4 H20"
_cell_length_a       11.9733
_cell_length_b       4.86186
_cell_length_c       4.22435
_cell_angle_alpha    90
_cell_angle_beta     90
_cell_angle_gamma    90

_space_group_name_H-M_alt    "P 1"
_space_group_IT_number       1

loop_
  _space_group_symop_operation_xyz
  'x, y, z'

loop_
  _atom_site_type_symbol
  _atom_site_label
  _atom_site_symmetry_multiplicity
  _atom_site_fract_x
  _atom_site_fract_y
  _atom_site_fract_z
  _atom_site_occupancy
  Al  Al1       1.0  0.16500  0.12700  0.06050  1.0000
  Al  Al2       1.0  0.83500  0.62700  0.43900  1.0000
  Al  Al3       1.0  0.33500  0.87300  0.56100  1.0000
  Al  Al4       1.0  0.66500  0.37300  0.93900  1.0000
  Ca  Ca1       1.0  0.91100  0.11000  0.04410  1.0000
  Ca  Ca2       1.0  0.08910  0.61000  0.45600  1.0000
  Ca  Ca3       1.0  0.58900  0.89000  0.54400  1.0000
  Ca  Ca4       1.0  0.41100  0.39000  0.95600  1.0000
  H   H1        1.0  0.58400  0.63800  0.07270  1.0000
  H   H2        1.0  0.57400  0.13500  0.08480  1.0000
  H   H3        1.0  0.92400  0.61900  0.11500  1.0000
  H   H4        1.0  0.24200  0.37300  0.23400  1.0000
  H   H5        1.0  0.24300  0.86300  0.24400  1.0000
  H   H6        1.0  0.75700  0.36300  0.25600  1.0000
  H   H7        1.0  0.75800  0.87300  0.26600  1.0000
  H   H8        1.0  0.07590  0.11900  0.38500  1.0000
  H   H9        1.0  0.42600  0.63500  0.41500  1.0000
  H   H10       1.0  0.41600  0.13800  0.42700  1.0000
  H   H11       1.0  0.91600  0.36200  0.57300  1.0000
  H   H12       1.0  0.92600  0.86500  0.58500  1.0000
  H   H13       1.0  0.57600  0.38100  0.61500  1.0000
  H   H14       1.0  0.25800  0.62700  0.73400  1.0000
  H   H15       1.0  0.25700  0.13700  0.74400  1.0000
  H   H16       1.0  0.74300  0.63700  0.75600  1.0000
  H   H17       1.0  0.74200  0.12700  0.76600  1.0000
  H   H18       1.0  0.42400  0.88100  0.88500  1.0000
  H   H19       1.0  0.07390  0.36500  0.91500  1.0000
  H   H20       1.0  0.08410  0.86200  0.92700  1.0000
