data_image0
_chemical_formula_structural       Au4Cs4H12N4
_chemical_formula_sum              "Au4 Cs4 H12 N4"
_cell_length_a       5.14627
_cell_length_b       5.14627
_cell_length_c       16.7135
_cell_angle_alpha    98.9677
_cell_angle_beta     97.4254
_cell_angle_gamma    94.2461

_space_group_name_H-M_alt    "P 1"
_space_group_IT_number       1

loop_
  _space_group_symop_operation_xyz
  'x, y, z'

loop_
  _atom_site_type_symbol
  _atom_site_label
  _atom_site_symmetry_multiplicity
  _atom_site_fract_x
  _atom_site_fract_y
  _atom_site_fract_z
  _atom_site_occupancy
  Au  Au1       1.0  0.27100  0.02330  0.05230  1.0000
  Au  Au2       1.0  0.47100  0.21900  0.44800  1.0000
  Au  Au3       1.0  0.52900  0.78100  0.55200  1.0000
  Au  Au4       1.0  0.72900  0.97700  0.94800  1.0000
  Cs  Cs1       1.0  0.79000  0.55600  0.10500  1.0000
  Cs  Cs2       1.0  0.95100  0.68500  0.39500  1.0000
  Cs  Cs3       1.0  0.04860  0.31500  0.60500  1.0000
  Cs  Cs4       1.0  0.21000  0.44400  0.89500  1.0000
  H   H1        1.0  0.08810  0.15400  0.19000  1.0000
  H   H2        1.0  0.41000  0.88200  0.20900  1.0000
  H   H3        1.0  0.36500  0.61200  0.24800  1.0000
  H   H4        1.0  0.86300  0.11600  0.25200  1.0000
  H   H5        1.0  0.17400  0.20100  0.29100  1.0000
  H   H6        1.0  0.46400  0.89800  0.31000  1.0000
  H   H7        1.0  0.53600  0.10200  0.69000  1.0000
  H   H8        1.0  0.82600  0.79900  0.70900  1.0000
  H   H9        1.0  0.13700  0.88400  0.74800  1.0000
  H   H10       1.0  0.63500  0.38800  0.75200  1.0000
  H   H11       1.0  0.59000  0.11800  0.79100  1.0000
  H   H12       1.0  0.91200  0.84600  0.81000  1.0000
  N   N1        1.0  0.02880  0.23300  0.24600  1.0000
  N   N2        1.0  0.48800  0.78300  0.25400  1.0000
  N   N3        1.0  0.51200  0.21700  0.74600  1.0000
  N   N4        1.0  0.97100  0.76700  0.75400  1.0000
