data_image0
_chemical_formula_structural       F8O4Se4
_chemical_formula_sum              "F8 O4 Se4"
_cell_length_a       5.16329
_cell_length_b       7.12497
_cell_length_c       5.73667
_cell_angle_alpha    90
_cell_angle_beta     90
_cell_angle_gamma    90

_space_group_name_H-M_alt    "P 1"
_space_group_IT_number       1

loop_
  _space_group_symop_operation_xyz
  'x, y, z'

loop_
  _atom_site_type_symbol
  _atom_site_label
  _atom_site_symmetry_multiplicity
  _atom_site_fract_x
  _atom_site_fract_y
  _atom_site_fract_z
  _atom_site_occupancy
  F   F1        1.0  0.86500  0.28300  0.00924  1.0000
  F   F2        1.0  0.36500  0.71700  0.00924  1.0000
  F   F3        1.0  0.17300  0.40800  0.30700  1.0000
  F   F4        1.0  0.67300  0.59200  0.30700  1.0000
  F   F5        1.0  0.63500  0.28300  0.50900  1.0000
  F   F6        1.0  0.13500  0.71700  0.50900  1.0000
  F   F7        1.0  0.32700  0.40800  0.80700  1.0000
  F   F8        1.0  0.82700  0.59200  0.80700  1.0000
  O   O1        1.0  0.27900  0.08870  0.11000  1.0000
  O   O2        1.0  0.77900  0.91100  0.11000  1.0000
  O   O3        1.0  0.22100  0.08870  0.61000  1.0000
  O   O4        1.0  0.72100  0.91100  0.61000  1.0000
  Se  Se1       1.0  0.03500  0.18700  0.25600  1.0000
  Se  Se2       1.0  0.53500  0.81300  0.25600  1.0000
  Se  Se3       1.0  0.46500  0.18700  0.75600  1.0000
  Se  Se4       1.0  0.96500  0.81300  0.75600  1.0000
