data_image0
_chemical_formula_structural       F10Fe2H8Mn2O4
_chemical_formula_sum              "F10 Fe2 H8 Mn2 O4"
_cell_length_a       6.36477
_cell_length_b       7.24005
_cell_length_c       7.24005
_cell_angle_alpha    94.03
_cell_angle_beta     116.075
_cell_angle_gamma    116.075

_space_group_name_H-M_alt    "P 1"
_space_group_IT_number       1

loop_
  _space_group_symop_operation_xyz
  'x, y, z'

loop_
  _atom_site_type_symbol
  _atom_site_label
  _atom_site_symmetry_multiplicity
  _atom_site_fract_x
  _atom_site_fract_y
  _atom_site_fract_z
  _atom_site_occupancy
  F   F1        1.0  0.25800  0.34300  0.09430  1.0000
  F   F2        1.0  0.74200  0.40600  0.15700  1.0000
  F   F3        1.0  0.67900  0.75000  0.25000  1.0000
  F   F4        1.0  0.17900  0.09430  0.34300  1.0000
  F   F5        1.0  0.82100  0.15700  0.40600  1.0000
  F   F6        1.0  0.17900  0.84300  0.59400  1.0000
  F   F7        1.0  0.82100  0.90600  0.65700  1.0000
  F   F8        1.0  0.32100  0.25000  0.75000  1.0000
  F   F9        1.0  0.25800  0.59400  0.84300  1.0000
  F   F10       1.0  0.74200  0.65700  0.90600  1.0000
  Fe  Fe1       1.0  0.00000  0.00000  0.50000  1.0000
  Fe  Fe2       1.0  0.50000  0.50000  0.00000  1.0000
  H   H1        1.0  0.71700  0.20100  0.00863  1.0000
  H   H2        1.0  0.49300  0.00863  0.20100  1.0000
  H   H3        1.0  0.28300  0.49100  0.29900  1.0000
  H   H4        1.0  0.50700  0.29900  0.49100  1.0000
  H   H5        1.0  0.49300  0.70100  0.50900  1.0000
  H   H6        1.0  0.71700  0.50900  0.70100  1.0000
  H   H7        1.0  0.50700  0.99100  0.79900  1.0000
  H   H8        1.0  0.28300  0.79900  0.99100  1.0000
  Mn  Mn1       1.0  0.00000  0.00000  0.00000  1.0000
  Mn  Mn2       1.0  0.00000  0.50000  0.50000  1.0000
  O   O1        1.0  0.30400  0.92500  0.07490  1.0000
  O   O2        1.0  0.30400  0.57500  0.42500  1.0000
  O   O3        1.0  0.69600  0.42500  0.57500  1.0000
  O   O4        1.0  0.69600  0.07490  0.92500  1.0000
