data_image0
_chemical_formula_structural       H5Na3O16Se4
_chemical_formula_sum              "H5 Na3 O16 Se4"
_cell_length_a       5.72843
_cell_length_b       7.16985
_cell_length_c       8.74909
_cell_angle_alpha    104.736
_cell_angle_beta     91.5337
_cell_angle_gamma    105.494

_space_group_name_H-M_alt    "P 1"
_space_group_IT_number       1

loop_
  _space_group_symop_operation_xyz
  'x, y, z'

loop_
  _atom_site_type_symbol
  _atom_site_label
  _atom_site_symmetry_multiplicity
  _atom_site_fract_x
  _atom_site_fract_y
  _atom_site_fract_z
  _atom_site_occupancy
  H   H1        1.0  0.39600  0.12400  0.13900  1.0000
  H   H2        1.0  0.14300  0.37700  0.38800  1.0000
  H   H3        1.0  0.50000  0.00000  0.50000  1.0000
  H   H4        1.0  0.85700  0.62300  0.61200  1.0000
  H   H5        1.0  0.60400  0.87600  0.86100  1.0000
  Na  Na1       1.0  0.80600  0.63100  0.08460  1.0000
  Na  Na2       1.0  0.00000  0.00000  0.50000  1.0000
  Na  Na3       1.0  0.19400  0.36900  0.91500  1.0000
  O   O1        1.0  0.73900  0.91600  0.03160  1.0000
  O   O2        1.0  0.87700  0.32600  0.07400  1.0000
  O   O3        1.0  0.42500  0.54700  0.16700  1.0000
  O   O4        1.0  0.51700  0.15200  0.23700  1.0000
  O   O5        1.0  0.10300  0.75800  0.30300  1.0000
  O   O6        1.0  0.98000  0.16800  0.31300  1.0000
  O   O7        1.0  0.57000  0.85700  0.43400  1.0000
  O   O8        1.0  0.25900  0.51600  0.45300  1.0000
  O   O9        1.0  0.74100  0.48400  0.54700  1.0000
  O   O10       1.0  0.43000  0.14300  0.56600  1.0000
  O   O11       1.0  0.02010  0.83200  0.68700  1.0000
  O   O12       1.0  0.89700  0.24200  0.69700  1.0000
  O   O13       1.0  0.48300  0.84800  0.76300  1.0000
  O   O14       1.0  0.57500  0.45300  0.83300  1.0000
  O   O15       1.0  0.12300  0.67400  0.92600  1.0000
  O   O16       1.0  0.26100  0.08440  0.96800  1.0000
  Se  Se1       1.0  0.79000  0.14200  0.15800  1.0000
  Se  Se2       1.0  0.33300  0.66800  0.32700  1.0000
  Se  Se3       1.0  0.66700  0.33200  0.67300  1.0000
  Se  Se4       1.0  0.21000  0.85800  0.84200  1.0000
