data_image0
_chemical_formula_structural       C2F6H12N6Ti
_chemical_formula_sum              "C2 F6 H12 N6 Ti1"
_cell_length_a       5.65225
_cell_length_b       7.21326
_cell_length_c       7.24137
_cell_angle_alpha    119.872
_cell_angle_beta     111.561
_cell_angle_gamma    90

_space_group_name_H-M_alt    "P 1"
_space_group_IT_number       1

loop_
  _space_group_symop_operation_xyz
  'x, y, z'

loop_
  _atom_site_type_symbol
  _atom_site_label
  _atom_site_symmetry_multiplicity
  _atom_site_fract_x
  _atom_site_fract_y
  _atom_site_fract_z
  _atom_site_occupancy
  C   C1        1.0  0.86400  0.79300  0.58600  1.0000
  C   C2        1.0  0.30800  0.34200  0.68400  1.0000
  F   F1        1.0  0.80500  0.24000  0.10900  1.0000
  F   F2        1.0  0.80500  0.86900  0.10900  1.0000
  F   F3        1.0  0.36000  0.26500  0.16000  1.0000
  F   F4        1.0  0.36000  0.89500  0.16000  1.0000
  F   F5        1.0  0.76400  0.23200  0.46500  1.0000
  F   F6        1.0  0.40400  0.90300  0.80600  1.0000
  H   H1        1.0  0.86100  0.52300  0.28900  1.0000
  H   H2        1.0  0.86100  0.76500  0.28900  1.0000
  H   H3        1.0  0.30700  0.04490  0.41500  1.0000
  H   H4        1.0  0.30700  0.37000  0.41500  1.0000
  H   H5        1.0  0.84800  0.08740  0.60800  1.0000
  H   H6        1.0  0.84800  0.52000  0.60800  1.0000
  H   H7        1.0  0.32400  0.04730  0.66100  1.0000
  H   H8        1.0  0.32400  0.61400  0.66100  1.0000
  H   H9        1.0  0.85300  0.08780  0.85000  1.0000
  H   H10       1.0  0.85300  0.76300  0.85000  1.0000
  H   H11       1.0  0.32400  0.37200  0.98600  1.0000
  H   H12       1.0  0.32400  0.61400  0.98600  1.0000
  N   N1        1.0  0.87600  0.68900  0.37800  1.0000
  N   N2        1.0  0.30200  0.12800  0.57500  1.0000
  N   N3        1.0  0.30200  0.44800  0.57500  1.0000
  N   N4        1.0  0.86300  0.00595  0.69200  1.0000
  N   N5        1.0  0.86300  0.68600  0.69200  1.0000
  N   N6        1.0  0.31000  0.44900  0.89700  1.0000
  Ti  Ti1       1.0  0.58300  0.06760  0.13500  1.0000
