data_image0
_chemical_formula_structural       B12ClH12Rb3
_chemical_formula_sum              "B12 Cl1 H12 Rb3"
_cell_length_a       6.86821
_cell_length_b       6.86821
_cell_length_c       6.86821
_cell_angle_alpha    92.8726
_cell_angle_beta     92.8726
_cell_angle_gamma    92.8726

_space_group_name_H-M_alt    "P 1"
_space_group_IT_number       1

loop_
  _space_group_symop_operation_xyz
  'x, y, z'

loop_
  _atom_site_type_symbol
  _atom_site_label
  _atom_site_symmetry_multiplicity
  _atom_site_fract_x
  _atom_site_fract_y
  _atom_site_fract_z
  _atom_site_occupancy
  B   B1        1.0  0.23800  0.05950  0.05950  1.0000
  B   B2        1.0  0.05950  0.23800  0.05950  1.0000
  B   B3        1.0  0.83600  0.12500  0.12500  1.0000
  B   B4        1.0  0.12500  0.83600  0.12500  1.0000
  B   B5        1.0  0.87500  0.87500  0.16400  1.0000
  B   B6        1.0  0.05950  0.05950  0.23800  1.0000
  B   B7        1.0  0.94100  0.94100  0.76200  1.0000
  B   B8        1.0  0.12500  0.12500  0.83600  1.0000
  B   B9        1.0  0.87500  0.16400  0.87500  1.0000
  B   B10       1.0  0.16400  0.87500  0.87500  1.0000
  B   B11       1.0  0.94100  0.76200  0.94100  1.0000
  B   B12       1.0  0.76200  0.94100  0.94100  1.0000
  Cl  Cl1       1.0  0.50000  0.50000  0.50000  1.0000
  H   H1        1.0  0.40600  0.10200  0.10200  1.0000
  H   H2        1.0  0.10200  0.40600  0.10200  1.0000
  H   H3        1.0  0.72200  0.21600  0.21600  1.0000
  H   H4        1.0  0.21600  0.72200  0.21600  1.0000
  H   H5        1.0  0.78400  0.78400  0.27800  1.0000
  H   H6        1.0  0.10200  0.10200  0.40600  1.0000
  H   H7        1.0  0.89800  0.89800  0.59400  1.0000
  H   H8        1.0  0.21600  0.21600  0.72200  1.0000
  H   H9        1.0  0.78400  0.27800  0.78400  1.0000
  H   H10       1.0  0.27800  0.78400  0.78400  1.0000
  H   H11       1.0  0.89800  0.59400  0.89800  1.0000
  H   H12       1.0  0.59400  0.89800  0.89800  1.0000
  Rb  Rb1       1.0  0.50000  0.50000  0.00000  1.0000
  Rb  Rb2       1.0  0.50000  0.00000  0.50000  1.0000
  Rb  Rb3       1.0  0.00000  0.50000  0.50000  1.0000
