data_image0
_chemical_formula_structural       B12ClCs3H12
_chemical_formula_sum              "B12 Cl1 Cs3 H12"
_cell_length_a       7.10828
_cell_length_b       7.10828
_cell_length_c       7.10828
_cell_angle_alpha    92.7495
_cell_angle_beta     92.7495
_cell_angle_gamma    92.7495

_space_group_name_H-M_alt    "P 1"
_space_group_IT_number       1

loop_
  _space_group_symop_operation_xyz
  'x, y, z'

loop_
  _atom_site_type_symbol
  _atom_site_label
  _atom_site_symmetry_multiplicity
  _atom_site_fract_x
  _atom_site_fract_y
  _atom_site_fract_z
  _atom_site_occupancy
  B   B1        1.0  0.23000  0.05720  0.05720  1.0000
  B   B2        1.0  0.05720  0.23000  0.05720  1.0000
  B   B3        1.0  0.84100  0.12000  0.12000  1.0000
  B   B4        1.0  0.12000  0.84100  0.12000  1.0000
  B   B5        1.0  0.88000  0.88000  0.15900  1.0000
  B   B6        1.0  0.05720  0.05720  0.23000  1.0000
  B   B7        1.0  0.94300  0.94300  0.77000  1.0000
  B   B8        1.0  0.12000  0.12000  0.84100  1.0000
  B   B9        1.0  0.15900  0.88000  0.88000  1.0000
  B   B10       1.0  0.88000  0.15900  0.88000  1.0000
  B   B11       1.0  0.94300  0.77000  0.94300  1.0000
  B   B12       1.0  0.77000  0.94300  0.94300  1.0000
  Cl  Cl1       1.0  0.50000  0.50000  0.50000  1.0000
  Cs  Cs1       1.0  0.50000  0.50000  0.00000  1.0000
  Cs  Cs2       1.0  0.00000  0.50000  0.50000  1.0000
  Cs  Cs3       1.0  0.50000  0.00000  0.50000  1.0000
  H   H1        1.0  0.09640  0.39400  0.09640  1.0000
  H   H2        1.0  0.39400  0.09640  0.09640  1.0000
  H   H3        1.0  0.20700  0.72800  0.20700  1.0000
  H   H4        1.0  0.72800  0.20700  0.20700  1.0000
  H   H5        1.0  0.79300  0.79300  0.27200  1.0000
  H   H6        1.0  0.09640  0.09640  0.39400  1.0000
  H   H7        1.0  0.90400  0.90400  0.60600  1.0000
  H   H8        1.0  0.20700  0.20700  0.72800  1.0000
  H   H9        1.0  0.27200  0.79300  0.79300  1.0000
  H   H10       1.0  0.79300  0.27200  0.79300  1.0000
  H   H11       1.0  0.60600  0.90400  0.90400  1.0000
  H   H12       1.0  0.90400  0.60600  0.90400  1.0000
