data_image0
_chemical_formula_structural       C5ErH9N2O8
_chemical_formula_sum              "C5 Er1 H9 N2 O8"
_cell_length_a       6.45293
_cell_length_b       6.56167
_cell_length_c       6.56167
_cell_angle_alpha    64.2644
_cell_angle_beta     106.727
_cell_angle_gamma    106.727

_space_group_name_H-M_alt    "P 1"
_space_group_IT_number       1

loop_
  _space_group_symop_operation_xyz
  'x, y, z'

loop_
  _atom_site_type_symbol
  _atom_site_label
  _atom_site_symmetry_multiplicity
  _atom_site_fract_x
  _atom_site_fract_y
  _atom_site_fract_z
  _atom_site_occupancy
  C   C1        1.0  0.69900  0.53000  0.29500  1.0000
  C   C2        1.0  0.96000  0.06270  0.46200  1.0000
  C   C3        1.0  0.30100  0.70500  0.47000  1.0000
  C   C4        1.0  0.50000  0.07300  0.92700  1.0000
  C   C5        1.0  0.04000  0.53800  0.93700  1.0000
  Er  Er1       1.0  1.00000  0.00291  0.99700  1.0000
  H   H1        1.0  0.50000  0.91500  0.08460  1.0000
  H   H2        1.0  0.40500  0.34300  0.19300  1.0000
  H   H3        1.0  0.80900  0.54200  0.45400  1.0000
  H   H4        1.0  0.19100  0.54600  0.45800  1.0000
  H   H5        1.0  0.12700  0.16900  0.45800  1.0000
  H   H6        1.0  0.52200  0.24800  0.49400  1.0000
  H   H7        1.0  0.59500  0.80700  0.65700  1.0000
  H   H8        1.0  0.47800  0.50600  0.75200  1.0000
  H   H9        1.0  0.87300  0.54200  0.83100  1.0000
  N   N1        1.0  0.52900  0.35900  0.32800  1.0000
  N   N2        1.0  0.47100  0.67200  0.64100  1.0000
  O   O1        1.0  0.13400  0.69800  0.00798  1.0000
  O   O2        1.0  0.73700  0.67200  0.09990  1.0000
  O   O3        1.0  0.86600  0.99200  0.30200  1.0000
  O   O4        1.0  0.26300  0.90000  0.32800  1.0000
  O   O5        1.0  0.87400  0.01950  0.63100  1.0000
  O   O6        1.0  0.66900  0.15200  0.83400  1.0000
  O   O7        1.0  0.33100  0.16600  0.84800  1.0000
  O   O8        1.0  0.12600  0.36900  0.98000  1.0000
