data_image0
_chemical_formula_structural       Ge6Yb10
_chemical_formula_sum              "Ge6 Yb10"
_cell_length_a       8.80494
_cell_length_b       8.80494
_cell_length_c       6.46805
_cell_angle_alpha    90
_cell_angle_beta     90
_cell_angle_gamma    120.005

_space_group_name_H-M_alt    "P 1"
_space_group_IT_number       1

loop_
  _space_group_symop_operation_xyz
  'x, y, z'

loop_
  _atom_site_type_symbol
  _atom_site_label
  _atom_site_symmetry_multiplicity
  _atom_site_fract_x
  _atom_site_fract_y
  _atom_site_fract_z
  _atom_site_occupancy
  Ge  Ge1       1.0  0.00000  0.61500  0.25000  1.0000
  Ge  Ge2       1.0  0.61500  0.00000  0.25000  1.0000
  Ge  Ge3       1.0  0.38500  0.38500  0.25000  1.0000
  Ge  Ge4       1.0  0.38500  0.00001  0.75000  1.0000
  Ge  Ge5       1.0  0.00001  0.38500  0.75000  1.0000
  Ge  Ge6       1.0  0.61500  0.61500  0.75000  1.0000
  Yb  Yb1       1.0  0.66700  0.33300  0.00000  1.0000
  Yb  Yb2       1.0  0.33300  0.66700  0.00000  1.0000
  Yb  Yb3       1.0  0.72500  0.72500  0.25000  1.0000
  Yb  Yb4       1.0  0.00000  0.27500  0.25000  1.0000
  Yb  Yb5       1.0  0.27500  0.00000  0.25000  1.0000
  Yb  Yb6       1.0  0.66700  0.33300  0.50000  1.0000
  Yb  Yb7       1.0  0.33300  0.66700  0.50000  1.0000
  Yb  Yb8       1.0  0.27500  0.27500  0.75000  1.0000
  Yb  Yb9       1.0  0.72500  0.00001  0.75000  1.0000
  Yb  Yb10      1.0  0.00001  0.72500  0.75000  1.0000
