data_image0
_chemical_formula_structural       F12Xe4
_chemical_formula_sum              "F12 Xe4"
_cell_length_a       6.1259
_cell_length_b       6.9128
_cell_length_c       5.97139
_cell_angle_alpha    90
_cell_angle_beta     91.8579
_cell_angle_gamma    90

_space_group_name_H-M_alt    "P 1"
_space_group_IT_number       1

loop_
  _space_group_symop_operation_xyz
  'x, y, z'

loop_
  _atom_site_type_symbol
  _atom_site_label
  _atom_site_symmetry_multiplicity
  _atom_site_fract_x
  _atom_site_fract_y
  _atom_site_fract_z
  _atom_site_occupancy
  F   F1        1.0  0.19200  0.39800  0.02950  1.0000
  F   F2        1.0  0.18400  0.79700  0.17600  1.0000
  F   F3        1.0  0.48800  0.09390  0.17800  1.0000
  F   F4        1.0  0.51200  0.59400  0.32200  1.0000
  F   F5        1.0  0.81600  0.29700  0.32400  1.0000
  F   F6        1.0  0.80800  0.89800  0.47000  1.0000
  F   F7        1.0  0.19200  0.10200  0.53000  1.0000
  F   F8        1.0  0.18400  0.70300  0.67600  1.0000
  F   F9        1.0  0.48800  0.40600  0.67800  1.0000
  F   F10       1.0  0.51200  0.90600  0.82200  1.0000
  F   F11       1.0  0.81600  0.20300  0.82400  1.0000
  F   F12       1.0  0.80800  0.60200  0.97000  1.0000
  Xe  Xe1       1.0  0.00000  0.00000  0.00000  1.0000
  Xe  Xe2       1.0  0.50000  0.50000  0.00000  1.0000
  Xe  Xe3       1.0  0.50000  0.00000  0.50000  1.0000
  Xe  Xe4       1.0  0.00000  0.50000  0.50000  1.0000
