data_image0
_chemical_formula_structural       K6Sb2Se8
_chemical_formula_sum              "K6 Sb2 Se8"
_cell_length_a       8.16499
_cell_length_b       8.16499
_cell_length_c       8.16499
_cell_angle_alpha    91.1835
_cell_angle_beta     91.1835
_cell_angle_gamma    91.1835

_space_group_name_H-M_alt    "P 1"
_space_group_IT_number       1

loop_
  _space_group_symop_operation_xyz
  'x, y, z'

loop_
  _atom_site_type_symbol
  _atom_site_label
  _atom_site_symmetry_multiplicity
  _atom_site_fract_x
  _atom_site_fract_y
  _atom_site_fract_z
  _atom_site_occupancy
  K   K1        1.0  0.47900  0.53200  0.00052  1.0000
  K   K2        1.0  0.97900  0.50100  0.03180  1.0000
  K   K3        1.0  0.53200  0.00052  0.47900  1.0000
  K   K4        1.0  0.03180  0.97900  0.50100  1.0000
  K   K5        1.0  0.00052  0.47900  0.53200  1.0000
  K   K6        1.0  0.50100  0.03180  0.97900  1.0000
  Sb  Sb1       1.0  0.00003  0.00003  0.00003  1.0000
  Sb  Sb2       1.0  0.50000  0.50000  0.50000  1.0000
  Se  Se1       1.0  0.80600  0.83700  0.17500  1.0000
  Se  Se2       1.0  0.18200  0.18200  0.18200  1.0000
  Se  Se3       1.0  0.67500  0.33700  0.30600  1.0000
  Se  Se4       1.0  0.30600  0.67500  0.33700  1.0000
  Se  Se5       1.0  0.33700  0.30600  0.67500  1.0000
  Se  Se6       1.0  0.68200  0.68200  0.68200  1.0000
  Se  Se7       1.0  0.83700  0.17500  0.80600  1.0000
  Se  Se8       1.0  0.17500  0.80600  0.83700  1.0000
