data_image0
_chemical_formula_structural       F10H8Mn2O4V2
_chemical_formula_sum              "F10 H8 Mn2 O4 V2"
_cell_length_a       6.35249
_cell_length_b       7.27349
_cell_length_c       7.27349
_cell_angle_alpha    93.894
_cell_angle_beta     115.893
_cell_angle_gamma    115.893

_space_group_name_H-M_alt    "P 1"
_space_group_IT_number       1

loop_
  _space_group_symop_operation_xyz
  'x, y, z'

loop_
  _atom_site_type_symbol
  _atom_site_label
  _atom_site_symmetry_multiplicity
  _atom_site_fract_x
  _atom_site_fract_y
  _atom_site_fract_z
  _atom_site_occupancy
  F   F1        1.0  0.25300  0.33900  0.09310  1.0000
  F   F2        1.0  0.74700  0.40700  0.16100  1.0000
  F   F3        1.0  0.66800  0.75000  0.25000  1.0000
  F   F4        1.0  0.17900  0.09310  0.33900  1.0000
  F   F5        1.0  0.82100  0.16100  0.40700  1.0000
  F   F6        1.0  0.17900  0.83900  0.59300  1.0000
  F   F7        1.0  0.82100  0.90700  0.66100  1.0000
  F   F8        1.0  0.33200  0.25000  0.75000  1.0000
  F   F9        1.0  0.25300  0.59300  0.83900  1.0000
  F   F10       1.0  0.74700  0.66100  0.90700  1.0000
  H   H1        1.0  0.71500  0.19900  0.00862  1.0000
  H   H2        1.0  0.49300  0.00862  0.19900  1.0000
  H   H3        1.0  0.28500  0.49100  0.30100  1.0000
  H   H4        1.0  0.50700  0.30100  0.49100  1.0000
  H   H5        1.0  0.49300  0.69900  0.50900  1.0000
  H   H6        1.0  0.71500  0.50900  0.69900  1.0000
  H   H7        1.0  0.50700  0.99100  0.80100  1.0000
  H   H8        1.0  0.28500  0.80100  0.99100  1.0000
  Mn  Mn1       1.0  0.00000  0.00000  0.00000  1.0000
  Mn  Mn2       1.0  1.00000  0.50000  0.50000  1.0000
  O   O1        1.0  0.30500  0.92700  0.07320  1.0000
  O   O2        1.0  0.30500  0.57300  0.42700  1.0000
  O   O3        1.0  0.69500  0.42700  0.57300  1.0000
  O   O4        1.0  0.69500  0.07320  0.92700  1.0000
  V   V1        1.0  0.00000  0.00000  0.50000  1.0000
  V   V2        1.0  0.50000  0.50000  0.00000  1.0000
