data_image0
_chemical_formula_structural       CuF2H12N2O8P2
_chemical_formula_sum              "Cu1 F2 H12 N2 O8 P2"
_cell_length_a       5.11245
_cell_length_b       7.00624
_cell_length_c       7.21768
_cell_angle_alpha    112.29
_cell_angle_beta     90
_cell_angle_gamma    111.398

_space_group_name_H-M_alt    "P 1"
_space_group_IT_number       1

loop_
  _space_group_symop_operation_xyz
  'x, y, z'

loop_
  _atom_site_type_symbol
  _atom_site_label
  _atom_site_symmetry_multiplicity
  _atom_site_fract_x
  _atom_site_fract_y
  _atom_site_fract_z
  _atom_site_occupancy
  Cu  Cu1       1.0  0.00000  0.00000  0.00000  1.0000
  F   F1        1.0  0.76100  0.52100  0.39000  1.0000
  F   F2        1.0  0.23900  0.47900  0.61000  1.0000
  H   H1        1.0  0.19200  0.70800  0.17400  1.0000
  H   H2        1.0  0.51600  0.70800  0.17400  1.0000
  H   H3        1.0  0.24400  0.48800  0.18500  1.0000
  H   H4        1.0  0.17100  0.03310  0.35400  1.0000
  H   H5        1.0  0.86200  0.03310  0.35400  1.0000
  H   H6        1.0  0.37000  0.74000  0.39000  1.0000
  H   H7        1.0  0.63000  0.26000  0.61000  1.0000
  H   H8        1.0  0.13800  0.96700  0.64600  1.0000
  H   H9        1.0  0.82900  0.96700  0.64600  1.0000
  H   H10       1.0  0.75600  0.51200  0.81500  1.0000
  H   H11       1.0  0.48400  0.29200  0.82600  1.0000
  H   H12       1.0  0.80800  0.29200  0.82600  1.0000
  N   N1        1.0  0.33000  0.66000  0.23100  1.0000
  N   N2        1.0  0.67000  0.34000  0.76900  1.0000
  O   O1        1.0  0.37900  0.24500  0.10100  1.0000
  O   O2        1.0  0.86600  0.24500  0.10100  1.0000
  O   O3        1.0  0.97000  0.94000  0.29200  1.0000
  O   O4        1.0  0.56400  0.12700  0.35600  1.0000
  O   O5        1.0  0.43600  0.87300  0.64400  1.0000
  O   O6        1.0  0.02990  0.05970  0.70800  1.0000
  O   O7        1.0  0.13400  0.75500  0.89900  1.0000
  O   O8        1.0  0.62100  0.75500  0.89900  1.0000
  P   P1        1.0  0.63200  0.26400  0.22900  1.0000
  P   P2        1.0  0.36800  0.73600  0.77100  1.0000
