data_image0
_chemical_formula_structural       F6FeH12O6Sn
_chemical_formula_sum              "F6 Fe1 H12 O6 Sn1"
_cell_length_a       6.26768
_cell_length_b       6.26768
_cell_length_c       6.26768
_cell_angle_alpha    94.7931
_cell_angle_beta     94.7931
_cell_angle_gamma    94.7931

_space_group_name_H-M_alt    "P 1"
_space_group_IT_number       1

loop_
  _space_group_symop_operation_xyz
  'x, y, z'

loop_
  _atom_site_type_symbol
  _atom_site_label
  _atom_site_symmetry_multiplicity
  _atom_site_fract_x
  _atom_site_fract_y
  _atom_site_fract_z
  _atom_site_occupancy
  F   F1        1.0  0.90500  0.69800  0.04660  1.0000
  F   F2        1.0  0.30200  0.95300  0.09520  1.0000
  F   F3        1.0  0.95300  0.09520  0.30200  1.0000
  F   F4        1.0  0.04660  0.90500  0.69800  1.0000
  F   F5        1.0  0.69800  0.04660  0.90500  1.0000
  F   F6        1.0  0.09520  0.30200  0.95300  1.0000
  Fe  Fe1       1.0  0.50000  0.50000  0.50000  1.0000
  H   H1        1.0  0.29900  0.46600  0.09330  1.0000
  H   H2        1.0  0.36100  0.71300  0.16100  1.0000
  H   H3        1.0  0.83900  0.63900  0.28700  1.0000
  H   H4        1.0  0.46600  0.09330  0.29900  1.0000
  H   H5        1.0  0.71300  0.16100  0.36100  1.0000
  H   H6        1.0  0.09330  0.29900  0.46600  1.0000
  H   H7        1.0  0.90700  0.70100  0.53400  1.0000
  H   H8        1.0  0.28700  0.83900  0.63900  1.0000
  H   H9        1.0  0.53400  0.90700  0.70100  1.0000
  H   H10       1.0  0.16100  0.36100  0.71300  1.0000
  H   H11       1.0  0.63900  0.28700  0.83900  1.0000
  H   H12       1.0  0.70100  0.53400  0.90700  1.0000
  O   O1        1.0  0.39800  0.56800  0.18900  1.0000
  O   O2        1.0  0.56800  0.18900  0.39800  1.0000
  O   O3        1.0  0.81100  0.60200  0.43200  1.0000
  O   O4        1.0  0.18900  0.39800  0.56800  1.0000
  O   O5        1.0  0.43200  0.81100  0.60200  1.0000
  O   O6        1.0  0.60200  0.43200  0.81100  1.0000
  Sn  Sn1       1.0  0.00000  0.00000  0.00000  1.0000
