data_image0
_chemical_formula_structural       B12H12IRb3
_chemical_formula_sum              "B12 H12 I1 Rb3"
_cell_length_a       7.07261
_cell_length_b       7.07261
_cell_length_c       7.07261
_cell_angle_alpha    93.1788
_cell_angle_beta     93.1788
_cell_angle_gamma    93.1788

_space_group_name_H-M_alt    "P 1"
_space_group_IT_number       1

loop_
  _space_group_symop_operation_xyz
  'x, y, z'

loop_
  _atom_site_type_symbol
  _atom_site_label
  _atom_site_symmetry_multiplicity
  _atom_site_fract_x
  _atom_site_fract_y
  _atom_site_fract_z
  _atom_site_occupancy
  B   B1        1.0  0.05880  0.23100  0.05880  1.0000
  B   B2        1.0  0.23100  0.05880  0.05880  1.0000
  B   B3        1.0  0.12100  0.84100  0.12100  1.0000
  B   B4        1.0  0.84100  0.12100  0.12100  1.0000
  B   B5        1.0  0.87900  0.87900  0.15900  1.0000
  B   B6        1.0  0.05880  0.05880  0.23100  1.0000
  B   B7        1.0  0.94100  0.94100  0.76900  1.0000
  B   B8        1.0  0.12100  0.12100  0.84100  1.0000
  B   B9        1.0  0.15900  0.87900  0.87900  1.0000
  B   B10       1.0  0.87900  0.15900  0.87900  1.0000
  B   B11       1.0  0.76900  0.94100  0.94100  1.0000
  B   B12       1.0  0.94100  0.76900  0.94100  1.0000
  H   H1        1.0  0.09950  0.39700  0.09950  1.0000
  H   H2        1.0  0.39700  0.09950  0.09950  1.0000
  H   H3        1.0  0.72900  0.20800  0.20800  1.0000
  H   H4        1.0  0.20800  0.72900  0.20800  1.0000
  H   H5        1.0  0.79200  0.79200  0.27100  1.0000
  H   H6        1.0  0.09950  0.09950  0.39700  1.0000
  H   H7        1.0  0.90000  0.90000  0.60300  1.0000
  H   H8        1.0  0.20800  0.20800  0.72900  1.0000
  H   H9        1.0  0.79200  0.27100  0.79200  1.0000
  H   H10       1.0  0.27100  0.79200  0.79200  1.0000
  H   H11       1.0  0.60300  0.90000  0.90000  1.0000
  H   H12       1.0  0.90000  0.60300  0.90000  1.0000
  I   I1        1.0  0.50000  0.50000  0.50000  1.0000
  Rb  Rb1       1.0  0.50000  0.50000  0.00000  1.0000
  Rb  Rb2       1.0  0.00000  0.50000  0.50000  1.0000
  Rb  Rb3       1.0  0.50000  0.00000  0.50000  1.0000
