data_image0
_chemical_formula_structural       CdH10N4O8S2
_chemical_formula_sum              "Cd1 H10 N4 O8 S2"
_cell_length_a       5.33244
_cell_length_b       5.96906
_cell_length_c       7.27499
_cell_angle_alpha    94.6158
_cell_angle_beta     105.13
_cell_angle_gamma    92.1257

_space_group_name_H-M_alt    "P 1"
_space_group_IT_number       1

loop_
  _space_group_symop_operation_xyz
  'x, y, z'

loop_
  _atom_site_type_symbol
  _atom_site_label
  _atom_site_symmetry_multiplicity
  _atom_site_fract_x
  _atom_site_fract_y
  _atom_site_fract_z
  _atom_site_occupancy
  Cd  Cd1       1.0  0.00000  0.00000  0.00000  1.0000
  H   H1        1.0  0.19700  0.54900  0.18500  1.0000
  H   H2        1.0  0.95200  0.61000  0.29000  1.0000
  H   H3        1.0  0.40000  0.90300  0.29500  1.0000
  H   H4        1.0  0.18200  0.95500  0.41600  1.0000
  H   H5        1.0  0.25400  0.58400  0.42800  1.0000
  H   H6        1.0  0.74600  0.41600  0.57200  1.0000
  H   H7        1.0  0.81800  0.04510  0.58400  1.0000
  H   H8        1.0  0.60000  0.09730  0.70500  1.0000
  H   H9        1.0  0.04770  0.39000  0.71000  1.0000
  H   H10       1.0  0.80300  0.45100  0.81500  1.0000
  N   N1        1.0  0.20400  0.87700  0.29100  1.0000
  N   N2        1.0  0.15000  0.64200  0.29800  1.0000
  N   N3        1.0  0.85000  0.35800  0.70200  1.0000
  N   N4        1.0  0.79600  0.12300  0.70900  1.0000
  O   O1        1.0  0.77900  0.30600  0.06850  1.0000
  O   O2        1.0  0.33700  0.27600  0.10400  1.0000
  O   O3        1.0  0.68600  0.08540  0.31000  1.0000
  O   O4        1.0  0.67400  0.49700  0.34200  1.0000
  O   O5        1.0  0.32600  0.50300  0.65800  1.0000
  O   O6        1.0  0.31400  0.91500  0.69000  1.0000
  O   O7        1.0  0.66300  0.72400  0.89600  1.0000
  O   O8        1.0  0.22100  0.69400  0.93100  1.0000
  S   S1        1.0  0.61800  0.28800  0.20600  1.0000
  S   S2        1.0  0.38200  0.71200  0.79400  1.0000
