data_image0
_chemical_formula_structural       Cr2F16H4K4
_chemical_formula_sum              "Cr2 F16 H4 K4"
_cell_length_a       5.07258
_cell_length_b       7.68994
_cell_length_c       7.91236
_cell_angle_alpha    90
_cell_angle_beta     92.7268
_cell_angle_gamma    90

_space_group_name_H-M_alt    "P 1"
_space_group_IT_number       1

loop_
  _space_group_symop_operation_xyz
  'x, y, z'

loop_
  _atom_site_type_symbol
  _atom_site_label
  _atom_site_symmetry_multiplicity
  _atom_site_fract_x
  _atom_site_fract_y
  _atom_site_fract_z
  _atom_site_occupancy
  Cr  Cr1       1.0  0.00000  0.00000  0.00000  1.0000
  Cr  Cr2       1.0  0.00000  0.50000  0.50000  1.0000
  F   F1        1.0  0.89700  0.23400  0.03450  1.0000
  F   F2        1.0  0.29100  0.40500  0.05860  1.0000
  F   F3        1.0  0.69600  0.92500  0.08280  1.0000
  F   F4        1.0  0.15100  0.99500  0.21200  1.0000
  F   F5        1.0  0.84900  0.49500  0.28800  1.0000
  F   F6        1.0  0.30400  0.42500  0.41700  1.0000
  F   F7        1.0  0.70900  0.90500  0.44100  1.0000
  F   F8        1.0  0.10300  0.73400  0.46500  1.0000
  F   F9        1.0  0.89700  0.26600  0.53500  1.0000
  F   F10       1.0  0.29100  0.09520  0.55900  1.0000
  F   F11       1.0  0.69600  0.57500  0.58300  1.0000
  F   F12       1.0  0.15100  0.50500  0.71200  1.0000
  F   F13       1.0  0.84900  0.00535  0.78800  1.0000
  F   F14       1.0  0.30400  0.07510  0.91700  1.0000
  F   F15       1.0  0.70900  0.59500  0.94100  1.0000
  F   F16       1.0  0.10300  0.76600  0.96500  1.0000
  H   H1        1.0  0.11800  0.34400  0.05010  1.0000
  H   H2        1.0  0.88200  0.84400  0.45000  1.0000
  H   H3        1.0  0.11800  0.15600  0.55000  1.0000
  H   H4        1.0  0.88200  0.65600  0.95000  1.0000
  K   K1        1.0  0.43300  0.68700  0.22000  1.0000
  K   K2        1.0  0.56700  0.18700  0.28000  1.0000
  K   K3        1.0  0.43300  0.81300  0.72000  1.0000
  K   K4        1.0  0.56700  0.31300  0.78000  1.0000
