data_image0
_chemical_formula_structural       H16K2N6
_chemical_formula_sum              "H16 K2 N6"
_cell_length_a       5.85229
_cell_length_b       5.85229
_cell_length_c       6.46067
_cell_angle_alpha    90
_cell_angle_beta     90
_cell_angle_gamma    70.4579

_space_group_name_H-M_alt    "P 1"
_space_group_IT_number       1

loop_
  _space_group_symop_operation_xyz
  'x, y, z'

loop_
  _atom_site_type_symbol
  _atom_site_label
  _atom_site_symmetry_multiplicity
  _atom_site_fract_x
  _atom_site_fract_y
  _atom_site_fract_z
  _atom_site_occupancy
  H   H1        1.0  0.21500  0.48000  0.02170  1.0000
  H   H2        1.0  0.92500  0.50400  0.05160  1.0000
  H   H3        1.0  0.58900  0.42000  0.12400  1.0000
  H   H4        1.0  0.07800  0.59400  0.23600  1.0000
  H   H5        1.0  0.59400  0.07800  0.26400  1.0000
  H   H6        1.0  0.42000  0.58900  0.37600  1.0000
  H   H7        1.0  0.50400  0.92500  0.44800  1.0000
  H   H8        1.0  0.48000  0.21500  0.47800  1.0000
  H   H9        1.0  0.78500  0.52000  0.52200  1.0000
  H   H10       1.0  0.07470  0.49600  0.55200  1.0000
  H   H11       1.0  0.41100  0.58000  0.62400  1.0000
  H   H12       1.0  0.92200  0.40600  0.73600  1.0000
  H   H13       1.0  0.40600  0.92200  0.76400  1.0000
  H   H14       1.0  0.58000  0.41100  0.87600  1.0000
  H   H15       1.0  0.49600  0.07470  0.94800  1.0000
  H   H16       1.0  0.52000  0.78500  0.97800  1.0000
  K   K1        1.0  0.06420  0.06420  0.25000  1.0000
  K   K2        1.0  0.93600  0.93600  0.75000  1.0000
  N   N1        1.0  0.68100  0.31900  0.00000  1.0000
  N   N2        1.0  0.05140  0.59100  0.07880  1.0000
  N   N3        1.0  0.59100  0.05140  0.42100  1.0000
  N   N4        1.0  0.31900  0.68100  0.50000  1.0000
  N   N5        1.0  0.94900  0.40900  0.57900  1.0000
  N   N6        1.0  0.40900  0.94900  0.92100  1.0000
