data_image0
_chemical_formula_structural       Al2F10H8O4Zn2
_chemical_formula_sum              "Al2 F10 H8 O4 Zn2"
_cell_length_a       6.28782
_cell_length_b       6.93412
_cell_length_c       6.93412
_cell_angle_alpha    93.0174
_cell_angle_beta     116.962
_cell_angle_gamma    116.962

_space_group_name_H-M_alt    "P 1"
_space_group_IT_number       1

loop_
  _space_group_symop_operation_xyz
  'x, y, z'

loop_
  _atom_site_type_symbol
  _atom_site_label
  _atom_site_symmetry_multiplicity
  _atom_site_fract_x
  _atom_site_fract_y
  _atom_site_fract_z
  _atom_site_occupancy
  Al  Al1       1.0  0.00000  0.50000  0.00000  1.0000
  Al  Al2       1.0  0.50000  0.00000  0.50000  1.0000
  F   F1        1.0  0.77400  0.35000  0.09900  1.0000
  F   F2        1.0  0.22600  0.40100  0.15000  1.0000
  F   F3        1.0  0.20000  0.75000  0.25000  1.0000
  F   F4        1.0  0.67400  0.09900  0.35000  1.0000
  F   F5        1.0  0.32600  0.15000  0.40100  1.0000
  F   F6        1.0  0.67400  0.85000  0.59900  1.0000
  F   F7        1.0  0.32600  0.90100  0.65000  1.0000
  F   F8        1.0  0.80000  0.25000  0.75000  1.0000
  F   F9        1.0  0.77400  0.59900  0.85000  1.0000
  F   F10       1.0  0.22600  0.65000  0.90100  1.0000
  H   H1        1.0  0.23300  0.20700  0.01440  1.0000
  H   H2        1.0  0.98800  0.01440  0.20700  1.0000
  H   H3        1.0  0.76700  0.48600  0.29300  1.0000
  H   H4        1.0  0.01180  0.29300  0.48600  1.0000
  H   H5        1.0  0.98800  0.70700  0.51400  1.0000
  H   H6        1.0  0.23300  0.51400  0.70700  1.0000
  H   H7        1.0  0.01180  0.98600  0.79300  1.0000
  H   H8        1.0  0.76700  0.79300  0.98600  1.0000
  O   O1        1.0  0.78800  0.92000  0.08040  1.0000
  O   O2        1.0  0.78800  0.58000  0.42000  1.0000
  O   O3        1.0  0.21200  0.42000  0.58000  1.0000
  O   O4        1.0  0.21200  0.08040  0.92000  1.0000
  Zn  Zn1       1.0  0.50000  0.00000  0.00000  1.0000
  Zn  Zn2       1.0  0.50000  0.50000  0.50000  1.0000
