data_image0
_chemical_formula_structural       F10Fe2H8O4Zn2
_chemical_formula_sum              "F10 Fe2 H8 O4 Zn2"
_cell_length_a       6.19027
_cell_length_b       7.15386
_cell_length_c       7.15386
_cell_angle_alpha    94.685
_cell_angle_beta     115.636
_cell_angle_gamma    115.636

_space_group_name_H-M_alt    "P 1"
_space_group_IT_number       1

loop_
  _space_group_symop_operation_xyz
  'x, y, z'

loop_
  _atom_site_type_symbol
  _atom_site_label
  _atom_site_symmetry_multiplicity
  _atom_site_fract_x
  _atom_site_fract_y
  _atom_site_fract_z
  _atom_site_occupancy
  F   F1        1.0  0.09380  0.00000  0.00000  1.0000
  F   F2        1.0  0.00579  0.34000  0.08710  1.0000
  F   F3        1.0  0.51200  0.41200  0.15900  1.0000
  F   F4        1.0  0.00579  0.08710  0.34000  1.0000
  F   F5        1.0  0.51200  0.15900  0.41200  1.0000
  F   F6        1.0  0.42700  0.50000  0.50000  1.0000
  F   F7        1.0  0.94100  0.84100  0.58800  1.0000
  F   F8        1.0  0.57900  0.91300  0.66000  1.0000
  F   F9        1.0  0.94100  0.58800  0.84100  1.0000
  F   F10       1.0  0.57900  0.66000  0.91300  1.0000
  Fe  Fe1       1.0  0.25900  0.25000  0.25000  1.0000
  Fe  Fe2       1.0  0.76000  0.75000  0.75000  1.0000
  H   H1        1.0  0.27300  0.73200  0.05360  1.0000
  H   H2        1.0  0.03560  0.55500  0.23100  1.0000
  H   H3        1.0  0.48800  0.94600  0.26800  1.0000
  H   H4        1.0  0.25000  0.76900  0.44500  1.0000
  H   H5        1.0  0.03560  0.23100  0.55500  1.0000
  H   H6        1.0  0.27300  0.05360  0.73200  1.0000
  H   H7        1.0  0.25000  0.44500  0.76900  1.0000
  H   H8        1.0  0.48800  0.26800  0.94600  1.0000
  O   O1        1.0  0.45800  0.80800  0.19200  1.0000
  O   O2        1.0  0.06070  0.68800  0.31200  1.0000
  O   O3        1.0  0.06070  0.31200  0.68800  1.0000
  O   O4        1.0  0.45800  0.19200  0.80800  1.0000
  Zn  Zn1       1.0  0.76000  0.74900  0.25100  1.0000
  Zn  Zn2       1.0  0.76000  0.25100  0.74900  1.0000
