data_image0
_chemical_formula_structural       B12Cs3H12I
_chemical_formula_sum              "B12 Cs3 H12 I1"
_cell_length_a       7.29955
_cell_length_b       7.29955
_cell_length_c       7.29955
_cell_angle_alpha    93.2367
_cell_angle_beta     93.2367
_cell_angle_gamma    93.2367

_space_group_name_H-M_alt    "P 1"
_space_group_IT_number       1

loop_
  _space_group_symop_operation_xyz
  'x, y, z'

loop_
  _atom_site_type_symbol
  _atom_site_label
  _atom_site_symmetry_multiplicity
  _atom_site_fract_x
  _atom_site_fract_y
  _atom_site_fract_z
  _atom_site_occupancy
  B   B1        1.0  0.22500  0.05710  0.05710  1.0000
  B   B2        1.0  0.05710  0.22500  0.05710  1.0000
  B   B3        1.0  0.84600  0.11700  0.11700  1.0000
  B   B4        1.0  0.11700  0.84600  0.11700  1.0000
  B   B5        1.0  0.88300  0.88300  0.15400  1.0000
  B   B6        1.0  0.05710  0.05710  0.22500  1.0000
  B   B7        1.0  0.94300  0.94300  0.77500  1.0000
  B   B8        1.0  0.11700  0.11700  0.84600  1.0000
  B   B9        1.0  0.88300  0.15400  0.88300  1.0000
  B   B10       1.0  0.15400  0.88300  0.88300  1.0000
  B   B11       1.0  0.94300  0.77500  0.94300  1.0000
  B   B12       1.0  0.77500  0.94300  0.94300  1.0000
  Cs  Cs1       1.0  0.50000  0.50000  0.00000  1.0000
  Cs  Cs2       1.0  0.50000  0.00000  0.50000  1.0000
  Cs  Cs3       1.0  0.00000  0.50000  0.50000  1.0000
  H   H1        1.0  0.38500  0.09750  0.09750  1.0000
  H   H2        1.0  0.09750  0.38500  0.09750  1.0000
  H   H3        1.0  0.73700  0.20100  0.20100  1.0000
  H   H4        1.0  0.20100  0.73700  0.20100  1.0000
  H   H5        1.0  0.79900  0.79900  0.26300  1.0000
  H   H6        1.0  0.09750  0.09750  0.38500  1.0000
  H   H7        1.0  0.90300  0.90300  0.61500  1.0000
  H   H8        1.0  0.20100  0.20100  0.73700  1.0000
  H   H9        1.0  0.79900  0.26300  0.79900  1.0000
  H   H10       1.0  0.26300  0.79900  0.79900  1.0000
  H   H11       1.0  0.90300  0.61500  0.90300  1.0000
  H   H12       1.0  0.61500  0.90300  0.90300  1.0000
  I   I1        1.0  0.50000  0.50000  0.50000  1.0000
