data_image0
_chemical_formula_structural       B12BrCs3H12
_chemical_formula_sum              "B12 Br1 Cs3 H12"
_cell_length_a       7.16893
_cell_length_b       7.16893
_cell_length_c       7.16893
_cell_angle_alpha    93.0484
_cell_angle_beta     93.0484
_cell_angle_gamma    93.0484

_space_group_name_H-M_alt    "P 1"
_space_group_IT_number       1

loop_
  _space_group_symop_operation_xyz
  'x, y, z'

loop_
  _atom_site_type_symbol
  _atom_site_label
  _atom_site_symmetry_multiplicity
  _atom_site_fract_x
  _atom_site_fract_y
  _atom_site_fract_z
  _atom_site_occupancy
  B   B1        1.0  0.22800  0.05760  0.05760  1.0000
  B   B2        1.0  0.05760  0.22800  0.05760  1.0000
  B   B3        1.0  0.11900  0.84300  0.11900  1.0000
  B   B4        1.0  0.84300  0.11900  0.11900  1.0000
  B   B5        1.0  0.88100  0.88100  0.15700  1.0000
  B   B6        1.0  0.05760  0.05760  0.22800  1.0000
  B   B7        1.0  0.94200  0.94200  0.77200  1.0000
  B   B8        1.0  0.11900  0.11900  0.84300  1.0000
  B   B9        1.0  0.15700  0.88100  0.88100  1.0000
  B   B10       1.0  0.88100  0.15700  0.88100  1.0000
  B   B11       1.0  0.94200  0.77200  0.94200  1.0000
  B   B12       1.0  0.77200  0.94200  0.94200  1.0000
  Br  Br1       1.0  0.50000  0.50000  0.50000  1.0000
  Cs  Cs1       1.0  0.50000  0.50000  0.00000  1.0000
  Cs  Cs2       1.0  0.00000  0.50000  0.50000  1.0000
  Cs  Cs3       1.0  0.50000  0.00000  0.50000  1.0000
  H   H1        1.0  0.09720  0.39100  0.09720  1.0000
  H   H2        1.0  0.39100  0.09720  0.09720  1.0000
  H   H3        1.0  0.73100  0.20500  0.20500  1.0000
  H   H4        1.0  0.20500  0.73100  0.20500  1.0000
  H   H5        1.0  0.79500  0.79500  0.26900  1.0000
  H   H6        1.0  0.09720  0.09720  0.39100  1.0000
  H   H7        1.0  0.90300  0.90300  0.60900  1.0000
  H   H8        1.0  0.20500  0.20500  0.73100  1.0000
  H   H9        1.0  0.79500  0.26900  0.79500  1.0000
  H   H10       1.0  0.26900  0.79500  0.79500  1.0000
  H   H11       1.0  0.60900  0.90300  0.90300  1.0000
  H   H12       1.0  0.90300  0.60900  0.90300  1.0000
