data_image0
_chemical_formula_structural       Cs4H4O14P4
_chemical_formula_sum              "Cs4 H4 O14 P4"
_cell_length_a       5.9664
_cell_length_b       5.9664
_cell_length_c       11.2331
_cell_angle_alpha    90.2587
_cell_angle_beta     90.2587
_cell_angle_gamma    97.1862

_space_group_name_H-M_alt    "P 1"
_space_group_IT_number       1

loop_
  _space_group_symop_operation_xyz
  'x, y, z'

loop_
  _atom_site_type_symbol
  _atom_site_label
  _atom_site_symmetry_multiplicity
  _atom_site_fract_x
  _atom_site_fract_y
  _atom_site_fract_z
  _atom_site_occupancy
  Cs  Cs1       1.0  0.27900  0.73200  0.02160  1.0000
  Cs  Cs2       1.0  0.26800  0.72100  0.47800  1.0000
  Cs  Cs3       1.0  0.73200  0.27900  0.52200  1.0000
  Cs  Cs4       1.0  0.72100  0.26800  0.97800  1.0000
  H   H1        1.0  0.89300  0.48700  0.23800  1.0000
  H   H2        1.0  0.51300  0.10700  0.26200  1.0000
  H   H3        1.0  0.48700  0.89300  0.73800  1.0000
  H   H4        1.0  0.10700  0.51300  0.76200  1.0000
  O   O1        1.0  0.21000  0.24600  0.10600  1.0000
  O   O2        1.0  0.80100  0.59900  0.19100  1.0000
  O   O3        1.0  0.64900  0.97100  0.19500  1.0000
  O   O4        1.0  0.06170  0.93800  0.25000  1.0000
  O   O5        1.0  0.02920  0.35100  0.30500  1.0000
  O   O6        1.0  0.40100  0.19900  0.30900  1.0000
  O   O7        1.0  0.75400  0.79000  0.39400  1.0000
  O   O8        1.0  0.24600  0.21000  0.60600  1.0000
  O   O9        1.0  0.59900  0.80100  0.69100  1.0000
  O   O10       1.0  0.97100  0.64900  0.69500  1.0000
  O   O11       1.0  0.93800  0.06170  0.75000  1.0000
  O   O12       1.0  0.35100  0.02920  0.80500  1.0000
  O   O13       1.0  0.19900  0.40100  0.80900  1.0000
  O   O14       1.0  0.79000  0.75400  0.89400  1.0000
  P   P1        1.0  0.17400  0.20200  0.23700  1.0000
  P   P2        1.0  0.79800  0.82600  0.26300  1.0000
  P   P3        1.0  0.20200  0.17400  0.73700  1.0000
  P   P4        1.0  0.82600  0.79800  0.76300  1.0000
