data_image0
_chemical_formula_structural       Bi2CaNb2O9
_chemical_formula_sum              "Bi2 Ca1 Nb2 O9"
_cell_length_a       3.87262
_cell_length_b       3.87262
_cell_length_c       13.6343
_cell_angle_alpha    98.1919
_cell_angle_beta     98.1919
_cell_angle_gamma    89.8096

_space_group_name_H-M_alt    "P 1"
_space_group_IT_number       1

loop_
  _space_group_symop_operation_xyz
  'x, y, z'

loop_
  _atom_site_type_symbol
  _atom_site_label
  _atom_site_symmetry_multiplicity
  _atom_site_fract_x
  _atom_site_fract_y
  _atom_site_fract_z
  _atom_site_occupancy
  Bi  Bi1       1.0  0.20200  0.20200  0.40500  1.0000
  Bi  Bi2       1.0  0.79800  0.79800  0.59500  1.0000
  Ca  Ca1       1.0  0.50000  0.50000  0.00000  1.0000
  Nb  Nb1       1.0  0.07640  0.07640  0.15300  1.0000
  Nb  Nb2       1.0  0.92400  0.92400  0.84700  1.0000
  O   O1        1.0  0.00000  0.00000  0.00000  1.0000
  O   O2        1.0  0.56800  0.06760  0.13500  1.0000
  O   O3        1.0  0.06760  0.56800  0.13500  1.0000
  O   O4        1.0  0.66200  0.66200  0.32400  1.0000
  O   O5        1.0  0.75000  0.25000  0.50000  1.0000
  O   O6        1.0  0.25000  0.75000  0.50000  1.0000
  O   O7        1.0  0.33800  0.33800  0.67600  1.0000
  O   O8        1.0  0.93200  0.43200  0.86500  1.0000
  O   O9        1.0  0.43200  0.93200  0.86500  1.0000
