data_image0
_chemical_formula_structural       F10H4K4Mn2O2
_chemical_formula_sum              "F10 H4 K4 Mn2 O2"
_cell_length_a       5.62857
_cell_length_b       8.11059
_cell_length_c       5.92629
_cell_angle_alpha    90
_cell_angle_beta     96.0754
_cell_angle_gamma    90

_space_group_name_H-M_alt    "P 1"
_space_group_IT_number       1

loop_
  _space_group_symop_operation_xyz
  'x, y, z'

loop_
  _atom_site_type_symbol
  _atom_site_label
  _atom_site_symmetry_multiplicity
  _atom_site_fract_x
  _atom_site_fract_y
  _atom_site_fract_z
  _atom_site_occupancy
  F   F1        1.0  0.05360  0.75000  0.98900  1.0000
  F   F2        1.0  0.94600  0.25000  0.01090  1.0000
  F   F3        1.0  0.74500  0.52900  0.17100  1.0000
  F   F4        1.0  0.74500  0.97100  0.17100  1.0000
  F   F5        1.0  0.21100  0.01280  0.27300  1.0000
  F   F6        1.0  0.21100  0.48700  0.27300  1.0000
  F   F7        1.0  0.78900  0.51300  0.72700  1.0000
  F   F8        1.0  0.78900  0.98700  0.72700  1.0000
  F   F9        1.0  0.25500  0.02930  0.82900  1.0000
  F   F10       1.0  0.25500  0.47100  0.82900  1.0000
  H   H1        1.0  0.37300  0.65100  0.36700  1.0000
  H   H2        1.0  0.37300  0.84900  0.36700  1.0000
  H   H3        1.0  0.62700  0.15100  0.63300  1.0000
  H   H4        1.0  0.62700  0.34900  0.63300  1.0000
  K   K1        1.0  0.49500  0.25000  0.10500  1.0000
  K   K2        1.0  0.92800  0.75000  0.47300  1.0000
  K   K3        1.0  0.07210  0.25000  0.52700  1.0000
  K   K4        1.0  0.50500  0.75000  0.89500  1.0000
  Mn  Mn1       1.0  0.00000  0.00000  0.00000  1.0000
  Mn  Mn2       1.0  0.00000  0.50000  0.00000  1.0000
  O   O1        1.0  0.44200  0.75000  0.44600  1.0000
  O   O2        1.0  0.55800  0.25000  0.55400  1.0000
