data_image0
_chemical_formula_structural       C4Cl4H12O4S4
_chemical_formula_sum              "C4 Cl4 H12 O4 S4"
_cell_length_a       5.20852
_cell_length_b       8.30679
_cell_length_c       8.73542
_cell_angle_alpha    90
_cell_angle_beta     90.5554
_cell_angle_gamma    90

_space_group_name_H-M_alt    "P 1"
_space_group_IT_number       1

loop_
  _space_group_symop_operation_xyz
  'x, y, z'

loop_
  _atom_site_type_symbol
  _atom_site_label
  _atom_site_symmetry_multiplicity
  _atom_site_fract_x
  _atom_site_fract_y
  _atom_site_fract_z
  _atom_site_occupancy
  C   C1        1.0  0.22300  0.65000  0.10400  1.0000
  C   C2        1.0  0.27700  0.15000  0.39600  1.0000
  C   C3        1.0  0.72300  0.85000  0.60400  1.0000
  C   C4        1.0  0.77700  0.35000  0.89600  1.0000
  Cl  Cl1       1.0  0.67600  0.01320  0.19900  1.0000
  Cl  Cl2       1.0  0.82400  0.51300  0.30100  1.0000
  Cl  Cl3       1.0  0.17600  0.48700  0.69900  1.0000
  Cl  Cl4       1.0  0.32400  0.98700  0.80100  1.0000
  H   H1        1.0  0.21000  0.53500  0.04240  1.0000
  H   H2        1.0  0.06600  0.73100  0.07230  1.0000
  H   H3        1.0  0.41100  0.70500  0.08490  1.0000
  H   H4        1.0  0.08870  0.20500  0.41500  1.0000
  H   H5        1.0  0.43400  0.23100  0.42800  1.0000
  H   H6        1.0  0.29000  0.03500  0.45800  1.0000
  H   H7        1.0  0.71000  0.96500  0.54200  1.0000
  H   H8        1.0  0.56600  0.76900  0.57200  1.0000
  H   H9        1.0  0.91100  0.79500  0.58500  1.0000
  H   H10       1.0  0.58900  0.29500  0.91500  1.0000
  H   H11       1.0  0.93400  0.26900  0.92800  1.0000
  H   H12       1.0  0.79000  0.46500  0.95800  1.0000
  O   O1        1.0  0.29300  0.26500  0.11800  1.0000
  O   O2        1.0  0.20700  0.76500  0.38200  1.0000
  O   O3        1.0  0.79300  0.23500  0.61800  1.0000
  O   O4        1.0  0.70700  0.73500  0.88200  1.0000
  S   S1        1.0  0.28800  0.10700  0.19600  1.0000
  S   S2        1.0  0.21200  0.60700  0.30400  1.0000
  S   S3        1.0  0.78800  0.39300  0.69600  1.0000
  S   S4        1.0  0.71200  0.89300  0.80400  1.0000
