data_image0
_chemical_formula_structural       As4H6Li2O14
_chemical_formula_sum              "As4 H6 Li2 O14"
_cell_length_a       5.8632
_cell_length_b       7.41985
_cell_length_c       7.41985
_cell_angle_alpha    108.638
_cell_angle_beta     106.75
_cell_angle_gamma    73.2497

_space_group_name_H-M_alt    "P 1"
_space_group_IT_number       1

loop_
  _space_group_symop_operation_xyz
  'x, y, z'

loop_
  _atom_site_type_symbol
  _atom_site_label
  _atom_site_symmetry_multiplicity
  _atom_site_fract_x
  _atom_site_fract_y
  _atom_site_fract_z
  _atom_site_occupancy
  As  As1       1.0  0.98100  0.74700  0.25300  1.0000
  As  As2       1.0  0.50000  0.31700  0.31700  1.0000
  As  As3       1.0  0.50000  0.68300  0.68300  1.0000
  As  As4       1.0  0.01860  0.25300  0.74700  1.0000
  H   H1        1.0  0.49500  0.78200  0.13100  1.0000
  H   H2        1.0  0.49500  0.86900  0.21800  1.0000
  H   H3        1.0  0.74900  0.55300  0.44700  1.0000
  H   H4        1.0  0.25100  0.44700  0.55300  1.0000
  H   H5        1.0  0.50500  0.13100  0.78200  1.0000
  H   H6        1.0  0.50500  0.21800  0.86900  1.0000
  Li  Li1       1.0  0.00000  0.15400  0.15400  1.0000
  Li  Li2       1.0  0.00000  0.84600  0.84600  1.0000
  O   O1        1.0  0.81600  0.92200  0.07800  1.0000
  O   O2        1.0  0.09990  0.87000  0.13000  1.0000
  O   O3        1.0  0.19200  0.49000  0.14300  1.0000
  O   O4        1.0  0.12200  0.39200  0.25900  1.0000
  O   O5        1.0  0.87800  0.25900  0.39200  1.0000
  O   O6        1.0  0.56800  0.58800  0.41200  1.0000
  O   O7        1.0  0.80800  0.14300  0.49000  1.0000
  O   O8        1.0  0.19200  0.85700  0.51000  1.0000
  O   O9        1.0  0.43200  0.41200  0.58800  1.0000
  O   O10       1.0  0.12200  0.74100  0.60800  1.0000
  O   O11       1.0  0.87800  0.60800  0.74100  1.0000
  O   O12       1.0  0.80800  0.51000  0.85700  1.0000
  O   O13       1.0  0.90000  0.13000  0.87000  1.0000
  O   O14       1.0  0.18400  0.07800  0.92200  1.0000
