data_image0
_chemical_formula_structural       Al4K4O8
_chemical_formula_sum              "Al4 K4 O8"
_cell_length_a       5.47614
_cell_length_b       5.47614
_cell_length_c       7.75064
_cell_angle_alpha    90
_cell_angle_beta     90
_cell_angle_gamma    90

_space_group_name_H-M_alt    "P 1"
_space_group_IT_number       1

loop_
  _space_group_symop_operation_xyz
  'x, y, z'

loop_
  _atom_site_type_symbol
  _atom_site_label
  _atom_site_symmetry_multiplicity
  _atom_site_fract_x
  _atom_site_fract_y
  _atom_site_fract_z
  _atom_site_occupancy
  Al  Al1       1.0  0.29000  0.29000  0.00000  1.0000
  Al  Al2       1.0  0.21000  0.79000  0.25000  1.0000
  Al  Al3       1.0  0.71000  0.71000  0.50000  1.0000
  Al  Al4       1.0  0.79000  0.21000  0.75000  1.0000
  K   K1        1.0  0.73100  0.73100  0.00000  1.0000
  K   K2        1.0  0.76900  0.23100  0.25000  1.0000
  K   K3        1.0  0.26900  0.26900  0.50000  1.0000
  K   K4        1.0  0.23100  0.76900  0.75000  1.0000
  O   O1        1.0  0.25700  0.59400  0.07340  1.0000
  O   O2        1.0  0.24300  0.09350  0.17700  1.0000
  O   O3        1.0  0.90600  0.75700  0.32300  1.0000
  O   O4        1.0  0.40600  0.74300  0.42700  1.0000
  O   O5        1.0  0.74300  0.40600  0.57300  1.0000
  O   O6        1.0  0.75700  0.90600  0.67700  1.0000
  O   O7        1.0  0.09350  0.24300  0.82300  1.0000
  O   O8        1.0  0.59400  0.25700  0.92700  1.0000
