data_image0
_chemical_formula_structural       La10Si6
_chemical_formula_sum              "La10 Si6"
_cell_length_a       7.99645
_cell_length_b       7.99645
_cell_length_c       8.93867
_cell_angle_alpha    116.57
_cell_angle_beta     116.57
_cell_angle_gamma    90

_space_group_name_H-M_alt    "P 1"
_space_group_IT_number       1

loop_
  _space_group_symop_operation_xyz
  'x, y, z'

loop_
  _atom_site_type_symbol
  _atom_site_label
  _atom_site_symmetry_multiplicity
  _atom_site_fract_x
  _atom_site_fract_y
  _atom_site_fract_z
  _atom_site_occupancy
  La  La1       1.0  0.00000  0.00000  0.00000  1.0000
  La  La2       1.0  0.50000  0.50000  0.00000  1.0000
  La  La3       1.0  0.46900  0.32600  0.29500  1.0000
  La  La4       1.0  0.96900  0.46900  0.29500  1.0000
  La  La5       1.0  0.32600  0.82600  0.29500  1.0000
  La  La6       1.0  0.82600  0.96900  0.29500  1.0000
  La  La7       1.0  0.17400  0.03140  0.70500  1.0000
  La  La8       1.0  0.67400  0.17400  0.70500  1.0000
  La  La9       1.0  0.03140  0.53100  0.70500  1.0000
  La  La10      1.0  0.53100  0.67400  0.70500  1.0000
  Si  Si1       1.0  0.61300  0.11300  0.00000  1.0000
  Si  Si2       1.0  0.11300  0.38700  0.00000  1.0000
  Si  Si3       1.0  0.88700  0.61300  0.00000  1.0000
  Si  Si4       1.0  0.38700  0.88700  0.00000  1.0000
  Si  Si5       1.0  0.25000  0.25000  0.50000  1.0000
  Si  Si6       1.0  0.75000  0.75000  0.50000  1.0000
