data_image0
_chemical_formula_structural       Cs2Ge2S10Ta2
_chemical_formula_sum              "Cs2 Ge2 S10 Ta2"
_cell_length_a       7.05453
_cell_length_b       7.44108
_cell_length_c       9.49859
_cell_angle_alpha    67.4242
_cell_angle_beta     77.3669
_cell_angle_gamma    74.8513

_space_group_name_H-M_alt    "P 1"
_space_group_IT_number       1

loop_
  _space_group_symop_operation_xyz
  'x, y, z'

loop_
  _atom_site_type_symbol
  _atom_site_label
  _atom_site_symmetry_multiplicity
  _atom_site_fract_x
  _atom_site_fract_y
  _atom_site_fract_z
  _atom_site_occupancy
  Cs  Cs1       1.0  0.60500  0.35100  0.31300  1.0000
  Cs  Cs2       1.0  0.39500  0.64900  0.68700  1.0000
  Ge  Ge1       1.0  0.97700  0.70300  0.37200  1.0000
  Ge  Ge2       1.0  0.02290  0.29700  0.62800  1.0000
  S   S1        1.0  0.07090  0.75900  0.01370  1.0000
  S   S2        1.0  0.43800  0.21800  0.03160  1.0000
  S   S3        1.0  0.69000  0.86200  0.28700  1.0000
  S   S4        1.0  0.21100  0.88100  0.29000  1.0000
  S   S5        1.0  0.07750  0.38900  0.36500  1.0000
  S   S6        1.0  0.92200  0.61100  0.63500  1.0000
  S   S7        1.0  0.78900  0.11900  0.71000  1.0000
  S   S8        1.0  0.31000  0.13800  0.71300  1.0000
  S   S9        1.0  0.56200  0.78200  0.96800  1.0000
  S   S10       1.0  0.92900  0.24100  0.98600  1.0000
  Ta  Ta1       1.0  0.24000  0.02750  0.00403  1.0000
  Ta  Ta2       1.0  0.76000  0.97300  0.99600  1.0000
