data_image0
_chemical_formula_structural       Br4H4O14Sr2
_chemical_formula_sum              "Br4 H4 O14 Sr2"
_cell_length_a       7.3207
_cell_length_b       7.3207
_cell_length_c       7.496
_cell_angle_alpha    107.322
_cell_angle_beta     102.659
_cell_angle_gamma    118.081

_space_group_name_H-M_alt    "P 1"
_space_group_IT_number       1

loop_
  _space_group_symop_operation_xyz
  'x, y, z'

loop_
  _atom_site_type_symbol
  _atom_site_label
  _atom_site_symmetry_multiplicity
  _atom_site_fract_x
  _atom_site_fract_y
  _atom_site_fract_z
  _atom_site_occupancy
  Br  Br1       1.0  0.21800  0.53000  0.19500  1.0000
  Br  Br2       1.0  0.83500  0.02360  0.30500  1.0000
  Br  Br3       1.0  0.16500  0.97600  0.69500  1.0000
  Br  Br4       1.0  0.78200  0.47000  0.80500  1.0000
  H   H1        1.0  0.21100  0.91100  0.13200  1.0000
  H   H2        1.0  0.27900  0.07860  0.36800  1.0000
  H   H3        1.0  0.72100  0.92100  0.63200  1.0000
  H   H4        1.0  0.78900  0.08870  0.86800  1.0000
  O   O1        1.0  0.28000  0.40800  0.00883  1.0000
  O   O2        1.0  0.92800  0.34400  0.09840  1.0000
  O   O3        1.0  0.59400  0.93500  0.12200  1.0000
  O   O4        1.0  0.31900  0.06910  0.25000  1.0000
  O   O5        1.0  0.31400  0.47200  0.37800  1.0000
  O   O6        1.0  0.74600  0.83000  0.40200  1.0000
  O   O7        1.0  0.90000  0.27100  0.49100  1.0000
  O   O8        1.0  0.10000  0.72900  0.50900  1.0000
  O   O9        1.0  0.25400  0.17000  0.59800  1.0000
  O   O10       1.0  0.68600  0.52800  0.62200  1.0000
  O   O11       1.0  0.68100  0.93100  0.75000  1.0000
  O   O12       1.0  0.40600  0.06460  0.87800  1.0000
  O   O13       1.0  0.07190  0.65600  0.90200  1.0000
  O   O14       1.0  0.72000  0.59200  0.99100  1.0000
  Sr  Sr1       1.0  0.64900  0.39900  0.25000  1.0000
  Sr  Sr2       1.0  0.35100  0.60100  0.75000  1.0000
