data_image0
_chemical_formula_structural       Cs2Ga2H8
_chemical_formula_sum              "Cs2 Ga2 H8"
_cell_length_a       5.45468
_cell_length_b       5.45468
_cell_length_c       7.65943
_cell_angle_alpha    90
_cell_angle_beta     90
_cell_angle_gamma    90

_space_group_name_H-M_alt    "P 1"
_space_group_IT_number       1

loop_
  _space_group_symop_operation_xyz
  'x, y, z'

loop_
  _atom_site_type_symbol
  _atom_site_label
  _atom_site_symmetry_multiplicity
  _atom_site_fract_x
  _atom_site_fract_y
  _atom_site_fract_z
  _atom_site_occupancy
  Cs  Cs1       1.0  0.25000  0.75000  0.25000  1.0000
  Cs  Cs2       1.0  0.75000  0.25000  0.75000  1.0000
  Ga  Ga1       1.0  0.75000  0.25000  0.25000  1.0000
  Ga  Ga2       1.0  0.25000  0.75000  0.75000  1.0000
  H   H1        1.0  0.75000  0.01130  0.12900  1.0000
  H   H2        1.0  0.75000  0.48900  0.12900  1.0000
  H   H3        1.0  0.51100  0.25000  0.37100  1.0000
  H   H4        1.0  0.98900  0.25000  0.37100  1.0000
  H   H5        1.0  0.01130  0.75000  0.62900  1.0000
  H   H6        1.0  0.48900  0.75000  0.62900  1.0000
  H   H7        1.0  0.25000  0.51100  0.87100  1.0000
  H   H8        1.0  0.25000  0.98900  0.87100  1.0000
