data_image0
_chemical_formula_structural       As2B2F2H8N2O8
_chemical_formula_sum              "As2 B2 F2 H8 N2 O8"
_cell_length_a       4.37699
_cell_length_b       4.57141
_cell_length_c       12.3337
_cell_angle_alpha    90.0363
_cell_angle_beta     90.0758
_cell_angle_gamma    61.3972

_space_group_name_H-M_alt    "P 1"
_space_group_IT_number       1

loop_
  _space_group_symop_operation_xyz
  'x, y, z'

loop_
  _atom_site_type_symbol
  _atom_site_label
  _atom_site_symmetry_multiplicity
  _atom_site_fract_x
  _atom_site_fract_y
  _atom_site_fract_z
  _atom_site_occupancy
  As  As1       1.0  0.10300  0.96000  0.27400  1.0000
  As  As2       1.0  0.06340  0.04010  0.77400  1.0000
  B   B1        1.0  0.43400  0.31800  0.18800  1.0000
  B   B2        1.0  0.75200  0.68200  0.68800  1.0000
  F   F1        1.0  0.27800  0.36000  0.08470  1.0000
  F   F2        1.0  0.63800  0.64000  0.58500  1.0000
  H   H1        1.0  0.67700  0.69300  0.07650  1.0000
  H   H2        1.0  0.57500  0.16600  0.45800  1.0000
  H   H3        1.0  0.19700  0.53500  0.46200  1.0000
  H   H4        1.0  0.19300  0.16800  0.48000  1.0000
  H   H5        1.0  0.37000  0.30700  0.57600  1.0000
  H   H6        1.0  0.74100  0.83400  0.95800  1.0000
  H   H7        1.0  0.73100  0.46500  0.96200  1.0000
  H   H8        1.0  0.36100  0.83200  0.98000  1.0000
  N   N1        1.0  0.33200  0.29500  0.49500  1.0000
  N   N2        1.0  0.62700  0.70500  0.99500  1.0000
  O   O1        1.0  0.79000  0.04080  0.17600  1.0000
  O   O2        1.0  0.46300  0.61300  0.22300  1.0000
  O   O3        1.0  0.22800  0.26500  0.27200  1.0000
  O   O4        1.0  0.99500  0.93600  0.40300  1.0000
  O   O5        1.0  0.83100  0.95900  0.67600  1.0000
  O   O6        1.0  0.07630  0.38700  0.72300  1.0000
  O   O7        1.0  0.49400  0.73500  0.77200  1.0000
  O   O8        1.0  0.93100  0.06410  0.90300  1.0000
