data_image0
_chemical_formula_structural       B12BrH12Rb3
_chemical_formula_sum              "B12 Br1 H12 Rb3"
_cell_length_a       6.95716
_cell_length_b       6.95715
_cell_length_c       6.95716
_cell_angle_alpha    93.1192
_cell_angle_beta     93.1192
_cell_angle_gamma    93.1192

_space_group_name_H-M_alt    "P 1"
_space_group_IT_number       1

loop_
  _space_group_symop_operation_xyz
  'x, y, z'

loop_
  _atom_site_type_symbol
  _atom_site_label
  _atom_site_symmetry_multiplicity
  _atom_site_fract_x
  _atom_site_fract_y
  _atom_site_fract_z
  _atom_site_occupancy
  B   B1        1.0  0.23500  0.05950  0.05950  1.0000
  B   B2        1.0  0.05950  0.23500  0.05950  1.0000
  B   B3        1.0  0.83800  0.12300  0.12300  1.0000
  B   B4        1.0  0.12300  0.83800  0.12300  1.0000
  B   B5        1.0  0.87700  0.87700  0.16200  1.0000
  B   B6        1.0  0.05950  0.05950  0.23500  1.0000
  B   B7        1.0  0.94000  0.94000  0.76500  1.0000
  B   B8        1.0  0.12300  0.12300  0.83800  1.0000
  B   B9        1.0  0.87700  0.16200  0.87700  1.0000
  B   B10       1.0  0.16200  0.87700  0.87700  1.0000
  B   B11       1.0  0.94000  0.76500  0.94000  1.0000
  B   B12       1.0  0.76500  0.94000  0.94000  1.0000
  Br  Br1       1.0  0.50000  0.50000  0.50000  1.0000
  H   H1        1.0  0.40200  0.10200  0.10200  1.0000
  H   H2        1.0  0.10200  0.40200  0.10200  1.0000
  H   H3        1.0  0.21200  0.72500  0.21200  1.0000
  H   H4        1.0  0.72500  0.21200  0.21200  1.0000
  H   H5        1.0  0.78800  0.78800  0.27500  1.0000
  H   H6        1.0  0.10200  0.10200  0.40200  1.0000
  H   H7        1.0  0.89800  0.89800  0.59800  1.0000
  H   H8        1.0  0.21200  0.21200  0.72500  1.0000
  H   H9        1.0  0.27500  0.78800  0.78800  1.0000
  H   H10       1.0  0.78800  0.27500  0.78800  1.0000
  H   H11       1.0  0.59800  0.89800  0.89800  1.0000
  H   H12       1.0  0.89800  0.59800  0.89800  1.0000
  Rb  Rb1       1.0  0.50000  0.50000  0.00000  1.0000
  Rb  Rb2       1.0  0.00000  0.50000  0.50000  1.0000
  Rb  Rb3       1.0  0.50000  0.00000  0.50000  1.0000
