data_image0
_chemical_formula_structural       H4Mn2O16S4
_chemical_formula_sum              "H4 Mn2 O16 S4"
_cell_length_a       4.94252
_cell_length_b       8.39213
_cell_length_c       7.25466
_cell_angle_alpha    90
_cell_angle_beta     100.353
_cell_angle_gamma    90

_space_group_name_H-M_alt    "P 1"
_space_group_IT_number       1

loop_
  _space_group_symop_operation_xyz
  'x, y, z'

loop_
  _atom_site_type_symbol
  _atom_site_label
  _atom_site_symmetry_multiplicity
  _atom_site_fract_x
  _atom_site_fract_y
  _atom_site_fract_z
  _atom_site_occupancy
  H   H1        1.0  0.71200  0.48100  0.14600  1.0000
  H   H2        1.0  0.78800  0.98100  0.35400  1.0000
  H   H3        1.0  0.21200  0.01870  0.64600  1.0000
  H   H4        1.0  0.28800  0.51900  0.85400  1.0000
  Mn  Mn1       1.0  0.00000  0.00000  0.00000  1.0000
  Mn  Mn2       1.0  0.50000  0.50000  0.50000  1.0000
  O   O1        1.0  0.67400  0.14800  0.05870  1.0000
  O   O2        1.0  0.76800  0.58900  0.10200  1.0000
  O   O3        1.0  0.27300  0.13200  0.21200  1.0000
  O   O4        1.0  0.89900  0.84900  0.21800  1.0000
  O   O5        1.0  0.60100  0.34900  0.28200  1.0000
  O   O6        1.0  0.22700  0.63200  0.28800  1.0000
  O   O7        1.0  0.73200  0.08860  0.39800  1.0000
  O   O8        1.0  0.82600  0.64800  0.44100  1.0000
  O   O9        1.0  0.17400  0.35200  0.55900  1.0000
  O   O10       1.0  0.26800  0.91100  0.60200  1.0000
  O   O11       1.0  0.77300  0.36800  0.71200  1.0000
  O   O12       1.0  0.39900  0.65100  0.71800  1.0000
  O   O13       1.0  0.10100  0.15100  0.78200  1.0000
  O   O14       1.0  0.72700  0.86800  0.78800  1.0000
  O   O15       1.0  0.23200  0.41100  0.89800  1.0000
  O   O16       1.0  0.32600  0.85200  0.94100  1.0000
  S   S1        1.0  0.56000  0.18000  0.22800  1.0000
  S   S2        1.0  0.94000  0.68000  0.27200  1.0000
  S   S3        1.0  0.06030  0.32000  0.72800  1.0000
  S   S4        1.0  0.44000  0.82000  0.77200  1.0000
