data_image0
_chemical_formula_structural       Cs4H4O16Se4
_chemical_formula_sum              "Cs4 H4 O16 Se4"
_cell_length_a       7.86879
_cell_length_b       8.38026
_cell_length_c       7.66066
_cell_angle_alpha    90
_cell_angle_beta     111.347
_cell_angle_gamma    90

_space_group_name_H-M_alt    "P 1"
_space_group_IT_number       1

loop_
  _space_group_symop_operation_xyz
  'x, y, z'

loop_
  _atom_site_type_symbol
  _atom_site_label
  _atom_site_symmetry_multiplicity
  _atom_site_fract_x
  _atom_site_fract_y
  _atom_site_fract_z
  _atom_site_occupancy
  Cs  Cs1       1.0  0.70900  0.12700  0.20700  1.0000
  Cs  Cs2       1.0  0.29100  0.62700  0.29300  1.0000
  Cs  Cs3       1.0  0.70900  0.37300  0.70700  1.0000
  Cs  Cs4       1.0  0.29100  0.87300  0.79300  1.0000
  H   H1        1.0  0.89700  0.70000  0.96600  1.0000
  H   H2        1.0  0.10300  0.30000  0.03370  1.0000
  H   H3        1.0  0.89700  0.80000  0.46600  1.0000
  H   H4        1.0  0.10300  0.20000  0.53400  1.0000
  O   O1        1.0  0.85500  0.56200  0.07470  1.0000
  O   O2        1.0  0.05590  0.21000  0.09760  1.0000
  O   O3        1.0  0.60500  0.76700  0.13700  1.0000
  O   O4        1.0  0.32200  0.97400  0.19200  1.0000
  O   O5        1.0  0.67800  0.47400  0.30800  1.0000
  O   O6        1.0  0.39500  0.26700  0.36300  1.0000
  O   O7        1.0  0.94400  0.71000  0.40200  1.0000
  O   O8        1.0  0.14500  0.06170  0.42500  1.0000
  O   O9        1.0  0.85500  0.93800  0.57500  1.0000
  O   O10       1.0  0.05590  0.29000  0.59800  1.0000
  O   O11       1.0  0.60500  0.73300  0.63700  1.0000
  O   O12       1.0  0.32200  0.52600  0.69200  1.0000
  O   O13       1.0  0.67800  0.02640  0.80800  1.0000
  O   O14       1.0  0.39500  0.23300  0.86300  1.0000
  O   O15       1.0  0.94400  0.79000  0.90200  1.0000
  O   O16       1.0  0.14500  0.43800  0.92500  1.0000
  Se  Se1       1.0  0.75700  0.62400  0.22300  1.0000
  Se  Se2       1.0  0.24300  0.12400  0.27700  1.0000
  Se  Se3       1.0  0.75700  0.87600  0.72300  1.0000
  Se  Se4       1.0  0.24300  0.37600  0.77700  1.0000
