data_image0
_chemical_formula_structural       H4Na6Np2O12
_chemical_formula_sum              "H4 Na6 Np2 O12"
_cell_length_a       5.91009
_cell_length_b       5.91009
_cell_length_c       10.318
_cell_angle_alpha    98.0787
_cell_angle_beta     98.0787
_cell_angle_gamma    120.618

_space_group_name_H-M_alt    "P 1"
_space_group_IT_number       1

loop_
  _space_group_symop_operation_xyz
  'x, y, z'

loop_
  _atom_site_type_symbol
  _atom_site_label
  _atom_site_symmetry_multiplicity
  _atom_site_fract_x
  _atom_site_fract_y
  _atom_site_fract_z
  _atom_site_occupancy
  H   H1        1.0  0.48400  0.89500  0.21300  1.0000
  H   H2        1.0  0.52100  0.43200  0.28700  1.0000
  H   H3        1.0  0.56800  0.47900  0.71300  1.0000
  H   H4        1.0  0.10500  0.51600  0.78700  1.0000
  Na  Na1       1.0  0.13000  0.87000  0.00000  1.0000
  Na  Na2       1.0  0.90600  0.31700  0.17500  1.0000
  Na  Na3       1.0  0.98100  0.89100  0.32500  1.0000
  Na  Na4       1.0  0.38000  0.62000  0.50000  1.0000
  Na  Na5       1.0  0.10900  0.01900  0.67500  1.0000
  Na  Na6       1.0  0.68300  0.09400  0.82500  1.0000
  Np  Np1       1.0  0.47000  0.53000  0.00000  1.0000
  Np  Np2       1.0  0.72000  0.28000  0.50000  1.0000
  O   O1        1.0  0.82300  0.61800  0.11500  1.0000
  O   O2        1.0  0.27200  0.33200  0.11800  1.0000
  O   O3        1.0  0.51900  0.90000  0.12200  1.0000
  O   O4        1.0  0.64700  0.52700  0.37800  1.0000
  O   O5        1.0  0.40400  0.96400  0.38200  1.0000
  O   O6        1.0  0.95900  0.25300  0.38500  1.0000
  O   O7        1.0  0.74700  0.04140  0.61500  1.0000
  O   O8        1.0  0.03590  0.59600  0.61800  1.0000
  O   O9        1.0  0.47300  0.35300  0.62200  1.0000
  O   O10       1.0  0.10000  0.48100  0.87800  1.0000
  O   O11       1.0  0.66800  0.72800  0.88200  1.0000
  O   O12       1.0  0.38200  0.17700  0.88500  1.0000
