data_image0
_chemical_formula_structural       H4Na2O8S4
_chemical_formula_sum              "H4 Na2 O8 S4"
_cell_length_a       5.88594
_cell_length_b       6.59791
_cell_length_c       6.88824
_cell_angle_alpha    118.615
_cell_angle_beta     105.727
_cell_angle_gamma    90

_space_group_name_H-M_alt    "P 1"
_space_group_IT_number       1

loop_
  _space_group_symop_operation_xyz
  'x, y, z'

loop_
  _atom_site_type_symbol
  _atom_site_label
  _atom_site_symmetry_multiplicity
  _atom_site_fract_x
  _atom_site_fract_y
  _atom_site_fract_z
  _atom_site_occupancy
  H   H1        1.0  0.75000  0.05190  0.18700  1.0000
  H   H2        1.0  0.31300  0.80700  0.44200  1.0000
  H   H3        1.0  0.68700  0.36500  0.55800  1.0000
  H   H4        1.0  0.25000  0.86500  0.81300  1.0000
  Na  Na1       1.0  0.77600  0.59400  0.29500  1.0000
  Na  Na2       1.0  0.22400  0.29900  0.70500  1.0000
  O   O1        1.0  0.27700  0.33700  0.06140  1.0000
  O   O2        1.0  0.12300  0.29000  0.34000  1.0000
  O   O3        1.0  0.18200  0.66800  0.38100  1.0000
  O   O4        1.0  0.53100  0.48800  0.45700  1.0000
  O   O5        1.0  0.46900  0.03120  0.54300  1.0000
  O   O6        1.0  0.81800  0.28700  0.61900  1.0000
  O   O7        1.0  0.87700  0.95000  0.66000  1.0000
  O   O8        1.0  0.72300  0.27600  0.93900  1.0000
  S   S1        1.0  0.68100  0.82300  0.02510  1.0000
  S   S2        1.0  0.28100  0.42600  0.30000  1.0000
  S   S3        1.0  0.71900  0.12600  0.70000  1.0000
  S   S4        1.0  0.31900  0.79800  0.97500  1.0000
