data_image0
_chemical_formula_structural       C4Cu8H6N10
_chemical_formula_sum              "C4 Cu8 H6 N10"
_cell_length_a       5.62381
_cell_length_b       5.62388
_cell_length_c       10.9407
_cell_angle_alpha    90
_cell_angle_beta     90
_cell_angle_gamma    120

_space_group_name_H-M_alt    "P 1"
_space_group_IT_number       1

loop_
  _space_group_symop_operation_xyz
  'x, y, z'

loop_
  _atom_site_type_symbol
  _atom_site_label
  _atom_site_symmetry_multiplicity
  _atom_site_fract_x
  _atom_site_fract_y
  _atom_site_fract_z
  _atom_site_occupancy
  C   C1        1.0  0.66700  0.33300  0.02690  1.0000
  C   C2        1.0  0.00000  0.00000  0.44200  1.0000
  C   C3        1.0  0.33300  0.66700  0.52700  1.0000
  C   C4        1.0  0.00000  0.00000  0.94200  1.0000
  Cu  Cu1       1.0  0.33500  0.16700  0.23500  1.0000
  Cu  Cu2       1.0  0.83300  0.16700  0.23500  1.0000
  Cu  Cu3       1.0  0.83300  0.66500  0.23500  1.0000
  Cu  Cu4       1.0  0.33300  0.66700  0.25000  1.0000
  Cu  Cu5       1.0  0.16700  0.83300  0.73500  1.0000
  Cu  Cu6       1.0  0.66500  0.83300  0.73500  1.0000
  Cu  Cu7       1.0  0.16700  0.33500  0.73500  1.0000
  Cu  Cu8       1.0  0.66700  0.33300  0.75000  1.0000
  H   H1        1.0  0.23500  0.46900  0.03830  1.0000
  H   H2        1.0  0.23500  0.76500  0.03840  1.0000
  H   H3        1.0  0.53100  0.76500  0.03840  1.0000
  H   H4        1.0  0.76500  0.53100  0.53800  1.0000
  H   H5        1.0  0.46900  0.23500  0.53800  1.0000
  H   H6        1.0  0.76500  0.23500  0.53800  1.0000
  N   N1        1.0  0.00000  0.00000  0.05180  1.0000
  N   N2        1.0  0.33300  0.66700  0.07140  1.0000
  N   N3        1.0  0.66700  0.33300  0.14400  1.0000
  N   N4        1.0  0.00000  0.00000  0.32500  1.0000
  N   N5        1.0  0.33300  0.66700  0.41800  1.0000
  N   N6        1.0  0.00000  0.00000  0.55200  1.0000
  N   N7        1.0  0.66700  0.33300  0.57100  1.0000
  N   N8        1.0  0.33300  0.66700  0.64400  1.0000
  N   N9        1.0  0.00000  0.00000  0.82500  1.0000
  N   N10       1.0  0.66700  0.33300  0.91800  1.0000
