data_image0
_chemical_formula_structural       H12Mn2N4O8Zn
_chemical_formula_sum              "H12 Mn2 N4 O8 Zn1"
_cell_length_a       7.12782
_cell_length_b       7.12782
_cell_length_c       7.12782
_cell_angle_alpha    120
_cell_angle_beta     90
_cell_angle_gamma    120

_space_group_name_H-M_alt    "P 1"
_space_group_IT_number       1

loop_
  _space_group_symop_operation_xyz
  'x, y, z'

loop_
  _atom_site_type_symbol
  _atom_site_label
  _atom_site_symmetry_multiplicity
  _atom_site_fract_x
  _atom_site_fract_y
  _atom_site_fract_z
  _atom_site_occupancy
  H   H1        1.0  0.21500  0.43000  0.01800  1.0000
  H   H2        1.0  0.21500  0.80300  0.01800  1.0000
  H   H3        1.0  0.58800  0.80300  0.01800  1.0000
  H   H4        1.0  0.21500  0.19700  0.41200  1.0000
  H   H5        1.0  0.21500  0.43000  0.41200  1.0000
  H   H6        1.0  0.98200  0.19700  0.41200  1.0000
  H   H7        1.0  0.98200  0.19700  0.78500  1.0000
  H   H8        1.0  0.21500  0.19700  0.78500  1.0000
  H   H9        1.0  0.58800  0.57000  0.78500  1.0000
  H   H10       1.0  0.98200  0.57000  0.78500  1.0000
  H   H11       1.0  0.21500  0.80300  0.78500  1.0000
  H   H12       1.0  0.58800  0.80300  0.78500  1.0000
  Mn  Mn1       1.0  0.75000  0.50000  0.25000  1.0000
  Mn  Mn2       1.0  0.50000  0.00000  0.50000  1.0000
  N   N1        1.0  0.11600  0.23200  0.34800  1.0000
  N   N2        1.0  0.11600  0.23200  0.88400  1.0000
  N   N3        1.0  0.11600  0.76800  0.88400  1.0000
  N   N4        1.0  0.65200  0.76800  0.88400  1.0000
  O   O1        1.0  0.47300  0.31500  0.15800  1.0000
  O   O2        1.0  0.84200  0.31500  0.15800  1.0000
  O   O3        1.0  0.84200  0.68500  0.15800  1.0000
  O   O4        1.0  0.40700  0.81400  0.22200  1.0000
  O   O5        1.0  0.84200  0.68500  0.52700  1.0000
  O   O6        1.0  0.40700  0.18600  0.59300  1.0000
  O   O7        1.0  0.77800  0.18600  0.59300  1.0000
  O   O8        1.0  0.40700  0.81400  0.59300  1.0000
  Zn  Zn1       1.0  0.00000  0.00000  0.00000  1.0000
