data_image0
_chemical_formula_structural       Cl4H16N4O4
_chemical_formula_sum              "Cl4 H16 N4 O4"
_cell_length_a       6.72567
_cell_length_b       5.92628
_cell_length_c       6.96313
_cell_angle_alpha    90
_cell_angle_beta     113.302
_cell_angle_gamma    90

_space_group_name_H-M_alt    "P 1"
_space_group_IT_number       1

loop_
  _space_group_symop_operation_xyz
  'x, y, z'

loop_
  _atom_site_type_symbol
  _atom_site_label
  _atom_site_symmetry_multiplicity
  _atom_site_fract_x
  _atom_site_fract_y
  _atom_site_fract_z
  _atom_site_occupancy
  Cl  Cl1       1.0  0.84800  0.31300  0.10700  1.0000
  Cl  Cl2       1.0  0.65200  0.81300  0.39300  1.0000
  Cl  Cl3       1.0  0.34800  0.18700  0.60700  1.0000
  Cl  Cl4       1.0  0.15200  0.68700  0.89300  1.0000
  H   H1        1.0  0.04970  0.82000  0.12700  1.0000
  H   H2        1.0  0.35600  0.47200  0.14200  1.0000
  H   H3        1.0  0.44100  0.01160  0.18200  1.0000
  H   H4        1.0  0.60600  0.34500  0.22500  1.0000
  H   H5        1.0  0.89400  0.84500  0.27500  1.0000
  H   H6        1.0  0.05880  0.51200  0.31800  1.0000
  H   H7        1.0  0.14400  0.97200  0.35800  1.0000
  H   H8        1.0  0.45000  0.32000  0.37300  1.0000
  H   H9        1.0  0.55000  0.68000  0.62700  1.0000
  H   H10       1.0  0.85600  0.02770  0.64200  1.0000
  H   H11       1.0  0.94100  0.48800  0.68200  1.0000
  H   H12       1.0  0.10600  0.15500  0.72500  1.0000
  H   H13       1.0  0.39400  0.65500  0.77500  1.0000
  H   H14       1.0  0.55900  0.98800  0.81800  1.0000
  H   H15       1.0  0.64400  0.52800  0.85800  1.0000
  H   H16       1.0  0.95000  0.18000  0.87300  1.0000
  N   N1        1.0  0.44800  0.33300  0.22200  1.0000
  N   N2        1.0  0.05170  0.83300  0.27800  1.0000
  N   N3        1.0  0.94800  0.16700  0.72200  1.0000
  N   N4        1.0  0.55200  0.66700  0.77800  1.0000
  O   O1        1.0  0.34400  0.14100  0.10400  1.0000
  O   O2        1.0  0.15600  0.64100  0.39600  1.0000
  O   O3        1.0  0.84400  0.35900  0.60400  1.0000
  O   O4        1.0  0.65600  0.85900  0.89600  1.0000
