data_image0
_chemical_formula_structural       H4Na2NiO10Se2
_chemical_formula_sum              "H4 Na2 Ni1 O10 Se2"
_cell_length_a       6.06195
_cell_length_b       7.42642
_cell_length_c       5.29161
_cell_angle_alpha    107.182
_cell_angle_beta     115.532
_cell_angle_gamma    92.2551

_space_group_name_H-M_alt    "P 1"
_space_group_IT_number       1

loop_
  _space_group_symop_operation_xyz
  'x, y, z'

loop_
  _atom_site_type_symbol
  _atom_site_label
  _atom_site_symmetry_multiplicity
  _atom_site_fract_x
  _atom_site_fract_y
  _atom_site_fract_z
  _atom_site_occupancy
  H   H1        1.0  0.26400  0.55600  0.99200  1.0000
  H   H2        1.0  0.73600  0.44400  0.00835  1.0000
  H   H3        1.0  0.45800  0.47500  0.41900  1.0000
  H   H4        1.0  0.54200  0.52500  0.58100  1.0000
  Na  Na1       1.0  0.80100  0.31300  0.46800  1.0000
  Na  Na2       1.0  0.19900  0.68700  0.53200  1.0000
  Ni  Ni1       1.0  0.00000  0.00000  0.00000  1.0000
  O   O1        1.0  0.48000  0.18800  0.04360  1.0000
  O   O2        1.0  0.30400  0.67100  0.17800  1.0000
  O   O3        1.0  0.78400  0.60300  0.30500  1.0000
  O   O4        1.0  0.89700  0.97900  0.34800  1.0000
  O   O5        1.0  0.32200  0.10000  0.35700  1.0000
  O   O6        1.0  0.67800  0.90000  0.64300  1.0000
  O   O7        1.0  0.10300  0.02060  0.65200  1.0000
  O   O8        1.0  0.21600  0.39700  0.69500  1.0000
  O   O9        1.0  0.69600  0.32900  0.82200  1.0000
  O   O10       1.0  0.52000  0.81200  0.95600  1.0000
  Se  Se1       1.0  0.62100  0.78300  0.28100  1.0000
  Se  Se2       1.0  0.37900  0.21700  0.71900  1.0000
