data_image0
_chemical_formula_structural       H12Mn2N2O10P2
_chemical_formula_sum              "H12 Mn2 N2 O10 P2"
_cell_length_a       5.66047
_cell_length_b       8.71855
_cell_length_c       4.81194
_cell_angle_alpha    90
_cell_angle_beta     90
_cell_angle_gamma    90

_space_group_name_H-M_alt    "P 1"
_space_group_IT_number       1

loop_
  _space_group_symop_operation_xyz
  'x, y, z'

loop_
  _atom_site_type_symbol
  _atom_site_label
  _atom_site_symmetry_multiplicity
  _atom_site_fract_x
  _atom_site_fract_y
  _atom_site_fract_z
  _atom_site_occupancy
  H   H1        1.0  0.36200  0.20200  0.07480  1.0000
  H   H2        1.0  0.63800  0.20200  0.07480  1.0000
  H   H3        1.0  0.15100  0.59300  0.13800  1.0000
  H   H4        1.0  0.84900  0.59300  0.13800  1.0000
  H   H5        1.0  0.00000  0.46100  0.32700  1.0000
  H   H6        1.0  0.50000  0.54300  0.46300  1.0000
  H   H7        1.0  0.13800  0.79800  0.57500  1.0000
  H   H8        1.0  0.86200  0.79800  0.57500  1.0000
  H   H9        1.0  0.34900  0.40700  0.63800  1.0000
  H   H10       1.0  0.65100  0.40700  0.63800  1.0000
  H   H11       1.0  0.50000  0.53900  0.82700  1.0000
  H   H12       1.0  0.00000  0.45700  0.96300  1.0000
  Mn  Mn1       1.0  0.00000  0.97300  0.02190  1.0000
  Mn  Mn2       1.0  0.50000  0.02720  0.52200  1.0000
  N   N1        1.0  0.00000  0.52700  0.14300  1.0000
  N   N2        1.0  0.50000  0.47300  0.64300  1.0000
  O   O1        1.0  0.50000  0.62000  0.14300  1.0000
  O   O2        1.0  0.50000  0.21400  0.19900  1.0000
  O   O3        1.0  0.28100  0.86900  0.24600  1.0000
  O   O4        1.0  0.71900  0.86900  0.24600  1.0000
  O   O5        1.0  0.00000  0.16900  0.28600  1.0000
  O   O6        1.0  0.00000  0.38000  0.64300  1.0000
  O   O7        1.0  0.00000  0.78600  0.69900  1.0000
  O   O8        1.0  0.21900  0.13100  0.74600  1.0000
  O   O9        1.0  0.78100  0.13100  0.74600  1.0000
  O   O10       1.0  0.50000  0.83100  0.78600  1.0000
  P   P1        1.0  0.50000  0.79600  0.09570  1.0000
  P   P2        1.0  0.00000  0.20400  0.59600  1.0000
