data_image0
_chemical_formula_structural       C4Cl2H16N2O2Si2
_chemical_formula_sum              "C4 Cl2 H16 N2 O2 Si2"
_cell_length_a       5.64552
_cell_length_b       6.41411
_cell_length_c       8.61452
_cell_angle_alpha    100.839
_cell_angle_beta     102.967
_cell_angle_gamma    94.7626

_space_group_name_H-M_alt    "P 1"
_space_group_IT_number       1

loop_
  _space_group_symop_operation_xyz
  'x, y, z'

loop_
  _atom_site_type_symbol
  _atom_site_label
  _atom_site_symmetry_multiplicity
  _atom_site_fract_x
  _atom_site_fract_y
  _atom_site_fract_z
  _atom_site_occupancy
  C   C1        1.0  0.29900  0.74900  0.04360  1.0000
  C   C2        1.0  0.32200  0.08510  0.23600  1.0000
  C   C3        1.0  0.67800  0.91500  0.76400  1.0000
  C   C4        1.0  0.70100  0.25100  0.95600  1.0000
  Cl  Cl1       1.0  0.71700  0.58600  0.36100  1.0000
  Cl  Cl2       1.0  0.28300  0.41400  0.63900  1.0000
  H   H1        1.0  0.23700  0.57700  0.02030  1.0000
  H   H2        1.0  0.78600  0.18400  0.06100  1.0000
  H   H3        1.0  0.49900  0.77300  0.06440  1.0000
  H   H4        1.0  0.24400  0.16400  0.13700  1.0000
  H   H5        1.0  0.52300  0.10600  0.25900  1.0000
  H   H6        1.0  0.16000  0.50000  0.28000  1.0000
  H   H7        1.0  0.27200  0.15600  0.34800  1.0000
  H   H8        1.0  0.17700  0.84800  0.48100  1.0000
  H   H9        1.0  0.82300  0.15200  0.51900  1.0000
  H   H10       1.0  0.72800  0.84400  0.65200  1.0000
  H   H11       1.0  0.84000  0.50000  0.72000  1.0000
  H   H12       1.0  0.47700  0.89400  0.74100  1.0000
  H   H13       1.0  0.75600  0.83600  0.86300  1.0000
  H   H14       1.0  0.50100  0.22700  0.93600  1.0000
  H   H15       1.0  0.21400  0.81600  0.93900  1.0000
  H   H16       1.0  0.76300  0.42300  0.98000  1.0000
  N   N1        1.0  0.23800  0.85600  0.19100  1.0000
  N   N2        1.0  0.76200  0.14400  0.80900  1.0000
  O   O1        1.0  0.96400  0.82300  0.16600  1.0000
  O   O2        1.0  0.03570  0.17700  0.83400  1.0000
  Si  Si1       1.0  0.05920  0.70100  0.32300  1.0000
  Si  Si2       1.0  0.94100  0.29900  0.67700  1.0000
