data_image0
_chemical_formula_structural       H16Pd4Sr8
_chemical_formula_sum              "H16 Pd4 Sr8"
_cell_length_a       7.56445
_cell_length_b       5.44824
_cell_length_c       9.6294
_cell_angle_alpha    90
_cell_angle_beta     90
_cell_angle_gamma    90

_space_group_name_H-M_alt    "P 1"
_space_group_IT_number       1

loop_
  _space_group_symop_operation_xyz
  'x, y, z'

loop_
  _atom_site_type_symbol
  _atom_site_label
  _atom_site_symmetry_multiplicity
  _atom_site_fract_x
  _atom_site_fract_y
  _atom_site_fract_z
  _atom_site_occupancy
  H   H1        1.0  0.67500  0.25000  0.09060  1.0000
  H   H2        1.0  0.00626  0.75000  0.10200  1.0000
  H   H3        1.0  0.32400  0.02170  0.15900  1.0000
  H   H4        1.0  0.32400  0.47800  0.15900  1.0000
  H   H5        1.0  0.82400  0.02170  0.34100  1.0000
  H   H6        1.0  0.82400  0.47800  0.34100  1.0000
  H   H7        1.0  0.50600  0.75000  0.39800  1.0000
  H   H8        1.0  0.17500  0.25000  0.40900  1.0000
  H   H9        1.0  0.82500  0.75000  0.59100  1.0000
  H   H10       1.0  0.49400  0.25000  0.60200  1.0000
  H   H11       1.0  0.17600  0.52200  0.65900  1.0000
  H   H12       1.0  0.17600  0.97800  0.65900  1.0000
  H   H13       1.0  0.67600  0.52200  0.84100  1.0000
  H   H14       1.0  0.67600  0.97800  0.84100  1.0000
  H   H15       1.0  0.99400  0.25000  0.89800  1.0000
  H   H16       1.0  0.32500  0.75000  0.90900  1.0000
  Pd  Pd1       1.0  0.24000  0.75000  0.08440  1.0000
  Pd  Pd2       1.0  0.74000  0.75000  0.41600  1.0000
  Pd  Pd3       1.0  0.26000  0.25000  0.58400  1.0000
  Pd  Pd4       1.0  0.76000  0.25000  0.91600  1.0000
  Sr  Sr1       1.0  0.65100  0.75000  0.09190  1.0000
  Sr  Sr2       1.0  0.01010  0.25000  0.16900  1.0000
  Sr  Sr3       1.0  0.51000  0.25000  0.33100  1.0000
  Sr  Sr4       1.0  0.15100  0.75000  0.40800  1.0000
  Sr  Sr5       1.0  0.84900  0.25000  0.59200  1.0000
  Sr  Sr6       1.0  0.49000  0.75000  0.66900  1.0000
  Sr  Sr7       1.0  0.99000  0.75000  0.83100  1.0000
  Sr  Sr8       1.0  0.34900  0.25000  0.90800  1.0000
