data_image0
_chemical_formula_structural       C6Cl2H18Si2
_chemical_formula_sum              "C6 Cl2 H18 Si2"
_cell_length_a       6.22959
_cell_length_b       7.72417
_cell_length_c       6.71278
_cell_angle_alpha    90
_cell_angle_beta     91.2401
_cell_angle_gamma    90

_space_group_name_H-M_alt    "P 1"
_space_group_IT_number       1

loop_
  _space_group_symop_operation_xyz
  'x, y, z'

loop_
  _atom_site_type_symbol
  _atom_site_label
  _atom_site_symmetry_multiplicity
  _atom_site_fract_x
  _atom_site_fract_y
  _atom_site_fract_z
  _atom_site_occupancy
  C   C1        1.0  0.76200  0.05070  0.18200  1.0000
  C   C2        1.0  0.76200  0.44900  0.18200  1.0000
  C   C3        1.0  0.23300  0.75000  0.41700  1.0000
  C   C4        1.0  0.76700  0.25000  0.58300  1.0000
  C   C5        1.0  0.23800  0.55100  0.81800  1.0000
  C   C6        1.0  0.23800  0.94900  0.81800  1.0000
  Cl  Cl1       1.0  0.33800  0.25000  0.31300  1.0000
  Cl  Cl2       1.0  0.66200  0.75000  0.68700  1.0000
  H   H1        1.0  0.70300  0.05090  0.02670  1.0000
  H   H2        1.0  0.70300  0.44900  0.02670  1.0000
  H   H3        1.0  0.93900  0.04560  0.18000  1.0000
  H   H4        1.0  0.93900  0.45400  0.18000  1.0000
  H   H5        1.0  0.70400  0.56700  0.25500  1.0000
  H   H6        1.0  0.70400  0.93300  0.25500  1.0000
  H   H7        1.0  0.29100  0.63400  0.34000  1.0000
  H   H8        1.0  0.29100  0.86600  0.34000  1.0000
  H   H9        1.0  0.05600  0.75000  0.40700  1.0000
  H   H10       1.0  0.94400  0.25000  0.59300  1.0000
  H   H11       1.0  0.70900  0.13400  0.66000  1.0000
  H   H12       1.0  0.70900  0.36600  0.66000  1.0000
  H   H13       1.0  0.29600  0.06740  0.74500  1.0000
  H   H14       1.0  0.29600  0.43300  0.74500  1.0000
  H   H15       1.0  0.06130  0.54600  0.82000  1.0000
  H   H16       1.0  0.06130  0.95400  0.82000  1.0000
  H   H17       1.0  0.29700  0.55100  0.97300  1.0000
  H   H18       1.0  0.29700  0.94900  0.97300  1.0000
  Si  Si1       1.0  0.67800  0.25000  0.31600  1.0000
  Si  Si2       1.0  0.32200  0.75000  0.68400  1.0000
