data_image0
_chemical_formula_structural       Ca4Cu2P6Zn4
_chemical_formula_sum              "Ca4 Cu2 P6 Zn4"
_cell_length_a       4.03971
_cell_length_b       4.03955
_cell_length_c       21.3443
_cell_angle_alpha    90
_cell_angle_beta     90
_cell_angle_gamma    120.001

_space_group_name_H-M_alt    "P 1"
_space_group_IT_number       1

loop_
  _space_group_symop_operation_xyz
  'x, y, z'

loop_
  _atom_site_type_symbol
  _atom_site_label
  _atom_site_symmetry_multiplicity
  _atom_site_fract_x
  _atom_site_fract_y
  _atom_site_fract_z
  _atom_site_occupancy
  Ca  Ca1       1.0  0.00000  0.00000  0.15900  1.0000
  Ca  Ca2       1.0  0.00000  0.00000  0.34100  1.0000
  Ca  Ca3       1.0  0.00008  0.00017  0.65900  1.0000
  Ca  Ca4       1.0  0.00008  0.00017  0.84100  1.0000
  Cu  Cu1       1.0  0.33300  0.66700  0.25000  1.0000
  Cu  Cu2       1.0  0.66700  0.33300  0.75000  1.0000
  P   P1        1.0  0.33300  0.66700  0.07620  1.0000
  P   P2        1.0  0.66700  0.33300  0.25000  1.0000
  P   P3        1.0  0.33300  0.66700  0.42400  1.0000
  P   P4        1.0  0.66700  0.33300  0.57600  1.0000
  P   P5        1.0  0.33300  0.66700  0.75000  1.0000
  P   P6        1.0  0.66700  0.33300  0.92400  1.0000
  Zn  Zn1       1.0  0.66700  0.33300  0.04270  1.0000
  Zn  Zn2       1.0  0.66700  0.33300  0.45700  1.0000
  Zn  Zn3       1.0  0.33300  0.66700  0.54300  1.0000
  Zn  Zn4       1.0  0.33300  0.66700  0.95700  1.0000
