data_image0
_chemical_formula_structural       H4Na4O16Se4
_chemical_formula_sum              "H4 Na4 O16 Se4"
_cell_length_a       5.21815
_cell_length_b       7.8027
_cell_length_c       8.76652
_cell_angle_alpha    90
_cell_angle_beta     101.844
_cell_angle_gamma    90

_space_group_name_H-M_alt    "P 1"
_space_group_IT_number       1

loop_
  _space_group_symop_operation_xyz
  'x, y, z'

loop_
  _atom_site_type_symbol
  _atom_site_label
  _atom_site_symmetry_multiplicity
  _atom_site_fract_x
  _atom_site_fract_y
  _atom_site_fract_z
  _atom_site_occupancy
  H   H1        1.0  0.25200  0.04240  0.12800  1.0000
  H   H2        1.0  0.24800  0.54200  0.37200  1.0000
  H   H3        1.0  0.75200  0.45800  0.62800  1.0000
  H   H4        1.0  0.74800  0.95800  0.87200  1.0000
  Na  Na1       1.0  0.70600  0.50000  0.20700  1.0000
  Na  Na2       1.0  0.79400  0.00042  0.29300  1.0000
  Na  Na3       1.0  0.20600  0.00000  0.70700  1.0000
  Na  Na4       1.0  0.29400  0.50000  0.79300  1.0000
  O   O1        1.0  0.31800  0.60100  0.04860  1.0000
  O   O2        1.0  0.00382  0.16000  0.11300  1.0000
  O   O3        1.0  0.37100  0.93600  0.13500  1.0000
  O   O4        1.0  0.94000  0.75500  0.18300  1.0000
  O   O5        1.0  0.56000  0.25500  0.31700  1.0000
  O   O6        1.0  0.12900  0.43600  0.36500  1.0000
  O   O7        1.0  0.49600  0.66000  0.38700  1.0000
  O   O8        1.0  0.18200  0.10100  0.45100  1.0000
  O   O9        1.0  0.81800  0.89900  0.54900  1.0000
  O   O10       1.0  0.50400  0.34000  0.61300  1.0000
  O   O11       1.0  0.87100  0.56400  0.63500  1.0000
  O   O12       1.0  0.44000  0.74500  0.68300  1.0000
  O   O13       1.0  0.05970  0.24500  0.81700  1.0000
  O   O14       1.0  0.62900  0.06390  0.86500  1.0000
  O   O15       1.0  0.99600  0.84000  0.88700  1.0000
  O   O16       1.0  0.68200  0.39900  0.95100  1.0000
  Se  Se1       1.0  0.14500  0.77300  0.06300  1.0000
  Se  Se2       1.0  0.35500  0.27300  0.43700  1.0000
  Se  Se3       1.0  0.64500  0.72700  0.56300  1.0000
  Se  Se4       1.0  0.85500  0.22700  0.93700  1.0000
