data_image0
_chemical_formula_structural       Ca4H16N8
_chemical_formula_sum              "Ca4 H16 N8"
_cell_length_a       7.161
_cell_length_b       7.18098
_cell_length_c       6.21006
_cell_angle_alpha    90
_cell_angle_beta     124.686
_cell_angle_gamma    90

_space_group_name_H-M_alt    "P 1"
_space_group_IT_number       1

loop_
  _space_group_symop_operation_xyz
  'x, y, z'

loop_
  _atom_site_type_symbol
  _atom_site_label
  _atom_site_symmetry_multiplicity
  _atom_site_fract_x
  _atom_site_fract_y
  _atom_site_fract_z
  _atom_site_occupancy
  Ca  Ca1       1.0  0.75100  0.87700  0.24700  1.0000
  Ca  Ca2       1.0  0.24900  0.37700  0.25300  1.0000
  Ca  Ca3       1.0  0.75100  0.62300  0.74700  1.0000
  Ca  Ca4       1.0  0.24900  0.12300  0.75300  1.0000
  H   H1        1.0  0.46700  0.58600  0.09490  1.0000
  H   H2        1.0  0.88000  0.18400  0.12600  1.0000
  H   H3        1.0  0.06690  0.02700  0.18500  1.0000
  H   H4        1.0  0.36900  0.73300  0.20600  1.0000
  H   H5        1.0  0.63100  0.23300  0.29400  1.0000
  H   H6        1.0  0.93300  0.52700  0.31500  1.0000
  H   H7        1.0  0.12000  0.68400  0.37400  1.0000
  H   H8        1.0  0.53300  0.08620  0.40500  1.0000
  H   H9        1.0  0.46700  0.91400  0.59500  1.0000
  H   H10       1.0  0.88000  0.31600  0.62600  1.0000
  H   H11       1.0  0.06690  0.47300  0.68500  1.0000
  H   H12       1.0  0.36900  0.76700  0.70600  1.0000
  H   H13       1.0  0.63100  0.26700  0.79400  1.0000
  H   H14       1.0  0.93300  0.97300  0.81500  1.0000
  H   H15       1.0  0.12000  0.81600  0.87400  1.0000
  H   H16       1.0  0.53300  0.41400  0.90500  1.0000
  N   N1        1.0  0.97700  0.61800  0.22300  1.0000
  N   N2        1.0  0.50200  0.13700  0.23300  1.0000
  N   N3        1.0  0.49800  0.63700  0.26700  1.0000
  N   N4        1.0  0.02260  0.11800  0.27700  1.0000
  N   N5        1.0  0.97700  0.88200  0.72300  1.0000
  N   N6        1.0  0.50200  0.36300  0.73300  1.0000
  N   N7        1.0  0.49800  0.86300  0.76700  1.0000
  N   N8        1.0  0.02260  0.38200  0.77700  1.0000
