data_image0
_chemical_formula_structural       F14I2
_chemical_formula_sum              "F14 I2"
_cell_length_a       4.6369
_cell_length_b       4.6369
_cell_length_c       8.64916
_cell_angle_alpha    90
_cell_angle_beta     90
_cell_angle_gamma    103.664

_space_group_name_H-M_alt    "P 1"
_space_group_IT_number       1

loop_
  _space_group_symop_operation_xyz
  'x, y, z'

loop_
  _atom_site_type_symbol
  _atom_site_label
  _atom_site_symmetry_multiplicity
  _atom_site_fract_x
  _atom_site_fract_y
  _atom_site_fract_z
  _atom_site_occupancy
  F   F1        1.0  0.04210  0.04210  0.00000  1.0000
  F   F2        1.0  0.50100  0.06730  0.09960  1.0000
  F   F3        1.0  0.70100  0.56300  0.11800  1.0000
  F   F4        1.0  0.19800  0.48700  0.17300  1.0000
  F   F5        1.0  0.69800  0.98700  0.32700  1.0000
  F   F6        1.0  0.20100  0.06310  0.38200  1.0000
  F   F7        1.0  0.00129  0.56700  0.40000  1.0000
  F   F8        1.0  0.54200  0.54200  0.50000  1.0000
  F   F9        1.0  0.56700  0.00129  0.60000  1.0000
  F   F10       1.0  0.06310  0.20100  0.61800  1.0000
  F   F11       1.0  0.98700  0.69800  0.67300  1.0000
  F   F12       1.0  0.48700  0.19800  0.82700  1.0000
  F   F13       1.0  0.56300  0.70100  0.88200  1.0000
  F   F14       1.0  0.06730  0.50100  0.90000  1.0000
  I   I1        1.0  0.37000  0.37000  0.00000  1.0000
  I   I2        1.0  0.87000  0.87000  0.50000  1.0000
