data_image0
_chemical_formula_structural       Ag2C4F12H4N4Sb2
_chemical_formula_sum              "Ag2 C4 F12 H4 N4 Sb2"
_cell_length_a       5.12539
_cell_length_b       11.8059
_cell_length_c       6.38457
_cell_angle_alpha    90
_cell_angle_beta     90
_cell_angle_gamma    90

_space_group_name_H-M_alt    "P 1"
_space_group_IT_number       1

loop_
  _space_group_symop_operation_xyz
  'x, y, z'

loop_
  _atom_site_type_symbol
  _atom_site_label
  _atom_site_symmetry_multiplicity
  _atom_site_fract_x
  _atom_site_fract_y
  _atom_site_fract_z
  _atom_site_occupancy
  Ag  Ag1       1.0  0.00000  0.50000  0.00000  1.0000
  Ag  Ag2       1.0  0.50000  0.00000  0.50000  1.0000
  C   C1        1.0  0.63700  0.27900  0.00000  1.0000
  C   C2        1.0  0.36300  0.72100  0.00000  1.0000
  C   C3        1.0  0.13700  0.22100  0.50000  1.0000
  C   C4        1.0  0.86300  0.77900  0.50000  1.0000
  F   F1        1.0  0.23800  0.12500  0.00000  1.0000
  F   F2        1.0  0.76200  0.87500  0.00000  1.0000
  F   F3        1.0  0.80000  0.07710  0.20900  1.0000
  F   F4        1.0  0.20000  0.92300  0.20900  1.0000
  F   F5        1.0  0.30000  0.42300  0.29100  1.0000
  F   F6        1.0  0.70000  0.57700  0.29100  1.0000
  F   F7        1.0  0.73800  0.37500  0.50000  1.0000
  F   F8        1.0  0.26200  0.62500  0.50000  1.0000
  F   F9        1.0  0.30000  0.42300  0.70900  1.0000
  F   F10       1.0  0.70000  0.57700  0.70900  1.0000
  F   F11       1.0  0.80000  0.07710  0.79100  1.0000
  F   F12       1.0  0.20000  0.92300  0.79100  1.0000
  H   H1        1.0  0.49100  0.21200  0.00000  1.0000
  H   H2        1.0  0.50900  0.78800  0.00000  1.0000
  H   H3        1.0  0.99100  0.28800  0.50000  1.0000
  H   H4        1.0  0.00916  0.71200  0.50000  1.0000
  N   N1        1.0  0.79400  0.34900  0.00000  1.0000
  N   N2        1.0  0.20600  0.65100  0.00000  1.0000
  N   N3        1.0  0.29400  0.15100  0.50000  1.0000
  N   N4        1.0  0.70600  0.84900  0.50000  1.0000
  Sb  Sb1       1.0  0.00000  0.00000  0.00000  1.0000
  Sb  Sb2       1.0  0.50000  0.50000  0.50000  1.0000
