data_image0
_chemical_formula_structural       Rb4Se8V4
_chemical_formula_sum              "Rb4 Se8 V4"
_cell_length_a       5.76778
_cell_length_b       7.51447
_cell_length_c       12.7873
_cell_angle_alpha    94.9653
_cell_angle_beta     103.034
_cell_angle_gamma    67.4321

_space_group_name_H-M_alt    "P 1"
_space_group_IT_number       1

loop_
  _space_group_symop_operation_xyz
  'x, y, z'

loop_
  _atom_site_type_symbol
  _atom_site_label
  _atom_site_symmetry_multiplicity
  _atom_site_fract_x
  _atom_site_fract_y
  _atom_site_fract_z
  _atom_site_occupancy
  Rb  Rb1       1.0  0.30300  0.75000  0.10500  1.0000
  Rb  Rb2       1.0  0.94700  0.75000  0.39500  1.0000
  Rb  Rb3       1.0  0.05250  0.25000  0.60500  1.0000
  Rb  Rb4       1.0  0.69700  0.25000  0.89500  1.0000
  Se  Se1       1.0  0.66900  0.05640  0.14300  1.0000
  Se  Se2       1.0  0.97400  0.44400  0.14300  1.0000
  Se  Se3       1.0  0.27500  0.05640  0.35700  1.0000
  Se  Se4       1.0  0.58200  0.44400  0.35700  1.0000
  Se  Se5       1.0  0.41800  0.55600  0.64300  1.0000
  Se  Se6       1.0  0.72500  0.94400  0.64300  1.0000
  Se  Se7       1.0  0.02570  0.55600  0.85700  1.0000
  Se  Se8       1.0  0.33100  0.94400  0.85700  1.0000
  V   V1        1.0  0.37500  0.25000  0.25000  1.0000
  V   V2        1.0  0.87500  0.25000  0.25000  1.0000
  V   V3        1.0  0.12500  0.75000  0.75000  1.0000
  V   V4        1.0  0.62500  0.75000  0.75000  1.0000
