data_image0
_chemical_formula_structural       Ba2Ca2Cu3HgO8
_chemical_formula_sum              "Ba2 Ca2 Cu3 Hg1 O8"
_cell_length_a       3.80793
_cell_length_b       3.80793
_cell_length_c       15.4902
_cell_angle_alpha    90
_cell_angle_beta     90
_cell_angle_gamma    90

_space_group_name_H-M_alt    "P 1"
_space_group_IT_number       1

loop_
  _space_group_symop_operation_xyz
  'x, y, z'

loop_
  _atom_site_type_symbol
  _atom_site_label
  _atom_site_symmetry_multiplicity
  _atom_site_fract_x
  _atom_site_fract_y
  _atom_site_fract_z
  _atom_site_occupancy
  Ba  Ba1       1.0  0.50000  0.50000  0.18000  1.0000
  Ba  Ba2       1.0  0.50000  0.50000  0.82000  1.0000
  Ca  Ca1       1.0  0.50000  0.50000  0.40000  1.0000
  Ca  Ca2       1.0  0.50000  0.50000  0.60000  1.0000
  Cu  Cu1       1.0  0.00000  0.00000  0.30600  1.0000
  Cu  Cu2       1.0  0.00000  0.00000  0.50000  1.0000
  Cu  Cu3       1.0  0.00000  0.00000  0.69400  1.0000
  Hg  Hg1       1.0  0.00000  0.00000  0.00000  1.0000
  O   O1        1.0  0.00000  0.00000  0.12700  1.0000
  O   O2        1.0  0.50000  0.00000  0.30300  1.0000
  O   O3        1.0  0.00000  0.50000  0.30300  1.0000
  O   O4        1.0  0.50000  0.00000  0.50000  1.0000
  O   O5        1.0  0.00000  0.50000  0.50000  1.0000
  O   O6        1.0  0.50000  0.00000  0.69700  1.0000
  O   O7        1.0  0.00000  0.50000  0.69700  1.0000
  O   O8        1.0  0.00000  0.00000  0.87300  1.0000
