data_image0
_chemical_formula_structural       H16Rb8Zn4
_chemical_formula_sum              "H16 Rb8 Zn4"
_cell_length_a       8.05098
_cell_length_b       5.9862
_cell_length_c       10.5015
_cell_angle_alpha    90
_cell_angle_beta     90
_cell_angle_gamma    90

_space_group_name_H-M_alt    "P 1"
_space_group_IT_number       1

loop_
  _space_group_symop_operation_xyz
  'x, y, z'

loop_
  _atom_site_type_symbol
  _atom_site_label
  _atom_site_symmetry_multiplicity
  _atom_site_fract_x
  _atom_site_fract_y
  _atom_site_fract_z
  _atom_site_occupancy
  H   H1        1.0  0.69300  0.75000  0.06810  1.0000
  H   H2        1.0  0.03440  0.25000  0.09220  1.0000
  H   H3        1.0  0.31400  0.02290  0.15400  1.0000
  H   H4        1.0  0.31400  0.47700  0.15400  1.0000
  H   H5        1.0  0.81400  0.02290  0.34600  1.0000
  H   H6        1.0  0.81400  0.47700  0.34600  1.0000
  H   H7        1.0  0.53400  0.25000  0.40800  1.0000
  H   H8        1.0  0.19300  0.75000  0.43200  1.0000
  H   H9        1.0  0.80700  0.25000  0.56800  1.0000
  H   H10       1.0  0.46600  0.75000  0.59200  1.0000
  H   H11       1.0  0.18600  0.52300  0.65400  1.0000
  H   H12       1.0  0.18600  0.97700  0.65400  1.0000
  H   H13       1.0  0.68600  0.52300  0.84600  1.0000
  H   H14       1.0  0.68600  0.97700  0.84600  1.0000
  H   H15       1.0  0.96600  0.75000  0.90800  1.0000
  H   H16       1.0  0.30700  0.25000  0.93200  1.0000
  Rb  Rb1       1.0  0.66100  0.25000  0.09370  1.0000
  Rb  Rb2       1.0  0.01520  0.75000  0.18700  1.0000
  Rb  Rb3       1.0  0.51500  0.75000  0.31300  1.0000
  Rb  Rb4       1.0  0.16100  0.25000  0.40600  1.0000
  Rb  Rb5       1.0  0.83900  0.75000  0.59400  1.0000
  Rb  Rb6       1.0  0.48500  0.25000  0.68700  1.0000
  Rb  Rb7       1.0  0.98500  0.25000  0.81300  1.0000
  Rb  Rb8       1.0  0.33900  0.75000  0.90600  1.0000
  Zn  Zn1       1.0  0.24100  0.25000  0.08250  1.0000
  Zn  Zn2       1.0  0.74100  0.25000  0.41700  1.0000
  Zn  Zn3       1.0  0.25900  0.75000  0.58300  1.0000
  Zn  Zn4       1.0  0.75900  0.75000  0.91700  1.0000
