data_image0
_chemical_formula_structural       Cs8H16Zn4
_chemical_formula_sum              "Cs8 H16 Zn4"
_cell_length_a       8.47268
_cell_length_b       6.25311
_cell_length_c       10.985
_cell_angle_alpha    90
_cell_angle_beta     90
_cell_angle_gamma    90

_space_group_name_H-M_alt    "P 1"
_space_group_IT_number       1

loop_
  _space_group_symop_operation_xyz
  'x, y, z'

loop_
  _atom_site_type_symbol
  _atom_site_label
  _atom_site_symmetry_multiplicity
  _atom_site_fract_x
  _atom_site_fract_y
  _atom_site_fract_z
  _atom_site_occupancy
  Cs  Cs1       1.0  0.66000  0.25000  0.09460  1.0000
  Cs  Cs2       1.0  0.01550  0.75000  0.18600  1.0000
  Cs  Cs3       1.0  0.51600  0.75000  0.31400  1.0000
  Cs  Cs4       1.0  0.16000  0.25000  0.40500  1.0000
  Cs  Cs5       1.0  0.84000  0.75000  0.59500  1.0000
  Cs  Cs6       1.0  0.48400  0.25000  0.68600  1.0000
  Cs  Cs7       1.0  0.98400  0.25000  0.81400  1.0000
  Cs  Cs8       1.0  0.34000  0.75000  0.90500  1.0000
  H   H1        1.0  0.69300  0.75000  0.05990  1.0000
  H   H2        1.0  0.04700  0.25000  0.09520  1.0000
  H   H3        1.0  0.31500  0.03120  0.15200  1.0000
  H   H4        1.0  0.31500  0.46900  0.15200  1.0000
  H   H5        1.0  0.81500  0.03120  0.34800  1.0000
  H   H6        1.0  0.81500  0.46900  0.34800  1.0000
  H   H7        1.0  0.54700  0.25000  0.40500  1.0000
  H   H8        1.0  0.19300  0.75000  0.44000  1.0000
  H   H9        1.0  0.80700  0.25000  0.56000  1.0000
  H   H10       1.0  0.45300  0.75000  0.59500  1.0000
  H   H11       1.0  0.18500  0.53100  0.65200  1.0000
  H   H12       1.0  0.18500  0.96900  0.65200  1.0000
  H   H13       1.0  0.68500  0.53100  0.84800  1.0000
  H   H14       1.0  0.68500  0.96900  0.84800  1.0000
  H   H15       1.0  0.95300  0.75000  0.90500  1.0000
  H   H16       1.0  0.30700  0.25000  0.94000  1.0000
  Zn  Zn1       1.0  0.24300  0.25000  0.08450  1.0000
  Zn  Zn2       1.0  0.74300  0.25000  0.41600  1.0000
  Zn  Zn3       1.0  0.25700  0.75000  0.58400  1.0000
  Zn  Zn4       1.0  0.75700  0.75000  0.91600  1.0000
