data_image0
_chemical_formula_structural       Fe2H12N2O10P2
_chemical_formula_sum              "Fe2 H12 N2 O10 P2"
_cell_length_a       5.62439
_cell_length_b       8.70834
_cell_length_c       4.73848
_cell_angle_alpha    90
_cell_angle_beta     90
_cell_angle_gamma    90

_space_group_name_H-M_alt    "P 1"
_space_group_IT_number       1

loop_
  _space_group_symop_operation_xyz
  'x, y, z'

loop_
  _atom_site_type_symbol
  _atom_site_label
  _atom_site_symmetry_multiplicity
  _atom_site_fract_x
  _atom_site_fract_y
  _atom_site_fract_z
  _atom_site_occupancy
  Fe  Fe1       1.0  0.00000  0.97300  0.00404  1.0000
  Fe  Fe2       1.0  0.50000  0.02650  0.50400  1.0000
  H   H1        1.0  0.36100  0.20100  0.06680  1.0000
  H   H2        1.0  0.63900  0.20100  0.06680  1.0000
  H   H3        1.0  0.15200  0.59400  0.12700  1.0000
  H   H4        1.0  0.84800  0.59400  0.12700  1.0000
  H   H5        1.0  0.00000  0.46300  0.32100  1.0000
  H   H6        1.0  0.50000  0.54500  0.45400  1.0000
  H   H7        1.0  0.13900  0.79900  0.56700  1.0000
  H   H8        1.0  0.86100  0.79900  0.56700  1.0000
  H   H9        1.0  0.34800  0.40600  0.62700  1.0000
  H   H10       1.0  0.65200  0.40600  0.62700  1.0000
  H   H11       1.0  0.50000  0.53700  0.82100  1.0000
  H   H12       1.0  0.00000  0.45500  0.95400  1.0000
  N   N1        1.0  0.00000  0.52800  0.13300  1.0000
  N   N2        1.0  0.50000  0.47200  0.63300  1.0000
  O   O1        1.0  0.50000  0.62700  0.13500  1.0000
  O   O2        1.0  0.50000  0.21900  0.19000  1.0000
  O   O3        1.0  0.28100  0.87900  0.22000  1.0000
  O   O4        1.0  0.71900  0.87900  0.22000  1.0000
  O   O5        1.0  0.00000  0.17200  0.25500  1.0000
  O   O6        1.0  0.00000  0.37300  0.63500  1.0000
  O   O7        1.0  0.00000  0.78100  0.69000  1.0000
  O   O8        1.0  0.21900  0.12100  0.72000  1.0000
  O   O9        1.0  0.78100  0.12100  0.72000  1.0000
  O   O10       1.0  0.50000  0.82800  0.75500  1.0000
  P   P1        1.0  0.50000  0.80200  0.07330  1.0000
  P   P2        1.0  0.00000  0.19800  0.57300  1.0000
