data_image0
_chemical_formula_structural       As2H4In2O10
_chemical_formula_sum              "As2 H4 In2 O10"
_cell_length_a       5.35289
_cell_length_b       5.71891
_cell_length_c       6.95638
_cell_angle_alpha    102.097
_cell_angle_beta     95.7205
_cell_angle_gamma    92.0225

_space_group_name_H-M_alt    "P 1"
_space_group_IT_number       1

loop_
  _space_group_symop_operation_xyz
  'x, y, z'

loop_
  _atom_site_type_symbol
  _atom_site_label
  _atom_site_symmetry_multiplicity
  _atom_site_fract_x
  _atom_site_fract_y
  _atom_site_fract_z
  _atom_site_occupancy
  As  As1       1.0  0.34000  0.18100  0.28000  1.0000
  As  As2       1.0  0.66000  0.81900  0.72000  1.0000
  H   H1        1.0  0.70800  0.69100  0.07350  1.0000
  H   H2        1.0  0.72500  0.90500  0.27900  1.0000
  H   H3        1.0  0.27500  0.09450  0.72100  1.0000
  H   H4        1.0  0.29200  0.30900  0.92700  1.0000
  In  In1       1.0  0.13300  0.65900  0.33000  1.0000
  In  In2       1.0  0.86700  0.34100  0.67000  1.0000
  O   O1        1.0  0.35000  0.39900  0.14300  1.0000
  O   O2        1.0  0.25400  0.90000  0.14900  1.0000
  O   O3        1.0  0.76800  0.73800  0.22200  1.0000
  O   O4        1.0  0.62700  0.16700  0.41000  1.0000
  O   O5        1.0  0.10600  0.30700  0.41600  1.0000
  O   O6        1.0  0.89400  0.69300  0.58400  1.0000
  O   O7        1.0  0.37300  0.83300  0.59000  1.0000
  O   O8        1.0  0.23200  0.26200  0.77800  1.0000
  O   O9        1.0  0.74600  0.10000  0.85100  1.0000
  O   O10       1.0  0.65000  0.60100  0.85700  1.0000
