data_image0
_chemical_formula_structural       Cs2H2O16P4Zn4
_chemical_formula_sum              "Cs2 H2 O16 P4 Zn4"
_cell_length_a       8.60419
_cell_length_b       7.68236
_cell_length_c       6.51372
_cell_angle_alpha    90
_cell_angle_beta     112.242
_cell_angle_gamma    90

_space_group_name_H-M_alt    "P 1"
_space_group_IT_number       1

loop_
  _space_group_symop_operation_xyz
  'x, y, z'

loop_
  _atom_site_type_symbol
  _atom_site_label
  _atom_site_symmetry_multiplicity
  _atom_site_fract_x
  _atom_site_fract_y
  _atom_site_fract_z
  _atom_site_occupancy
  Cs  Cs1       1.0  0.00000  0.00000  0.00000  1.0000
  Cs  Cs2       1.0  0.00000  0.50000  0.50000  1.0000
  H   H1        1.0  0.00000  0.50000  0.00000  1.0000
  H   H2        1.0  0.00000  0.00000  0.50000  1.0000
  O   O1        1.0  0.68900  0.44300  0.04290  1.0000
  O   O2        1.0  0.09930  0.38200  0.04960  1.0000
  O   O3        1.0  0.68900  0.05710  0.14600  1.0000
  O   O4        1.0  0.40200  0.29000  0.20100  1.0000
  O   O5        1.0  0.59800  0.79000  0.29900  1.0000
  O   O6        1.0  0.31100  0.55700  0.35400  1.0000
  O   O7        1.0  0.90100  0.88200  0.45000  1.0000
  O   O8        1.0  0.31100  0.94300  0.45700  1.0000
  O   O9        1.0  0.68900  0.05710  0.54300  1.0000
  O   O10       1.0  0.09930  0.11800  0.55000  1.0000
  O   O11       1.0  0.68900  0.44300  0.64600  1.0000
  O   O12       1.0  0.40200  0.21000  0.70100  1.0000
  O   O13       1.0  0.59800  0.71000  0.79900  1.0000
  O   O14       1.0  0.31100  0.94300  0.85400  1.0000
  O   O15       1.0  0.90100  0.61800  0.95000  1.0000
  O   O16       1.0  0.31100  0.55700  0.95700  1.0000
  P   P1        1.0  0.28000  0.45400  0.14000  1.0000
  P   P2        1.0  0.72000  0.95400  0.36000  1.0000
  P   P3        1.0  0.28000  0.04640  0.64000  1.0000
  P   P4        1.0  0.72000  0.54600  0.86000  1.0000
  Zn  Zn1       1.0  0.53700  0.25000  0.01860  1.0000
  Zn  Zn2       1.0  0.46300  0.75000  0.48100  1.0000
  Zn  Zn3       1.0  0.53700  0.25000  0.51900  1.0000
  Zn  Zn4       1.0  0.46300  0.75000  0.98100  1.0000
