data_image0
_chemical_formula_structural       H16K8Zn4
_chemical_formula_sum              "H16 K8 Zn4"
_cell_length_a       7.62918
_cell_length_b       5.71481
_cell_length_c       10.0732
_cell_angle_alpha    90
_cell_angle_beta     90
_cell_angle_gamma    90

_space_group_name_H-M_alt    "P 1"
_space_group_IT_number       1

loop_
  _space_group_symop_operation_xyz
  'x, y, z'

loop_
  _atom_site_type_symbol
  _atom_site_label
  _atom_site_symmetry_multiplicity
  _atom_site_fract_x
  _atom_site_fract_y
  _atom_site_fract_z
  _atom_site_occupancy
  H   H1        1.0  0.69100  0.75000  0.07410  1.0000
  H   H2        1.0  0.01970  0.25000  0.08840  1.0000
  H   H3        1.0  0.31300  0.01360  0.15600  1.0000
  H   H4        1.0  0.31300  0.48600  0.15600  1.0000
  H   H5        1.0  0.81300  0.01360  0.34400  1.0000
  H   H6        1.0  0.81300  0.48600  0.34400  1.0000
  H   H7        1.0  0.52000  0.25000  0.41200  1.0000
  H   H8        1.0  0.19100  0.75000  0.42600  1.0000
  H   H9        1.0  0.80900  0.25000  0.57400  1.0000
  H   H10       1.0  0.48000  0.75000  0.58800  1.0000
  H   H11       1.0  0.18700  0.51400  0.65600  1.0000
  H   H12       1.0  0.18700  0.98600  0.65600  1.0000
  H   H13       1.0  0.68700  0.51400  0.84400  1.0000
  H   H14       1.0  0.68700  0.98600  0.84400  1.0000
  H   H15       1.0  0.98000  0.75000  0.91200  1.0000
  H   H16       1.0  0.30900  0.25000  0.92600  1.0000
  K   K1        1.0  0.66100  0.25000  0.09170  1.0000
  K   K2        1.0  0.01370  0.75000  0.18800  1.0000
  K   K3        1.0  0.51400  0.75000  0.31200  1.0000
  K   K4        1.0  0.16100  0.25000  0.40800  1.0000
  K   K5        1.0  0.83900  0.75000  0.59200  1.0000
  K   K6        1.0  0.48600  0.25000  0.68800  1.0000
  K   K7        1.0  0.98600  0.25000  0.81200  1.0000
  K   K8        1.0  0.33900  0.75000  0.90800  1.0000
  Zn  Zn1       1.0  0.23600  0.25000  0.08170  1.0000
  Zn  Zn2       1.0  0.73600  0.25000  0.41800  1.0000
  Zn  Zn3       1.0  0.26400  0.75000  0.58200  1.0000
  Zn  Zn4       1.0  0.76400  0.75000  0.91800  1.0000
