data_image0
_chemical_formula_structural       Cs2I12Ta2
_chemical_formula_sum              "Cs2 I12 Ta2"
_cell_length_a       7.34752
_cell_length_b       7.88538
_cell_length_c       14.2544
_cell_angle_alpha    100.157
_cell_angle_beta     90
_cell_angle_gamma    117.768

_space_group_name_H-M_alt    "P 1"
_space_group_IT_number       1

loop_
  _space_group_symop_operation_xyz
  'x, y, z'

loop_
  _atom_site_type_symbol
  _atom_site_label
  _atom_site_symmetry_multiplicity
  _atom_site_fract_x
  _atom_site_fract_y
  _atom_site_fract_z
  _atom_site_occupancy
  Cs  Cs1       1.0  0.58900  0.50000  0.25000  1.0000
  Cs  Cs2       1.0  0.41100  0.50000  0.75000  1.0000
  I   I1        1.0  0.59000  0.80000  0.03470  1.0000
  I   I2        1.0  0.02570  0.34500  0.10300  1.0000
  I   I3        1.0  0.12200  0.92500  0.16600  1.0000
  I   I4        1.0  0.69700  0.07460  0.33400  1.0000
  I   I5        1.0  0.18100  0.65500  0.39700  1.0000
  I   I6        1.0  0.29000  0.20000  0.46500  1.0000
  I   I7        1.0  0.71000  0.80000  0.53500  1.0000
  I   I8        1.0  0.81900  0.34500  0.60300  1.0000
  I   I9        1.0  0.30300  0.92500  0.66600  1.0000
  I   I10       1.0  0.87800  0.07460  0.83400  1.0000
  I   I11       1.0  0.97400  0.65500  0.89700  1.0000
  I   I12       1.0  0.41000  0.20000  0.96500  1.0000
  Ta  Ta1       1.0  0.00000  0.00000  0.00000  1.0000
  Ta  Ta2       1.0  0.50000  0.00000  0.50000  1.0000
