data_image0
_chemical_formula_structural       Ba10Ga12H4
_chemical_formula_sum              "Ba10 Ga12 H4"
_cell_length_a       7.80151
_cell_length_b       7.80151
_cell_length_c       14.4185
_cell_angle_alpha    90.0003
_cell_angle_beta     89.9997
_cell_angle_gamma    119.999

_space_group_name_H-M_alt    "P 1"
_space_group_IT_number       1

loop_
  _space_group_symop_operation_xyz
  'x, y, z'

loop_
  _atom_site_type_symbol
  _atom_site_label
  _atom_site_symmetry_multiplicity
  _atom_site_fract_x
  _atom_site_fract_y
  _atom_site_fract_z
  _atom_site_occupancy
  Ba  Ba1       1.0  0.33300  0.66700  0.99700  1.0000
  Ba  Ba2       1.0  0.00001  0.00000  0.02930  1.0000
  Ba  Ba3       1.0  0.31000  0.97700  0.26300  1.0000
  Ba  Ba4       1.0  0.02330  0.33300  0.26300  1.0000
  Ba  Ba5       1.0  0.66700  0.69000  0.26300  1.0000
  Ba  Ba6       1.0  0.33300  0.66700  0.49700  1.0000
  Ba  Ba7       1.0  0.00000  0.00000  0.52900  1.0000
  Ba  Ba8       1.0  0.02330  0.69000  0.76300  1.0000
  Ba  Ba9       1.0  0.66700  0.97700  0.76300  1.0000
  Ba  Ba10      1.0  0.31000  0.33300  0.76300  1.0000
  Ga  Ga1       1.0  0.87600  0.52700  0.09140  1.0000
  Ga  Ga2       1.0  0.47300  0.34900  0.09140  1.0000
  Ga  Ga3       1.0  0.65100  0.12400  0.09140  1.0000
  Ga  Ga4       1.0  0.68300  0.14000  0.43500  1.0000
  Ga  Ga5       1.0  0.45800  0.31700  0.43500  1.0000
  Ga  Ga6       1.0  0.86000  0.54200  0.43500  1.0000
  Ga  Ga7       1.0  0.47300  0.12400  0.59100  1.0000
  Ga  Ga8       1.0  0.65100  0.52700  0.59100  1.0000
  Ga  Ga9       1.0  0.87600  0.34900  0.59100  1.0000
  Ga  Ga10      1.0  0.86000  0.31700  0.93500  1.0000
  Ga  Ga11      1.0  0.68300  0.54200  0.93500  1.0000
  Ga  Ga12      1.0  0.45800  0.14000  0.93500  1.0000
  H   H1        1.0  0.00001  0.00000  0.21500  1.0000
  H   H2        1.0  0.33300  0.66700  0.31200  1.0000
  H   H3        1.0  0.00000  1.00000  0.71500  1.0000
  H   H4        1.0  0.33300  0.66700  0.81200  1.0000
