data_image0
_chemical_formula_structural       F6H12NiO6Sn
_chemical_formula_sum              "F6 H12 Ni1 O6 Sn1"
_cell_length_a       6.28345
_cell_length_b       6.28345
_cell_length_c       6.28345
_cell_angle_alpha    95.3197
_cell_angle_beta     95.3197
_cell_angle_gamma    95.3197

_space_group_name_H-M_alt    "P 1"
_space_group_IT_number       1

loop_
  _space_group_symop_operation_xyz
  'x, y, z'

loop_
  _atom_site_type_symbol
  _atom_site_label
  _atom_site_symmetry_multiplicity
  _atom_site_fract_x
  _atom_site_fract_y
  _atom_site_fract_z
  _atom_site_occupancy
  F   F1        1.0  0.73900  0.83200  0.07410  1.0000
  F   F2        1.0  0.92600  0.26100  0.16800  1.0000
  F   F3        1.0  0.16800  0.92600  0.26100  1.0000
  F   F4        1.0  0.83200  0.07410  0.73900  1.0000
  F   F5        1.0  0.07410  0.73900  0.83200  1.0000
  F   F6        1.0  0.26100  0.16800  0.92600  1.0000
  H   H1        1.0  0.44600  0.33100  0.08940  1.0000
  H   H2        1.0  0.68900  0.34000  0.18700  1.0000
  H   H3        1.0  0.66000  0.81300  0.31100  1.0000
  H   H4        1.0  0.08940  0.44600  0.33100  1.0000
  H   H5        1.0  0.18700  0.68900  0.34000  1.0000
  H   H6        1.0  0.33100  0.08940  0.44600  1.0000
  H   H7        1.0  0.66900  0.91100  0.55400  1.0000
  H   H8        1.0  0.81300  0.31100  0.66000  1.0000
  H   H9        1.0  0.91100  0.55400  0.66900  1.0000
  H   H10       1.0  0.34000  0.18700  0.68900  1.0000
  H   H11       1.0  0.31100  0.66000  0.81300  1.0000
  H   H12       1.0  0.55400  0.66900  0.91100  1.0000
  Ni  Ni1       1.0  0.50000  0.50000  0.50000  1.0000
  O   O1        1.0  0.55600  0.41000  0.19500  1.0000
  O   O2        1.0  0.19500  0.55600  0.41000  1.0000
  O   O3        1.0  0.59000  0.80500  0.44400  1.0000
  O   O4        1.0  0.41000  0.19500  0.55600  1.0000
  O   O5        1.0  0.80500  0.44400  0.59000  1.0000
  O   O6        1.0  0.44400  0.59000  0.80500  1.0000
  Sn  Sn1       1.0  0.00000  0.00000  0.00000  1.0000
