data_image0
_chemical_formula_structural       H8O12Si8
_chemical_formula_sum              "H8 O12 Si8"
_cell_length_a       7.04544
_cell_length_b       7.04544
_cell_length_c       7.04544
_cell_angle_alpha    102.607
_cell_angle_beta     77.3934
_cell_angle_gamma    102.607

_space_group_name_H-M_alt    "P 1"
_space_group_IT_number       1

loop_
  _space_group_symop_operation_xyz
  'x, y, z'

loop_
  _atom_site_type_symbol
  _atom_site_label
  _atom_site_symmetry_multiplicity
  _atom_site_fract_x
  _atom_site_fract_y
  _atom_site_fract_z
  _atom_site_occupancy
  H   H1        1.0  0.91200  0.76400  0.06600  1.0000
  H   H2        1.0  0.76400  0.06600  0.08770  1.0000
  H   H3        1.0  0.21400  0.78600  0.21400  1.0000
  H   H4        1.0  0.06600  0.08770  0.23600  1.0000
  H   H5        1.0  0.93400  0.91200  0.76400  1.0000
  H   H6        1.0  0.78600  0.21400  0.78600  1.0000
  H   H7        1.0  0.23600  0.93400  0.91200  1.0000
  H   H8        1.0  0.08770  0.23600  0.93400  1.0000
  O   O1        1.0  0.76500  0.43300  0.17000  1.0000
  O   O2        1.0  0.54900  0.71200  0.21600  1.0000
  O   O3        1.0  0.43300  0.17000  0.23500  1.0000
  O   O4        1.0  0.21600  0.45100  0.28800  1.0000
  O   O5        1.0  0.83000  0.76500  0.43300  1.0000
  O   O6        1.0  0.71200  0.21600  0.45100  1.0000
  O   O7        1.0  0.28800  0.78400  0.54900  1.0000
  O   O8        1.0  0.17000  0.23500  0.56700  1.0000
  O   O9        1.0  0.78400  0.54900  0.71200  1.0000
  O   O10       1.0  0.56700  0.83000  0.76500  1.0000
  O   O11       1.0  0.45100  0.28800  0.78400  1.0000
  O   O12       1.0  0.23500  0.56700  0.83000  1.0000
  Si  Si1       1.0  0.76800  0.67000  0.21700  1.0000
  Si  Si2       1.0  0.67000  0.21700  0.23200  1.0000
  Si  Si3       1.0  0.31400  0.68600  0.31400  1.0000
  Si  Si4       1.0  0.21700  0.23200  0.33000  1.0000
  Si  Si5       1.0  0.78300  0.76800  0.67000  1.0000
  Si  Si6       1.0  0.68600  0.31400  0.68600  1.0000
  Si  Si7       1.0  0.33000  0.78300  0.76800  1.0000
  Si  Si8       1.0  0.23200  0.33000  0.78300  1.0000
