data_image0
_chemical_formula_structural       H2K6O16Se4
_chemical_formula_sum              "H2 K6 O16 Se4"
_cell_length_a       5.84877
_cell_length_b       7.95329
_cell_length_c       10.0075
_cell_angle_alpha    102.696
_cell_angle_beta     90
_cell_angle_gamma    111.574

_space_group_name_H-M_alt    "P 1"
_space_group_IT_number       1

loop_
  _space_group_symop_operation_xyz
  'x, y, z'

loop_
  _atom_site_type_symbol
  _atom_site_label
  _atom_site_symmetry_multiplicity
  _atom_site_fract_x
  _atom_site_fract_y
  _atom_site_fract_z
  _atom_site_occupancy
  H   H1        1.0  0.00000  0.00000  0.00000  1.0000
  H   H2        1.0  0.00000  0.00000  0.50000  1.0000
  K   K1        1.0  0.45700  0.39000  0.15100  1.0000
  K   K2        1.0  0.76100  0.00000  0.25000  1.0000
  K   K3        1.0  0.06710  0.61000  0.34900  1.0000
  K   K4        1.0  0.93300  0.39000  0.65100  1.0000
  K   K5        1.0  0.23900  0.00000  0.75000  1.0000
  K   K6        1.0  0.54300  0.61000  0.84900  1.0000
  O   O1        1.0  0.17900  0.00247  0.06500  1.0000
  O   O2        1.0  0.84700  0.68200  0.10300  1.0000
  O   O3        1.0  0.34100  0.73800  0.12000  1.0000
  O   O4        1.0  0.90400  0.31200  0.13000  1.0000
  O   O5        1.0  0.59300  0.68800  0.37000  1.0000
  O   O6        1.0  0.60300  0.26200  0.38000  1.0000
  O   O7        1.0  0.16500  0.31800  0.39700  1.0000
  O   O8        1.0  0.17700  0.99800  0.43500  1.0000
  O   O9        1.0  0.82300  0.00247  0.56500  1.0000
  O   O10       1.0  0.83500  0.68200  0.60300  1.0000
  O   O11       1.0  0.39700  0.73800  0.62000  1.0000
  O   O12       1.0  0.40700  0.31200  0.63000  1.0000
  O   O13       1.0  0.09580  0.68800  0.87000  1.0000
  O   O14       1.0  0.65900  0.26200  0.88000  1.0000
  O   O15       1.0  0.15300  0.31800  0.89700  1.0000
  O   O16       1.0  0.82100  0.99800  0.93500  1.0000
  Se  Se1       1.0  0.11600  0.76600  0.03970  1.0000
  Se  Se2       1.0  0.35000  0.23400  0.46000  1.0000
  Se  Se3       1.0  0.65000  0.76600  0.54000  1.0000
  Se  Se4       1.0  0.88400  0.23400  0.96000  1.0000
