data_image0
_chemical_formula_structural       B2Cl2F8O4
_chemical_formula_sum              "B2 Cl2 F8 O4"
_cell_length_a       4.64088
_cell_length_b       4.64088
_cell_length_c       8.9387
_cell_angle_alpha    94.61
_cell_angle_beta     94.61
_cell_angle_gamma    114.019

_space_group_name_H-M_alt    "P 1"
_space_group_IT_number       1

loop_
  _space_group_symop_operation_xyz
  'x, y, z'

loop_
  _atom_site_type_symbol
  _atom_site_label
  _atom_site_symmetry_multiplicity
  _atom_site_fract_x
  _atom_site_fract_y
  _atom_site_fract_z
  _atom_site_occupancy
  B   B1        1.0  0.72900  0.87300  0.25300  1.0000
  B   B2        1.0  0.87300  0.72900  0.75300  1.0000
  Cl  Cl1       1.0  0.37300  0.22800  0.49200  1.0000
  Cl  Cl2       1.0  0.22800  0.37300  0.99200  1.0000
  F   F1        1.0  0.68600  0.82400  0.09070  1.0000
  F   F2        1.0  0.02430  0.86100  0.30100  1.0000
  F   F3        1.0  0.74100  0.16900  0.30300  1.0000
  F   F4        1.0  0.47900  0.62800  0.30400  1.0000
  F   F5        1.0  0.82400  0.68600  0.59100  1.0000
  F   F6        1.0  0.86100  0.02430  0.80100  1.0000
  F   F7        1.0  0.16900  0.74100  0.80300  1.0000
  F   F8        1.0  0.62800  0.47900  0.80400  1.0000
  O   O1        1.0  0.33400  0.15400  0.05470  1.0000
  O   O2        1.0  0.00395  0.44700  0.06720  1.0000
  O   O3        1.0  0.15400  0.33400  0.55500  1.0000
  O   O4        1.0  0.44700  0.00395  0.56700  1.0000
