data_image0
_chemical_formula_structural       Cu4H4I4O16
_chemical_formula_sum              "Cu4 H4 I4 O16"
_cell_length_a       10.7071
_cell_length_b       6.7057
_cell_length_c       4.61748
_cell_angle_alpha    90
_cell_angle_beta     90
_cell_angle_gamma    90

_space_group_name_H-M_alt    "P 1"
_space_group_IT_number       1

loop_
  _space_group_symop_operation_xyz
  'x, y, z'

loop_
  _atom_site_type_symbol
  _atom_site_label
  _atom_site_symmetry_multiplicity
  _atom_site_fract_x
  _atom_site_fract_y
  _atom_site_fract_z
  _atom_site_occupancy
  Cu  Cu1       1.0  0.00000  0.00000  0.00000  1.0000
  Cu  Cu2       1.0  0.00000  0.50000  0.00000  1.0000
  Cu  Cu3       1.0  0.50000  0.00000  0.50000  1.0000
  Cu  Cu4       1.0  0.50000  0.50000  0.50000  1.0000
  H   H1        1.0  0.49600  0.75000  0.09250  1.0000
  H   H2        1.0  0.99600  0.75000  0.40700  1.0000
  H   H3        1.0  0.00383  0.25000  0.59300  1.0000
  H   H4        1.0  0.50400  0.25000  0.90700  1.0000
  I   I1        1.0  0.75400  0.75000  0.02230  1.0000
  I   I2        1.0  0.25400  0.75000  0.47800  1.0000
  I   I3        1.0  0.74600  0.25000  0.52200  1.0000
  I   I4        1.0  0.24600  0.25000  0.97800  1.0000
  O   O1        1.0  0.39100  0.25000  0.18400  1.0000
  O   O2        1.0  0.16200  0.04820  0.18700  1.0000
  O   O3        1.0  0.16200  0.45200  0.18700  1.0000
  O   O4        1.0  0.97000  0.75000  0.19900  1.0000
  O   O5        1.0  0.47000  0.75000  0.30100  1.0000
  O   O6        1.0  0.66200  0.04820  0.31300  1.0000
  O   O7        1.0  0.66200  0.45200  0.31300  1.0000
  O   O8        1.0  0.89100  0.25000  0.31600  1.0000
  O   O9        1.0  0.10900  0.75000  0.68400  1.0000
  O   O10       1.0  0.33800  0.54800  0.68700  1.0000
  O   O11       1.0  0.33800  0.95200  0.68700  1.0000
  O   O12       1.0  0.53000  0.25000  0.69900  1.0000
  O   O13       1.0  0.02980  0.25000  0.80100  1.0000
  O   O14       1.0  0.83800  0.54800  0.81300  1.0000
  O   O15       1.0  0.83800  0.95200  0.81300  1.0000
  O   O16       1.0  0.60900  0.75000  0.81600  1.0000
