data_image0
_chemical_formula_structural       Cs4H12N4P8
_chemical_formula_sum              "Cs4 H12 N4 P8"
_cell_length_a       6.67037
_cell_length_b       12.5388
_cell_length_c       6.67799
_cell_angle_alpha    90
_cell_angle_beta     106.21
_cell_angle_gamma    90

_space_group_name_H-M_alt    "P 1"
_space_group_IT_number       1

loop_
  _space_group_symop_operation_xyz
  'x, y, z'

loop_
  _atom_site_type_symbol
  _atom_site_label
  _atom_site_symmetry_multiplicity
  _atom_site_fract_x
  _atom_site_fract_y
  _atom_site_fract_z
  _atom_site_occupancy
  Cs  Cs1       1.0  0.67400  0.37800  0.23800  1.0000
  Cs  Cs2       1.0  0.17400  0.12200  0.23800  1.0000
  Cs  Cs3       1.0  0.82600  0.87800  0.76200  1.0000
  Cs  Cs4       1.0  0.32600  0.62200  0.76200  1.0000
  H   H1        1.0  0.14200  0.76300  0.31100  1.0000
  H   H2        1.0  0.64200  0.73700  0.31100  1.0000
  H   H3        1.0  0.98700  0.85700  0.34900  1.0000
  H   H4        1.0  0.48700  0.64300  0.34900  1.0000
  H   H5        1.0  0.23300  0.85600  0.48500  1.0000
  H   H6        1.0  0.73300  0.64400  0.48500  1.0000
  H   H7        1.0  0.26700  0.35600  0.51500  1.0000
  H   H8        1.0  0.76700  0.14400  0.51500  1.0000
  H   H9        1.0  0.51300  0.35700  0.65100  1.0000
  H   H10       1.0  0.01350  0.14300  0.65100  1.0000
  H   H11       1.0  0.35800  0.26300  0.68900  1.0000
  H   H12       1.0  0.85800  0.23700  0.68900  1.0000
  N   N1        1.0  0.60600  0.69300  0.42600  1.0000
  N   N2        1.0  0.10600  0.80700  0.42600  1.0000
  N   N3        1.0  0.89400  0.19300  0.57400  1.0000
  N   N4        1.0  0.39400  0.30700  0.57400  1.0000
  P   P1        1.0  0.39200  0.89300  0.00784  1.0000
  P   P2        1.0  0.89200  0.60700  0.00784  1.0000
  P   P3        1.0  0.14800  0.52200  0.21400  1.0000
  P   P4        1.0  0.64900  0.97800  0.21400  1.0000
  P   P5        1.0  0.35200  0.02190  0.78600  1.0000
  P   P6        1.0  0.85200  0.47800  0.78600  1.0000
  P   P7        1.0  0.10800  0.39300  0.99200  1.0000
  P   P8        1.0  0.60800  0.10700  0.99200  1.0000
