data_image0
_chemical_formula_structural       B4H4Na8O12
_chemical_formula_sum              "B4 H4 Na8 O12"
_cell_length_a       8.54814
_cell_length_b       3.43831
_cell_length_c       9.7997
_cell_angle_alpha    90
_cell_angle_beta     90
_cell_angle_gamma    90

_space_group_name_H-M_alt    "P 1"
_space_group_IT_number       1

loop_
  _space_group_symop_operation_xyz
  'x, y, z'

loop_
  _atom_site_type_symbol
  _atom_site_label
  _atom_site_symmetry_multiplicity
  _atom_site_fract_x
  _atom_site_fract_y
  _atom_site_fract_z
  _atom_site_occupancy
  B   B1        1.0  0.13700  0.25000  0.24100  1.0000
  B   B2        1.0  0.63700  0.25000  0.25900  1.0000
  B   B3        1.0  0.36300  0.75000  0.74100  1.0000
  B   B4        1.0  0.86300  0.75000  0.75900  1.0000
  H   H1        1.0  0.89900  0.25000  0.23000  1.0000
  H   H2        1.0  0.39900  0.25000  0.27000  1.0000
  H   H3        1.0  0.60100  0.75000  0.73000  1.0000
  H   H4        1.0  0.10100  0.75000  0.77000  1.0000
  Na  Na1       1.0  0.82900  0.75000  0.05340  1.0000
  Na  Na2       1.0  0.43200  0.75000  0.10400  1.0000
  Na  Na3       1.0  0.93200  0.75000  0.39600  1.0000
  Na  Na4       1.0  0.32900  0.75000  0.44700  1.0000
  Na  Na5       1.0  0.67100  0.25000  0.55300  1.0000
  Na  Na6       1.0  0.06810  0.25000  0.60400  1.0000
  Na  Na7       1.0  0.56800  0.25000  0.89600  1.0000
  Na  Na8       1.0  0.17100  0.25000  0.94700  1.0000
  O   O1        1.0  0.63000  0.25000  0.12000  1.0000
  O   O2        1.0  0.99500  0.25000  0.16200  1.0000
  O   O3        1.0  0.27300  0.25000  0.16800  1.0000
  O   O4        1.0  0.77300  0.25000  0.33200  1.0000
  O   O5        1.0  0.49500  0.25000  0.33800  1.0000
  O   O6        1.0  0.13000  0.25000  0.38000  1.0000
  O   O7        1.0  0.87000  0.75000  0.62000  1.0000
  O   O8        1.0  0.50500  0.75000  0.66200  1.0000
  O   O9        1.0  0.22700  0.75000  0.66800  1.0000
  O   O10       1.0  0.72700  0.75000  0.83200  1.0000
  O   O11       1.0  0.00467  0.75000  0.83800  1.0000
  O   O12       1.0  0.37000  0.75000  0.88000  1.0000
