data_image0
_chemical_formula_structural       H4In4O16Se4
_chemical_formula_sum              "H4 In4 O16 Se4"
_cell_length_a       5.64288
_cell_length_b       7.928
_cell_length_c       8.03072
_cell_angle_alpha    88.1543
_cell_angle_beta     79.5173
_cell_angle_gamma    82.8245

_space_group_name_H-M_alt    "P 1"
_space_group_IT_number       1

loop_
  _space_group_symop_operation_xyz
  'x, y, z'

loop_
  _atom_site_type_symbol
  _atom_site_label
  _atom_site_symmetry_multiplicity
  _atom_site_fract_x
  _atom_site_fract_y
  _atom_site_fract_z
  _atom_site_occupancy
  H   H1        1.0  0.02820  0.92400  0.30500  1.0000
  H   H2        1.0  0.66800  0.24200  0.39600  1.0000
  H   H3        1.0  0.33200  0.75800  0.60400  1.0000
  H   H4        1.0  0.97200  0.07610  0.69500  1.0000
  In  In1       1.0  0.61500  0.02680  0.18400  1.0000
  In  In2       1.0  0.80700  0.68400  0.47900  1.0000
  In  In3       1.0  0.19300  0.31600  0.52100  1.0000
  In  In4       1.0  0.38500  0.97300  0.81600  1.0000
  O   O1        1.0  0.85900  0.19400  0.03500  1.0000
  O   O2        1.0  0.33800  0.14800  0.03540  1.0000
  O   O3        1.0  0.67100  0.56300  0.28100  1.0000
  O   O4        1.0  0.35700  0.84800  0.29300  1.0000
  O   O5        1.0  0.86300  0.89200  0.31800  1.0000
  O   O6        1.0  0.01830  0.22000  0.32400  1.0000
  O   O7        1.0  0.51500  0.22300  0.36200  1.0000
  O   O8        1.0  0.18000  0.56000  0.37800  1.0000
  O   O9        1.0  0.82000  0.44000  0.62200  1.0000
  O   O10       1.0  0.48500  0.77700  0.63800  1.0000
  O   O11       1.0  0.98200  0.78000  0.67600  1.0000
  O   O12       1.0  0.13700  0.10800  0.68200  1.0000
  O   O13       1.0  0.64300  0.15200  0.70700  1.0000
  O   O14       1.0  0.32900  0.43700  0.71900  1.0000
  O   O15       1.0  0.66200  0.85200  0.96500  1.0000
  O   O16       1.0  0.14100  0.80600  0.96500  1.0000
  Se  Se1       1.0  0.06810  0.28600  0.11700  1.0000
  Se  Se2       1.0  0.40300  0.64300  0.22100  1.0000
  Se  Se3       1.0  0.59700  0.35700  0.77900  1.0000
  Se  Se4       1.0  0.93200  0.71400  0.88300  1.0000
