data_image0
_chemical_formula_structural       H12N2Ni2O10P2
_chemical_formula_sum              "H12 N2 Ni2 O10 P2"
_cell_length_a       5.50414
_cell_length_b       8.6587
_cell_length_c       4.67097
_cell_angle_alpha    90
_cell_angle_beta     90
_cell_angle_gamma    90

_space_group_name_H-M_alt    "P 1"
_space_group_IT_number       1

loop_
  _space_group_symop_operation_xyz
  'x, y, z'

loop_
  _atom_site_type_symbol
  _atom_site_label
  _atom_site_symmetry_multiplicity
  _atom_site_fract_x
  _atom_site_fract_y
  _atom_site_fract_z
  _atom_site_occupancy
  H   H1        1.0  0.35800  0.19100  0.09810  1.0000
  H   H2        1.0  0.64200  0.19100  0.09810  1.0000
  H   H3        1.0  0.15600  0.59500  0.14800  1.0000
  H   H4        1.0  0.84400  0.59500  0.14800  1.0000
  H   H5        1.0  0.00000  0.46200  0.34200  1.0000
  H   H6        1.0  0.50000  0.54500  0.47200  1.0000
  H   H7        1.0  0.14200  0.80900  0.59800  1.0000
  H   H8        1.0  0.85800  0.80900  0.59800  1.0000
  H   H9        1.0  0.34400  0.40500  0.64800  1.0000
  H   H10       1.0  0.65600  0.40500  0.64800  1.0000
  H   H11       1.0  0.50000  0.53800  0.84200  1.0000
  H   H12       1.0  0.00000  0.45500  0.97200  1.0000
  N   N1        1.0  0.00000  0.52800  0.15300  1.0000
  N   N2        1.0  0.50000  0.47200  0.65300  1.0000
  Ni  Ni1       1.0  0.00000  0.98000  0.01570  1.0000
  Ni  Ni2       1.0  0.50000  0.02040  0.51600  1.0000
  O   O1        1.0  0.50000  0.63200  0.15300  1.0000
  O   O2        1.0  0.50000  0.20500  0.22400  1.0000
  O   O3        1.0  0.27600  0.88400  0.24100  1.0000
  O   O4        1.0  0.72400  0.88400  0.24100  1.0000
  O   O5        1.0  0.00000  0.16900  0.26800  1.0000
  O   O6        1.0  0.00000  0.36800  0.65300  1.0000
  O   O7        1.0  0.00000  0.79500  0.72400  1.0000
  O   O8        1.0  0.22400  0.11600  0.74100  1.0000
  O   O9        1.0  0.77600  0.11600  0.74100  1.0000
  O   O10       1.0  0.50000  0.83100  0.76800  1.0000
  P   P1        1.0  0.50000  0.80700  0.09090  1.0000
  P   P2        1.0  0.00000  0.19300  0.59100  1.0000
