data_image0
_chemical_formula_structural       Ba2Cr2CsF11
_chemical_formula_sum              "Ba2 Cr2 Cs1 F11"
_cell_length_a       5.84607
_cell_length_b       5.84607
_cell_length_c       8.51838
_cell_angle_alpha    110.069
_cell_angle_beta     110.069
_cell_angle_gamma    90

_space_group_name_H-M_alt    "P 1"
_space_group_IT_number       1

loop_
  _space_group_symop_operation_xyz
  'x, y, z'

loop_
  _atom_site_type_symbol
  _atom_site_label
  _atom_site_symmetry_multiplicity
  _atom_site_fract_x
  _atom_site_fract_y
  _atom_site_fract_z
  _atom_site_occupancy
  Ba  Ba1       1.0  0.75000  0.25000  0.50000  1.0000
  Ba  Ba2       1.0  0.25000  0.75000  0.50000  1.0000
  Cr  Cr1       1.0  0.62600  0.62600  0.25200  1.0000
  Cr  Cr2       1.0  0.37400  0.37400  0.74800  1.0000
  Cs  Cs1       1.0  0.00000  0.00000  0.00000  1.0000
  F   F1        1.0  0.50000  0.50000  0.00000  1.0000
  F   F2        1.0  0.40100  0.40100  0.26300  1.0000
  F   F3        1.0  0.86200  0.40100  0.26300  1.0000
  F   F4        1.0  0.40100  0.86200  0.26300  1.0000
  F   F5        1.0  0.86200  0.86200  0.26300  1.0000
  F   F6        1.0  0.24600  0.24600  0.49200  1.0000
  F   F7        1.0  0.75400  0.75400  0.50800  1.0000
  F   F8        1.0  0.13800  0.13800  0.73700  1.0000
  F   F9        1.0  0.59900  0.13800  0.73700  1.0000
  F   F10       1.0  0.13800  0.59900  0.73700  1.0000
  F   F11       1.0  0.59900  0.59900  0.73700  1.0000
