data_image0
_chemical_formula_structural       F14Re2
_chemical_formula_sum              "F14 Re2"
_cell_length_a       4.69325
_cell_length_b       4.74441
_cell_length_c       8.49265
_cell_angle_alpha    90.8691
_cell_angle_beta     93.7619
_cell_angle_gamma    114.528

_space_group_name_H-M_alt    "P 1"
_space_group_IT_number       1

loop_
  _space_group_symop_operation_xyz
  'x, y, z'

loop_
  _atom_site_type_symbol
  _atom_site_label
  _atom_site_symmetry_multiplicity
  _atom_site_fract_x
  _atom_site_fract_y
  _atom_site_fract_z
  _atom_site_occupancy
  F   F1        1.0  0.07270  0.28100  0.06800  1.0000
  F   F2        1.0  0.54700  0.82000  0.12500  1.0000
  F   F3        1.0  0.67800  0.37700  0.15400  1.0000
  F   F4        1.0  0.12500  0.92700  0.22500  1.0000
  F   F5        1.0  0.20100  0.44600  0.35300  1.0000
  F   F6        1.0  0.77200  0.82900  0.40000  1.0000
  F   F7        1.0  0.64300  0.22900  0.40300  1.0000
  F   F8        1.0  0.35700  0.77100  0.59700  1.0000
  F   F9        1.0  0.22800  0.17100  0.60000  1.0000
  F   F10       1.0  0.79900  0.55400  0.64700  1.0000
  F   F11       1.0  0.87500  0.07260  0.77500  1.0000
  F   F12       1.0  0.32200  0.62300  0.84600  1.0000
  F   F13       1.0  0.45300  0.18000  0.87500  1.0000
  F   F14       1.0  0.92700  0.71900  0.93200  1.0000
  Re  Re1       1.0  0.85900  0.13000  0.24900  1.0000
  Re  Re2       1.0  0.14100  0.87000  0.75100  1.0000
