data_image0
_chemical_formula_structural       Cl4H4Hg4O16
_chemical_formula_sum              "Cl4 H4 Hg4 O16"
_cell_length_a       4.61435
_cell_length_b       11.3063
_cell_length_c       7.18162
_cell_angle_alpha    90
_cell_angle_beta     90
_cell_angle_gamma    90

_space_group_name_H-M_alt    "P 1"
_space_group_IT_number       1

loop_
  _space_group_symop_operation_xyz
  'x, y, z'

loop_
  _atom_site_type_symbol
  _atom_site_label
  _atom_site_symmetry_multiplicity
  _atom_site_fract_x
  _atom_site_fract_y
  _atom_site_fract_z
  _atom_site_occupancy
  Cl  Cl1       1.0  0.00069  0.44200  0.25000  1.0000
  Cl  Cl2       1.0  0.99900  0.94200  0.25000  1.0000
  Cl  Cl3       1.0  0.00069  0.05790  0.75000  1.0000
  Cl  Cl4       1.0  0.99900  0.55800  0.75000  1.0000
  H   H1        1.0  0.45500  0.08670  0.25000  1.0000
  H   H2        1.0  0.54500  0.58700  0.25000  1.0000
  H   H3        1.0  0.45500  0.41300  0.75000  1.0000
  H   H4        1.0  0.54500  0.91300  0.75000  1.0000
  Hg  Hg1       1.0  0.56500  0.25000  0.00000  1.0000
  Hg  Hg2       1.0  0.43500  0.75000  0.00000  1.0000
  Hg  Hg3       1.0  0.56500  0.25000  0.50000  1.0000
  Hg  Hg4       1.0  0.43500  0.75000  0.50000  1.0000
  O   O1        1.0  0.07130  0.37000  0.08090  1.0000
  O   O2        1.0  0.92900  0.87000  0.08090  1.0000
  O   O3        1.0  0.58700  0.15700  0.25000  1.0000
  O   O4        1.0  0.67100  0.45200  0.25000  1.0000
  O   O5        1.0  0.41300  0.65700  0.25000  1.0000
  O   O6        1.0  0.32900  0.95200  0.25000  1.0000
  O   O7        1.0  0.07130  0.37000  0.41900  1.0000
  O   O8        1.0  0.92900  0.87000  0.41900  1.0000
  O   O9        1.0  0.07130  0.13000  0.58100  1.0000
  O   O10       1.0  0.92900  0.63000  0.58100  1.0000
  O   O11       1.0  0.67100  0.04830  0.75000  1.0000
  O   O12       1.0  0.58700  0.34300  0.75000  1.0000
  O   O13       1.0  0.32900  0.54800  0.75000  1.0000
  O   O14       1.0  0.41300  0.84300  0.75000  1.0000
  O   O15       1.0  0.07130  0.13000  0.91900  1.0000
  O   O16       1.0  0.92900  0.63000  0.91900  1.0000
