data_image0
_chemical_formula_structural       H10MnN4O8S2
_chemical_formula_sum              "H10 Mn1 N4 O8 S2"
_cell_length_a       5.37222
_cell_length_b       5.7291
_cell_length_c       7.27795
_cell_angle_alpha    92.5812
_cell_angle_beta     104.447
_cell_angle_gamma    99.3995

_space_group_name_H-M_alt    "P 1"
_space_group_IT_number       1

loop_
  _space_group_symop_operation_xyz
  'x, y, z'

loop_
  _atom_site_type_symbol
  _atom_site_label
  _atom_site_symmetry_multiplicity
  _atom_site_fract_x
  _atom_site_fract_y
  _atom_site_fract_z
  _atom_site_occupancy
  H   H1        1.0  0.21100  0.54300  0.17400  1.0000
  H   H2        1.0  0.89900  0.71100  0.28200  1.0000
  H   H3        1.0  0.43800  0.78100  0.28800  1.0000
  H   H4        1.0  0.13000  0.93400  0.39200  1.0000
  H   H5        1.0  0.28500  0.59100  0.41700  1.0000
  H   H6        1.0  0.71500  0.40900  0.58300  1.0000
  H   H7        1.0  0.87000  0.06600  0.60800  1.0000
  H   H8        1.0  0.56200  0.21900  0.71200  1.0000
  H   H9        1.0  0.10100  0.28900  0.71800  1.0000
  H   H10       1.0  0.78900  0.45700  0.82600  1.0000
  Mn  Mn1       1.0  0.00000  0.00000  0.00000  1.0000
  N   N1        1.0  0.06740  0.82000  0.26900  1.0000
  N   N2        1.0  0.26200  0.67100  0.28800  1.0000
  N   N3        1.0  0.73800  0.32900  0.71200  1.0000
  N   N4        1.0  0.93300  0.18000  0.73100  1.0000
  O   O1        1.0  0.37700  0.23900  0.09280  1.0000
  O   O2        1.0  0.84100  0.28400  0.11100  1.0000
  O   O3        1.0  0.66100  0.04460  0.33200  1.0000
  O   O4        1.0  0.69600  0.47400  0.35900  1.0000
  O   O5        1.0  0.30400  0.52600  0.64100  1.0000
  O   O6        1.0  0.33900  0.95500  0.66800  1.0000
  O   O7        1.0  0.15900  0.71600  0.88900  1.0000
  O   O8        1.0  0.62300  0.76100  0.90700  1.0000
  S   S1        1.0  0.64200  0.25700  0.22300  1.0000
  S   S2        1.0  0.35800  0.74300  0.77700  1.0000
