data_image0
_chemical_formula_structural       Ag4Br4Hg4S4
_chemical_formula_sum              "Ag4 Br4 Hg4 S4"
_cell_length_a       9.94279
_cell_length_b       4.6549
_cell_length_c       9.81314
_cell_angle_alpha    90
_cell_angle_beta     90
_cell_angle_gamma    90

_space_group_name_H-M_alt    "P 1"
_space_group_IT_number       1

loop_
  _space_group_symop_operation_xyz
  'x, y, z'

loop_
  _atom_site_type_symbol
  _atom_site_label
  _atom_site_symmetry_multiplicity
  _atom_site_fract_x
  _atom_site_fract_y
  _atom_site_fract_z
  _atom_site_occupancy
  Ag  Ag1       1.0  0.08600  0.00000  0.20900  1.0000
  Ag  Ag2       1.0  0.41400  0.00000  0.20900  1.0000
  Ag  Ag3       1.0  0.58600  0.00000  0.79100  1.0000
  Ag  Ag4       1.0  0.91400  0.00000  0.79100  1.0000
  Br  Br1       1.0  0.75000  0.00000  0.01300  1.0000
  Br  Br2       1.0  0.25000  0.00000  0.46400  1.0000
  Br  Br3       1.0  0.75000  0.00000  0.53600  1.0000
  Br  Br4       1.0  0.25000  0.00000  0.98700  1.0000
  Hg  Hg1       1.0  0.75000  0.50000  0.22800  1.0000
  Hg  Hg2       1.0  0.00000  0.50000  0.50000  1.0000
  Hg  Hg3       1.0  0.50000  0.50000  0.50000  1.0000
  Hg  Hg4       1.0  0.25000  0.50000  0.77200  1.0000
  S   S1        1.0  0.50800  0.50000  0.25400  1.0000
  S   S2        1.0  0.99200  0.50000  0.25400  1.0000
  S   S3        1.0  0.00799  0.50000  0.74600  1.0000
  S   S4        1.0  0.49200  0.50000  0.74600  1.0000
