data_image0
_chemical_formula_structural       AuF16H4Sb2
_chemical_formula_sum              "Au1 F16 H4 Sb2"
_cell_length_a       5.19331
_cell_length_b       5.3111
_cell_length_c       8.81491
_cell_angle_alpha    89.7582
_cell_angle_beta     85.2746
_cell_angle_gamma    87.4916

_space_group_name_H-M_alt    "P 1"
_space_group_IT_number       1

loop_
  _space_group_symop_operation_xyz
  'x, y, z'

loop_
  _atom_site_type_symbol
  _atom_site_label
  _atom_site_symmetry_multiplicity
  _atom_site_fract_x
  _atom_site_fract_y
  _atom_site_fract_z
  _atom_site_occupancy
  Au  Au1       1.0  0.00000  0.00000  0.00000  1.0000
  F   F1        1.0  0.32100  0.68500  0.12300  1.0000
  F   F2        1.0  0.81700  0.53100  0.13000  1.0000
  F   F3        1.0  0.22500  0.19800  0.14300  1.0000
  F   F4        1.0  0.68000  0.01860  0.17300  1.0000
  F   F5        1.0  0.46300  0.40000  0.36600  1.0000
  F   F6        1.0  0.97300  0.25500  0.37000  1.0000
  F   F7        1.0  0.85700  0.74600  0.39100  1.0000
  F   F8        1.0  0.34500  0.89900  0.40100  1.0000
  F   F9        1.0  0.65500  0.10100  0.59900  1.0000
  F   F10       1.0  0.14300  0.25400  0.60900  1.0000
  F   F11       1.0  0.02730  0.74500  0.63000  1.0000
  F   F12       1.0  0.53700  0.60000  0.63400  1.0000
  F   F13       1.0  0.32000  0.98100  0.82700  1.0000
  F   F14       1.0  0.77500  0.80200  0.85700  1.0000
  F   F15       1.0  0.18300  0.46900  0.87000  1.0000
  F   F16       1.0  0.67900  0.31500  0.87700  1.0000
  H   H1        1.0  0.11900  0.23000  0.24900  1.0000
  H   H2        1.0  0.06530  0.24900  0.46500  1.0000
  H   H3        1.0  0.93500  0.75100  0.53500  1.0000
  H   H4        1.0  0.88100  0.77000  0.75100  1.0000
  Sb  Sb1       1.0  0.56900  0.69900  0.26800  1.0000
  Sb  Sb2       1.0  0.43100  0.30100  0.73200  1.0000
