data_image0
_chemical_formula_structural       H8O16Se4
_chemical_formula_sum              "H8 O16 Se4"
_cell_length_a       8.1257
_cell_length_b       7.96886
_cell_length_c       4.51014
_cell_angle_alpha    90
_cell_angle_beta     90
_cell_angle_gamma    90

_space_group_name_H-M_alt    "P 1"
_space_group_IT_number       1

loop_
  _space_group_symop_operation_xyz
  'x, y, z'

loop_
  _atom_site_type_symbol
  _atom_site_label
  _atom_site_symmetry_multiplicity
  _atom_site_fract_x
  _atom_site_fract_y
  _atom_site_fract_z
  _atom_site_occupancy
  H   H1        1.0  0.24700  0.20600  0.01880  1.0000
  H   H2        1.0  0.04430  0.51600  0.05070  1.0000
  H   H3        1.0  0.95600  0.01600  0.44900  1.0000
  H   H4        1.0  0.75300  0.70600  0.48100  1.0000
  H   H5        1.0  0.25300  0.79400  0.51900  1.0000
  H   H6        1.0  0.45600  0.48400  0.55100  1.0000
  H   H7        1.0  0.54400  0.98400  0.94900  1.0000
  H   H8        1.0  0.74700  0.29400  0.98100  1.0000
  O   O1        1.0  0.57800  0.89700  0.10700  1.0000
  O   O2        1.0  0.72700  0.22500  0.17500  1.0000
  O   O3        1.0  0.71800  0.60500  0.20900  1.0000
  O   O4        1.0  0.97200  0.87700  0.21800  1.0000
  O   O5        1.0  0.02770  0.37700  0.28200  1.0000
  O   O6        1.0  0.28200  0.10500  0.29100  1.0000
  O   O7        1.0  0.27300  0.72500  0.32500  1.0000
  O   O8        1.0  0.42200  0.39700  0.39300  1.0000
  O   O9        1.0  0.92200  0.10300  0.60700  1.0000
  O   O10       1.0  0.77300  0.77500  0.67500  1.0000
  O   O11       1.0  0.78200  0.39500  0.70900  1.0000
  O   O12       1.0  0.52800  0.12300  0.71800  1.0000
  O   O13       1.0  0.47200  0.62300  0.78200  1.0000
  O   O14       1.0  0.21800  0.89500  0.79100  1.0000
  O   O15       1.0  0.22700  0.27500  0.82500  1.0000
  O   O16       1.0  0.07830  0.60300  0.89300  1.0000
  Se  Se1       1.0  0.13200  0.78800  0.06190  1.0000
  Se  Se2       1.0  0.86800  0.28800  0.43800  1.0000
  Se  Se3       1.0  0.36800  0.21200  0.56200  1.0000
  Se  Se4       1.0  0.63200  0.71200  0.93800  1.0000
