data_image0
_chemical_formula_structural       H2O16Rb6Se4
_chemical_formula_sum              "H2 O16 Rb6 Se4"
_cell_length_a       6.03846
_cell_length_b       8.20782
_cell_length_c       10.3536
_cell_angle_alpha    101.983
_cell_angle_beta     90
_cell_angle_gamma    111.583

_space_group_name_H-M_alt    "P 1"
_space_group_IT_number       1

loop_
  _space_group_symop_operation_xyz
  'x, y, z'

loop_
  _atom_site_type_symbol
  _atom_site_label
  _atom_site_symmetry_multiplicity
  _atom_site_fract_x
  _atom_site_fract_y
  _atom_site_fract_z
  _atom_site_occupancy
  H   H1        1.0  0.00000  0.00000  0.00000  1.0000
  H   H2        1.0  0.00000  0.00000  0.50000  1.0000
  O   O1        1.0  0.17100  0.99500  0.05960  1.0000
  O   O2        1.0  0.85200  0.68400  0.10300  1.0000
  O   O3        1.0  0.33200  0.74100  0.11500  1.0000
  O   O4        1.0  0.91400  0.31200  0.12500  1.0000
  O   O5        1.0  0.60100  0.68800  0.37500  1.0000
  O   O6        1.0  0.59100  0.25900  0.38500  1.0000
  O   O7        1.0  0.16800  0.31600  0.39700  1.0000
  O   O8        1.0  0.17700  0.00548  0.44000  1.0000
  O   O9        1.0  0.82300  0.99500  0.56000  1.0000
  O   O10       1.0  0.83200  0.68400  0.60300  1.0000
  O   O11       1.0  0.40900  0.74100  0.61500  1.0000
  O   O12       1.0  0.39900  0.31200  0.62500  1.0000
  O   O13       1.0  0.08610  0.68800  0.87500  1.0000
  O   O14       1.0  0.66800  0.25900  0.88500  1.0000
  O   O15       1.0  0.14800  0.31600  0.89700  1.0000
  O   O16       1.0  0.82900  0.00548  0.94000  1.0000
  Rb  Rb1       1.0  0.45900  0.38700  0.15100  1.0000
  Rb  Rb2       1.0  0.75500  0.00000  0.25000  1.0000
  Rb  Rb3       1.0  0.07130  0.61300  0.34900  1.0000
  Rb  Rb4       1.0  0.92900  0.38700  0.65100  1.0000
  Rb  Rb5       1.0  0.24500  0.00000  0.75000  1.0000
  Rb  Rb6       1.0  0.54100  0.61300  0.84900  1.0000
  Se  Se1       1.0  0.11100  0.76600  0.03840  1.0000
  Se  Se2       1.0  0.34400  0.23400  0.46200  1.0000
  Se  Se3       1.0  0.65600  0.76600  0.53800  1.0000
  Se  Se4       1.0  0.88900  0.23400  0.96200  1.0000
