data_image0
_chemical_formula_structural       F16H2K6Sn2
_chemical_formula_sum              "F16 H2 K6 Sn2"
_cell_length_a       6.60245
_cell_length_b       7.94764
_cell_length_c       7.94764
_cell_angle_alpha    113.795
_cell_angle_beta     89.5538
_cell_angle_gamma    89.5538

_space_group_name_H-M_alt    "P 1"
_space_group_IT_number       1

loop_
  _space_group_symop_operation_xyz
  'x, y, z'

loop_
  _atom_site_type_symbol
  _atom_site_label
  _atom_site_symmetry_multiplicity
  _atom_site_fract_x
  _atom_site_fract_y
  _atom_site_fract_z
  _atom_site_occupancy
  F   F1        1.0  0.25000  0.96800  0.03210  1.0000
  F   F2        1.0  0.67700  0.40800  0.03840  1.0000
  F   F3        1.0  0.95600  0.77000  0.14000  1.0000
  F   F4        1.0  0.54400  0.86000  0.23000  1.0000
  F   F5        1.0  0.25000  0.67000  0.33000  1.0000
  F   F6        1.0  0.01070  0.38800  0.35500  1.0000
  F   F7        1.0  0.51100  0.35500  0.38800  1.0000
  F   F8        1.0  0.17700  0.03840  0.40800  1.0000
  F   F9        1.0  0.82300  0.96200  0.59200  1.0000
  F   F10       1.0  0.48900  0.64500  0.61200  1.0000
  F   F11       1.0  0.98900  0.61200  0.64500  1.0000
  F   F12       1.0  0.75000  0.33000  0.67000  1.0000
  F   F13       1.0  0.45600  0.14000  0.77000  1.0000
  F   F14       1.0  0.04390  0.23000  0.86000  1.0000
  F   F15       1.0  0.32300  0.59200  0.96200  1.0000
  F   F16       1.0  0.75000  0.03210  0.96800  1.0000
  H   H1        1.0  0.00000  0.50000  0.50000  1.0000
  H   H2        1.0  0.50000  0.50000  0.50000  1.0000
  K   K1        1.0  0.29800  0.32000  0.11600  1.0000
  K   K2        1.0  0.79800  0.11600  0.32000  1.0000
  K   K3        1.0  0.75000  0.64500  0.35500  1.0000
  K   K4        1.0  0.25000  0.35500  0.64500  1.0000
  K   K5        1.0  0.20200  0.88400  0.68000  1.0000
  K   K6        1.0  0.70200  0.68000  0.88400  1.0000
  Sn  Sn1       1.0  0.25000  0.81900  0.18100  1.0000
  Sn  Sn2       1.0  0.75000  0.18100  0.81900  1.0000
