data_image0
_chemical_formula_structural       Cs3HO8Se2
_chemical_formula_sum              "Cs3 H1 O8 Se2"
_cell_length_a       6.26253
_cell_length_b       6.26253
_cell_length_c       8.34825
_cell_angle_alpha    109.269
_cell_angle_beta     109.269
_cell_angle_gamma    60.5611

_space_group_name_H-M_alt    "P 1"
_space_group_IT_number       1

loop_
  _space_group_symop_operation_xyz
  'x, y, z'

loop_
  _atom_site_type_symbol
  _atom_site_label
  _atom_site_symmetry_multiplicity
  _atom_site_fract_x
  _atom_site_fract_y
  _atom_site_fract_z
  _atom_site_occupancy
  Cs  Cs1       1.0  0.00000  0.00000  0.00000  1.0000
  Cs  Cs2       1.0  0.80200  0.80200  0.39200  1.0000
  Cs  Cs3       1.0  0.19800  0.19800  0.60800  1.0000
  H   H1        1.0  0.50000  0.50000  0.00000  1.0000
  O   O1        1.0  0.39100  0.39100  0.01430  1.0000
  O   O2        1.0  0.28300  0.28300  0.26100  1.0000
  O   O3        1.0  0.73500  0.29900  0.31200  1.0000
  O   O4        1.0  0.29900  0.73500  0.31200  1.0000
  O   O5        1.0  0.70100  0.26500  0.68800  1.0000
  O   O6        1.0  0.26500  0.70100  0.68800  1.0000
  O   O7        1.0  0.71700  0.71700  0.73900  1.0000
  O   O8        1.0  0.60900  0.60900  0.98600  1.0000
  Se  Se1       1.0  0.42700  0.42700  0.23500  1.0000
  Se  Se2       1.0  0.57300  0.57300  0.76500  1.0000
