data_image0
_chemical_formula_structural       Ge6Pr10
_chemical_formula_sum              "Ge6 Pr10"
_cell_length_a       8.91736
_cell_length_b       8.91736
_cell_length_c       6.79826
_cell_angle_alpha    90
_cell_angle_beta     90
_cell_angle_gamma    120

_space_group_name_H-M_alt    "P 1"
_space_group_IT_number       1

loop_
  _space_group_symop_operation_xyz
  'x, y, z'

loop_
  _atom_site_type_symbol
  _atom_site_label
  _atom_site_symmetry_multiplicity
  _atom_site_fract_x
  _atom_site_fract_y
  _atom_site_fract_z
  _atom_site_occupancy
  Ge  Ge1       1.0  0.60700  0.00000  0.25000  1.0000
  Ge  Ge2       1.0  0.00000  0.60700  0.25000  1.0000
  Ge  Ge3       1.0  0.39300  0.39300  0.25000  1.0000
  Ge  Ge4       1.0  0.00000  0.39300  0.75000  1.0000
  Ge  Ge5       1.0  0.39300  1.00000  0.75000  1.0000
  Ge  Ge6       1.0  0.60700  0.60700  0.75000  1.0000
  Pr  Pr1       1.0  0.66700  0.33300  0.00000  1.0000
  Pr  Pr2       1.0  0.33300  0.66700  0.00000  1.0000
  Pr  Pr3       1.0  0.75400  0.75400  0.25000  1.0000
  Pr  Pr4       1.0  0.00000  0.24600  0.25000  1.0000
  Pr  Pr5       1.0  0.24600  0.00000  0.25000  1.0000
  Pr  Pr6       1.0  0.66700  0.33300  0.50000  1.0000
  Pr  Pr7       1.0  0.33300  0.66700  0.50000  1.0000
  Pr  Pr8       1.0  0.24600  0.24600  0.75000  1.0000
  Pr  Pr9       1.0  0.75400  0.00000  0.75000  1.0000
  Pr  Pr10      1.0  0.00000  0.75400  0.75000  1.0000
