data_image0
_chemical_formula_structural       Cs2F4H2O12S4
_chemical_formula_sum              "Cs2 F4 H2 O12 S4"
_cell_length_a       7.41291
_cell_length_b       7.41291
_cell_length_c       8.06717
_cell_angle_alpha    98.5195
_cell_angle_beta     108.014
_cell_angle_gamma    120.148

_space_group_name_H-M_alt    "P 1"
_space_group_IT_number       1

loop_
  _space_group_symop_operation_xyz
  'x, y, z'

loop_
  _atom_site_type_symbol
  _atom_site_label
  _atom_site_symmetry_multiplicity
  _atom_site_fract_x
  _atom_site_fract_y
  _atom_site_fract_z
  _atom_site_occupancy
  Cs  Cs1       1.0  0.36900  0.11900  0.25000  1.0000
  Cs  Cs2       1.0  0.63100  0.88100  0.75000  1.0000
  F   F1        1.0  0.57500  0.56400  0.20000  1.0000
  F   F2        1.0  0.86400  0.37500  0.30000  1.0000
  F   F3        1.0  0.13600  0.62500  0.70000  1.0000
  F   F4        1.0  0.42500  0.43600  0.80000  1.0000
  H   H1        1.0  0.00000  0.50000  0.00000  1.0000
  H   H2        1.0  0.00000  0.00000  0.50000  1.0000
  O   O1        1.0  0.02280  0.38400  0.08210  1.0000
  O   O2        1.0  0.50300  0.82500  0.10900  1.0000
  O   O3        1.0  0.86100  0.86000  0.14100  1.0000
  O   O4        1.0  0.21900  0.72000  0.35900  1.0000
  O   O5        1.0  0.21600  0.39400  0.39100  1.0000
  O   O6        1.0  0.80200  0.94100  0.41800  1.0000
  O   O7        1.0  0.19800  0.05920  0.58200  1.0000
  O   O8        1.0  0.78400  0.60600  0.60900  1.0000
  O   O9        1.0  0.78100  0.28000  0.64100  1.0000
  O   O10       1.0  0.13900  0.14000  0.85900  1.0000
  O   O11       1.0  0.49700  0.17500  0.89100  1.0000
  O   O12       1.0  0.97700  0.61600  0.91800  1.0000
  S   S1        1.0  0.69400  0.81900  0.21100  1.0000
  S   S2        1.0  0.10800  0.48300  0.28900  1.0000
  S   S3        1.0  0.89200  0.51700  0.71100  1.0000
  S   S4        1.0  0.30600  0.18100  0.78900  1.0000
