data_image0
_chemical_formula_structural       H14N4O8S2
_chemical_formula_sum              "H14 N4 O8 S2"
_cell_length_a       5.51338
_cell_length_b       5.47582
_cell_length_c       8.29438
_cell_angle_alpha    71.7635
_cell_angle_beta     73.5886
_cell_angle_gamma    66.272

_space_group_name_H-M_alt    "P 1"
_space_group_IT_number       1

loop_
  _space_group_symop_operation_xyz
  'x, y, z'

loop_
  _atom_site_type_symbol
  _atom_site_label
  _atom_site_symmetry_multiplicity
  _atom_site_fract_x
  _atom_site_fract_y
  _atom_site_fract_z
  _atom_site_occupancy
  H   H1        1.0  0.19600  0.18500  0.04060  1.0000
  H   H2        1.0  0.99700  0.76000  0.10800  1.0000
  H   H3        1.0  0.65700  0.94900  0.13500  1.0000
  H   H4        1.0  0.76600  0.60700  0.15200  1.0000
  H   H5        1.0  0.19000  0.88800  0.35900  1.0000
  H   H6        1.0  0.80400  0.24300  0.42300  1.0000
  H   H7        1.0  0.93600  0.77100  0.49100  1.0000
  H   H8        1.0  0.06440  0.22900  0.50900  1.0000
  H   H9        1.0  0.19600  0.75700  0.57700  1.0000
  H   H10       1.0  0.81000  0.11200  0.64100  1.0000
  H   H11       1.0  0.23400  0.39300  0.84800  1.0000
  H   H12       1.0  0.34300  0.05110  0.86500  1.0000
  H   H13       1.0  0.00285  0.24000  0.89200  1.0000
  H   H14       1.0  0.80400  0.81500  0.95900  1.0000
  N   N1        1.0  0.80900  0.78600  0.08790  1.0000
  N   N2        1.0  0.07410  0.86700  0.48200  1.0000
  N   N3        1.0  0.92600  0.13300  0.51800  1.0000
  N   N4        1.0  0.19100  0.21400  0.91200  1.0000
  O   O1        1.0  0.29100  0.66600  0.18500  1.0000
  O   O2        1.0  0.33800  0.19100  0.21300  1.0000
  O   O3        1.0  0.71000  0.29900  0.23900  1.0000
  O   O4        1.0  0.31400  0.34100  0.46500  1.0000
  O   O5        1.0  0.68600  0.65900  0.53500  1.0000
  O   O6        1.0  0.29000  0.70100  0.76100  1.0000
  O   O7        1.0  0.66200  0.80900  0.78700  1.0000
  O   O8        1.0  0.70900  0.33400  0.81500  1.0000
  S   S1        1.0  0.41000  0.37600  0.27500  1.0000
  S   S2        1.0  0.59000  0.62400  0.72500  1.0000
