data_image0
_chemical_formula_structural       F10H16N2
_chemical_formula_sum              "F10 H16 N2"
_cell_length_a       7.39636
_cell_length_b       5.96171
_cell_length_c       5.96171
_cell_angle_alpha    90
_cell_angle_beta     113.767
_cell_angle_gamma    113.767

_space_group_name_H-M_alt    "P 1"
_space_group_IT_number       1

loop_
  _space_group_symop_operation_xyz
  'x, y, z'

loop_
  _atom_site_type_symbol
  _atom_site_label
  _atom_site_symmetry_multiplicity
  _atom_site_fract_x
  _atom_site_fract_y
  _atom_site_fract_z
  _atom_site_occupancy
  F   F1        1.0  0.01420  0.73900  0.03660  1.0000
  F   F2        1.0  0.48600  0.52200  0.26100  1.0000
  F   F3        1.0  0.51400  0.03660  0.27500  1.0000
  F   F4        1.0  0.25000  0.62500  0.37500  1.0000
  F   F5        1.0  0.01420  0.27500  0.47800  1.0000
  F   F6        1.0  0.98600  0.72500  0.52200  1.0000
  F   F7        1.0  0.75000  0.37500  0.62500  1.0000
  F   F8        1.0  0.48600  0.96300  0.72500  1.0000
  F   F9        1.0  0.51400  0.47800  0.73900  1.0000
  F   F10       1.0  0.98600  0.26100  0.96300  1.0000
  H   H1        1.0  0.34700  0.27500  0.02210  1.0000
  H   H2        1.0  0.84700  0.02210  0.07170  1.0000
  H   H3        1.0  0.65300  0.92800  0.17600  1.0000
  H   H4        1.0  0.11400  0.69400  0.17700  1.0000
  H   H5        1.0  0.84700  0.82400  0.27500  1.0000
  H   H6        1.0  0.38600  0.56300  0.30600  1.0000
  H   H7        1.0  0.61400  0.17700  0.42000  1.0000
  H   H8        1.0  0.11400  0.42000  0.43700  1.0000
  H   H9        1.0  0.88600  0.58000  0.56300  1.0000
  H   H10       1.0  0.38600  0.82300  0.58000  1.0000
  H   H11       1.0  0.61400  0.43700  0.69400  1.0000
  H   H12       1.0  0.15300  0.17600  0.72500  1.0000
  H   H13       1.0  0.88600  0.30600  0.82300  1.0000
  H   H14       1.0  0.34700  0.07170  0.82400  1.0000
  H   H15       1.0  0.15300  0.97800  0.92800  1.0000
  H   H16       1.0  0.65300  0.72500  0.97800  1.0000
  N   N1        1.0  0.75000  0.87500  0.12500  1.0000
  N   N2        1.0  0.25000  0.12500  0.87500  1.0000
