data_image0
_chemical_formula_structural       As2F12H6O2
_chemical_formula_sum              "As2 F12 H6 O2"
_cell_length_a       4.59047
_cell_length_b       6.0097
_cell_length_c       7.06851
_cell_angle_alpha    87.3668
_cell_angle_beta     87.6046
_cell_angle_gamma    78.2276

_space_group_name_H-M_alt    "P 1"
_space_group_IT_number       1

loop_
  _space_group_symop_operation_xyz
  'x, y, z'

loop_
  _atom_site_type_symbol
  _atom_site_label
  _atom_site_symmetry_multiplicity
  _atom_site_fract_x
  _atom_site_fract_y
  _atom_site_fract_z
  _atom_site_occupancy
  As  As1       1.0  0.51800  0.23500  0.24500  1.0000
  As  As2       1.0  0.48200  0.76500  0.75500  1.0000
  F   F1        1.0  0.80600  0.16600  0.06800  1.0000
  F   F2        1.0  0.26600  0.35500  0.07250  1.0000
  F   F3        1.0  0.43700  0.96600  0.22400  1.0000
  F   F4        1.0  0.62200  0.50100  0.26900  1.0000
  F   F5        1.0  0.79000  0.11200  0.41100  1.0000
  F   F6        1.0  0.25300  0.30300  0.42600  1.0000
  F   F7        1.0  0.74700  0.69700  0.57400  1.0000
  F   F8        1.0  0.21000  0.88800  0.58900  1.0000
  F   F9        1.0  0.37800  0.49900  0.73100  1.0000
  F   F10       1.0  0.56300  0.03380  0.77600  1.0000
  F   F11       1.0  0.73400  0.64500  0.92800  1.0000
  F   F12       1.0  0.19400  0.83400  0.93200  1.0000
  H   H1        1.0  0.11400  0.75800  0.13500  1.0000
  H   H2        1.0  0.88400  0.62900  0.26400  1.0000
  H   H3        1.0  0.97800  0.85700  0.34100  1.0000
  H   H4        1.0  0.02220  0.14300  0.65900  1.0000
  H   H5        1.0  0.11600  0.37100  0.73600  1.0000
  H   H6        1.0  0.88600  0.24200  0.86500  1.0000
  O   O1        1.0  0.04470  0.71800  0.26600  1.0000
  O   O2        1.0  0.95500  0.28200  0.73400  1.0000
