data_image0
_chemical_formula_structural       H12Li2N2O12
_chemical_formula_sum              "H12 Li2 N2 O12"
_cell_length_a       5.72911
_cell_length_b       6.42153
_cell_length_c       7.01102
_cell_angle_alpha    62.7445
_cell_angle_beta     90
_cell_angle_gamma    90

_space_group_name_H-M_alt    "P 1"
_space_group_IT_number       1

loop_
  _space_group_symop_operation_xyz
  'x, y, z'

loop_
  _atom_site_type_symbol
  _atom_site_label
  _atom_site_symmetry_multiplicity
  _atom_site_fract_x
  _atom_site_fract_y
  _atom_site_fract_z
  _atom_site_occupancy
  H   H1        1.0  0.25000  0.28200  0.07610  1.0000
  H   H2        1.0  0.25000  0.64200  0.07610  1.0000
  H   H3        1.0  0.75000  0.20600  0.17600  1.0000
  H   H4        1.0  0.75000  0.61800  0.17600  1.0000
  H   H5        1.0  0.11200  0.31500  0.37100  1.0000
  H   H6        1.0  0.38800  0.31500  0.37100  1.0000
  H   H7        1.0  0.61200  0.68500  0.62900  1.0000
  H   H8        1.0  0.88800  0.68500  0.62900  1.0000
  H   H9        1.0  0.25000  0.38200  0.82400  1.0000
  H   H10       1.0  0.25000  0.79400  0.82400  1.0000
  H   H11       1.0  0.75000  0.35800  0.92400  1.0000
  H   H12       1.0  0.75000  0.71800  0.92400  1.0000
  Li  Li1       1.0  0.00000  0.00000  0.00000  1.0000
  Li  Li2       1.0  0.50000  0.00000  0.00000  1.0000
  N   N1        1.0  0.25000  0.78100  0.43700  1.0000
  N   N2        1.0  0.75000  0.21900  0.56300  1.0000
  O   O1        1.0  0.75000  0.19500  0.04090  1.0000
  O   O2        1.0  0.75000  0.76500  0.04090  1.0000
  O   O3        1.0  0.25000  0.36200  0.27600  1.0000
  O   O4        1.0  0.05680  0.82900  0.34100  1.0000
  O   O5        1.0  0.44300  0.82900  0.34100  1.0000
  O   O6        1.0  0.75000  0.32200  0.35600  1.0000
  O   O7        1.0  0.25000  0.67800  0.64400  1.0000
  O   O8        1.0  0.55700  0.17100  0.65900  1.0000
  O   O9        1.0  0.94300  0.17100  0.65900  1.0000
  O   O10       1.0  0.75000  0.63800  0.72400  1.0000
  O   O11       1.0  0.25000  0.23500  0.95900  1.0000
  O   O12       1.0  0.25000  0.80500  0.95900  1.0000
