data_image0
_chemical_formula_structural       Ca2H10O12P2
_chemical_formula_sum              "Ca2 H10 O12 P2"
_cell_length_a       5.71522
_cell_length_b       6.02785
_cell_length_c       8.06257
_cell_angle_alpha    102.642
_cell_angle_beta     101.011
_cell_angle_gamma    115.925

_space_group_name_H-M_alt    "P 1"
_space_group_IT_number       1

loop_
  _space_group_symop_operation_xyz
  'x, y, z'

loop_
  _atom_site_type_symbol
  _atom_site_label
  _atom_site_symmetry_multiplicity
  _atom_site_fract_x
  _atom_site_fract_y
  _atom_site_fract_z
  _atom_site_occupancy
  Ca  Ca1       1.0  0.42100  0.17200  0.33700  1.0000
  Ca  Ca2       1.0  0.58500  0.83500  0.66300  1.0000
  H   H1        1.0  0.15300  0.26400  0.01160  1.0000
  H   H2        1.0  0.77900  0.78300  0.03050  1.0000
  H   H3        1.0  0.31900  0.66100  0.13100  1.0000
  H   H4        1.0  0.04710  0.33700  0.17300  1.0000
  H   H5        1.0  0.82300  0.97100  0.34500  1.0000
  H   H6        1.0  0.97800  0.62600  0.65500  1.0000
  H   H7        1.0  0.37400  0.16400  0.82700  1.0000
  H   H8        1.0  0.68800  0.53000  0.86900  1.0000
  H   H9        1.0  0.24900  0.75300  0.97000  1.0000
  H   H10       1.0  0.64200  0.25200  0.98800  1.0000
  O   O1        1.0  0.33400  0.81600  0.10100  1.0000
  O   O2        1.0  0.20900  0.33200  0.14600  1.0000
  O   O3        1.0  0.79500  0.39200  0.20900  1.0000
  O   O4        1.0  0.87400  0.85600  0.26200  1.0000
  O   O5        1.0  0.24000  0.79600  0.43500  1.0000
  O   O6        1.0  0.78400  0.63700  0.49800  1.0000
  O   O7        1.0  0.78700  0.14000  0.50200  1.0000
  O   O8        1.0  0.30500  0.36100  0.56500  1.0000
  O   O9        1.0  0.11200  0.59500  0.73800  1.0000
  O   O10       1.0  0.08620  0.18400  0.79100  1.0000
  O   O11       1.0  0.56300  0.18600  0.85400  1.0000
  O   O12       1.0  0.73200  0.71500  0.89900  1.0000
  P   P1        1.0  0.92900  0.66300  0.35300  1.0000
  P   P2        1.0  0.07560  0.31000  0.64700  1.0000
