data_image0
_chemical_formula_structural       Br2H16N8P2
_chemical_formula_sum              "Br2 H16 N8 P2"
_cell_length_a       9.32004
_cell_length_b       9.32004
_cell_length_c       3.04393
_cell_angle_alpha    90
_cell_angle_beta     90
_cell_angle_gamma    90

_space_group_name_H-M_alt    "P 1"
_space_group_IT_number       1

loop_
  _space_group_symop_operation_xyz
  'x, y, z'

loop_
  _atom_site_type_symbol
  _atom_site_label
  _atom_site_symmetry_multiplicity
  _atom_site_fract_x
  _atom_site_fract_y
  _atom_site_fract_z
  _atom_site_occupancy
  Br  Br1       1.0  0.25000  0.25000  0.00000  1.0000
  Br  Br2       1.0  0.75000  0.75000  0.00000  1.0000
  H   H1        1.0  0.64400  0.01690  0.14600  1.0000
  H   H2        1.0  0.51700  0.14400  0.14600  1.0000
  H   H3        1.0  0.98300  0.35600  0.14600  1.0000
  H   H4        1.0  0.85600  0.48300  0.14600  1.0000
  H   H5        1.0  0.35600  0.51700  0.14600  1.0000
  H   H6        1.0  0.48300  0.64400  0.14600  1.0000
  H   H7        1.0  0.01690  0.85600  0.14600  1.0000
  H   H8        1.0  0.14400  0.98300  0.14600  1.0000
  H   H9        1.0  0.85600  0.01690  0.85400  1.0000
  H   H10       1.0  0.98300  0.14400  0.85400  1.0000
  H   H11       1.0  0.51700  0.35600  0.85400  1.0000
  H   H12       1.0  0.64400  0.48300  0.85400  1.0000
  H   H13       1.0  0.14400  0.51700  0.85400  1.0000
  H   H14       1.0  0.01690  0.64400  0.85400  1.0000
  H   H15       1.0  0.48300  0.85600  0.85400  1.0000
  H   H16       1.0  0.35600  0.98300  0.85400  1.0000
  N   N1        1.0  0.55300  0.05280  0.99000  1.0000
  N   N2        1.0  0.94700  0.44700  0.99000  1.0000
  N   N3        1.0  0.44700  0.55300  0.99000  1.0000
  N   N4        1.0  0.05280  0.94700  0.99000  1.0000
  N   N5        1.0  0.94700  0.05280  0.01030  1.0000
  N   N6        1.0  0.55300  0.44700  0.01030  1.0000
  N   N7        1.0  0.05280  0.55300  0.01030  1.0000
  N   N8        1.0  0.44700  0.94700  0.01030  1.0000
  P   P1        1.0  0.75000  0.25000  0.50000  1.0000
  P   P2        1.0  0.25000  0.75000  0.50000  1.0000
