data_image0
_chemical_formula_structural       C4Cs4H8O12
_chemical_formula_sum              "C4 Cs4 H8 O12"
_cell_length_a       6.12256
_cell_length_b       10.7274
_cell_length_c       6.07293
_cell_angle_alpha    90
_cell_angle_beta     112.636
_cell_angle_gamma    90

_space_group_name_H-M_alt    "P 1"
_space_group_IT_number       1

loop_
  _space_group_symop_operation_xyz
  'x, y, z'

loop_
  _atom_site_type_symbol
  _atom_site_label
  _atom_site_symmetry_multiplicity
  _atom_site_fract_x
  _atom_site_fract_y
  _atom_site_fract_z
  _atom_site_occupancy
  C   C1        1.0  0.53000  0.43900  0.07580  1.0000
  C   C2        1.0  0.47000  0.93900  0.42400  1.0000
  C   C3        1.0  0.53000  0.06090  0.57600  1.0000
  C   C4        1.0  0.47000  0.56100  0.92400  1.0000
  Cs  Cs1       1.0  0.88600  0.11600  0.20200  1.0000
  Cs  Cs2       1.0  0.11400  0.61600  0.29800  1.0000
  Cs  Cs3       1.0  0.88600  0.38400  0.70200  1.0000
  Cs  Cs4       1.0  0.11400  0.88400  0.79800  1.0000
  H   H1        1.0  0.34600  0.23500  0.09110  1.0000
  H   H2        1.0  0.66100  0.86200  0.10500  1.0000
  H   H3        1.0  0.33900  0.36200  0.39500  1.0000
  H   H4        1.0  0.65400  0.73500  0.40900  1.0000
  H   H5        1.0  0.34600  0.26500  0.59100  1.0000
  H   H6        1.0  0.66100  0.63800  0.60500  1.0000
  H   H7        1.0  0.33900  0.13800  0.89500  1.0000
  H   H8        1.0  0.65400  0.76500  0.90900  1.0000
  O   O1        1.0  0.31200  0.14600  0.04530  1.0000
  O   O2        1.0  0.36200  0.39400  0.12800  1.0000
  O   O3        1.0  0.73400  0.39300  0.13500  1.0000
  O   O4        1.0  0.26600  0.89300  0.36500  1.0000
  O   O5        1.0  0.63800  0.89400  0.37200  1.0000
  O   O6        1.0  0.68800  0.64600  0.45500  1.0000
  O   O7        1.0  0.31200  0.35400  0.54500  1.0000
  O   O8        1.0  0.36200  0.10600  0.62800  1.0000
  O   O9        1.0  0.73400  0.10700  0.63500  1.0000
  O   O10       1.0  0.26600  0.60700  0.86500  1.0000
  O   O11       1.0  0.63800  0.60600  0.87200  1.0000
  O   O12       1.0  0.68800  0.85400  0.95500  1.0000
