data_image0
_chemical_formula_structural       Au2Br2F12
_chemical_formula_sum              "Au2 Br2 F12"
_cell_length_a       4.93121
_cell_length_b       5.3462
_cell_length_c       8.09017
_cell_angle_alpha    90
_cell_angle_beta     98.2682
_cell_angle_gamma    90

_space_group_name_H-M_alt    "P 1"
_space_group_IT_number       1

loop_
  _space_group_symop_operation_xyz
  'x, y, z'

loop_
  _atom_site_type_symbol
  _atom_site_label
  _atom_site_symmetry_multiplicity
  _atom_site_fract_x
  _atom_site_fract_y
  _atom_site_fract_z
  _atom_site_occupancy
  Au  Au1       1.0  0.24200  0.26400  0.09790  1.0000
  Au  Au2       1.0  0.75800  0.76400  0.90200  1.0000
  Br  Br1       1.0  0.54700  0.73800  0.34100  1.0000
  Br  Br2       1.0  0.45300  0.23800  0.65900  1.0000
  F   F1        1.0  0.70700  0.46700  0.03290  1.0000
  F   F2        1.0  0.82000  0.96600  0.10300  1.0000
  F   F3        1.0  0.18100  0.56300  0.23600  1.0000
  F   F4        1.0  0.31000  0.06830  0.31100  1.0000
  F   F5        1.0  0.71000  0.43600  0.36700  1.0000
  F   F6        1.0  0.84200  0.90700  0.43600  1.0000
  F   F7        1.0  0.15800  0.40700  0.56400  1.0000
  F   F8        1.0  0.29000  0.93600  0.63300  1.0000
  F   F9        1.0  0.69000  0.56800  0.68900  1.0000
  F   F10       1.0  0.81900  0.06310  0.76400  1.0000
  F   F11       1.0  0.18000  0.46600  0.89700  1.0000
  F   F12       1.0  0.29300  0.96700  0.96700  1.0000
