data_image0
_chemical_formula_structural       Cu2F12Pt2
_chemical_formula_sum              "Cu2 F12 Pt2"
_cell_length_a       4.76329
_cell_length_b       4.7706
_cell_length_c       9.44665
_cell_angle_alpha    90.1013
_cell_angle_beta     104.4
_cell_angle_gamma    120.036

_space_group_name_H-M_alt    "P 1"
_space_group_IT_number       1

loop_
  _space_group_symop_operation_xyz
  'x, y, z'

loop_
  _atom_site_type_symbol
  _atom_site_label
  _atom_site_symmetry_multiplicity
  _atom_site_fract_x
  _atom_site_fract_y
  _atom_site_fract_z
  _atom_site_occupancy
  Cu  Cu1       1.0  0.00000  0.00000  0.00000  1.0000
  Cu  Cu2       1.0  0.00000  0.50000  0.50000  1.0000
  F   F1        1.0  0.74900  0.68800  0.12500  1.0000
  F   F2        1.0  0.43200  0.04250  0.12600  1.0000
  F   F3        1.0  0.07460  0.37300  0.12600  1.0000
  F   F4        1.0  0.25700  0.80000  0.37500  1.0000
  F   F5        1.0  0.92700  0.11400  0.37500  1.0000
  F   F6        1.0  0.57000  0.44000  0.37500  1.0000
  F   F7        1.0  0.43000  0.56000  0.62500  1.0000
  F   F8        1.0  0.07280  0.88600  0.62500  1.0000
  F   F9        1.0  0.74300  0.20000  0.62500  1.0000
  F   F10       1.0  0.92500  0.62700  0.87400  1.0000
  F   F11       1.0  0.56800  0.95800  0.87400  1.0000
  F   F12       1.0  0.25100  0.31200  0.87500  1.0000
  Pt  Pt1       1.0  0.50300  0.74300  0.25000  1.0000
  Pt  Pt2       1.0  0.49700  0.25700  0.75000  1.0000
