data_image0
_chemical_formula_structural       Cs6Na2Pb8
_chemical_formula_sum              "Cs6 Na2 Pb8"
_cell_length_a       7.35787
_cell_length_b       9.56134
_cell_length_c       11.2863
_cell_angle_alpha    90
_cell_angle_beta     90
_cell_angle_gamma    67.3704

_space_group_name_H-M_alt    "P 1"
_space_group_IT_number       1

loop_
  _space_group_symop_operation_xyz
  'x, y, z'

loop_
  _atom_site_type_symbol
  _atom_site_label
  _atom_site_symmetry_multiplicity
  _atom_site_fract_x
  _atom_site_fract_y
  _atom_site_fract_z
  _atom_site_occupancy
  Cs  Cs1       1.0  0.61200  0.77600  0.05430  1.0000
  Cs  Cs2       1.0  0.23300  0.53500  0.25000  1.0000
  Cs  Cs3       1.0  0.61200  0.77600  0.44600  1.0000
  Cs  Cs4       1.0  0.38800  0.22400  0.55400  1.0000
  Cs  Cs5       1.0  0.76700  0.46500  0.75000  1.0000
  Cs  Cs6       1.0  0.38800  0.22400  0.94600  1.0000
  Na  Na1       1.0  0.00000  0.00000  0.00000  1.0000
  Na  Na2       1.0  0.00000  0.00000  0.50000  1.0000
  Pb  Pb1       1.0  0.82800  0.34500  0.11300  1.0000
  Pb  Pb2       1.0  0.17700  0.09550  0.25000  1.0000
  Pb  Pb3       1.0  0.72800  0.09550  0.25000  1.0000
  Pb  Pb4       1.0  0.82800  0.34500  0.38700  1.0000
  Pb  Pb5       1.0  0.17200  0.65500  0.61300  1.0000
  Pb  Pb6       1.0  0.27200  0.90500  0.75000  1.0000
  Pb  Pb7       1.0  0.82300  0.90500  0.75000  1.0000
  Pb  Pb8       1.0  0.17200  0.65500  0.88700  1.0000
