data_image0
_chemical_formula_structural       Al4H4O16Si4
_chemical_formula_sum              "Al4 H4 O16 Si4"
_cell_length_a       7.16018
_cell_length_b       4.30921
_cell_length_c       6.95534
_cell_angle_alpha    90
_cell_angle_beta     98.4227
_cell_angle_gamma    90

_space_group_name_H-M_alt    "P 1"
_space_group_IT_number       1

loop_
  _space_group_symop_operation_xyz
  'x, y, z'

loop_
  _atom_site_type_symbol
  _atom_site_label
  _atom_site_symmetry_multiplicity
  _atom_site_fract_x
  _atom_site_fract_y
  _atom_site_fract_z
  _atom_site_occupancy
  Al  Al1       1.0  0.56300  0.47700  0.20600  1.0000
  Al  Al2       1.0  0.93700  0.97700  0.29400  1.0000
  Al  Al3       1.0  0.06330  0.02270  0.70600  1.0000
  Al  Al4       1.0  0.43700  0.52300  0.79400  1.0000
  H   H1        1.0  0.68600  0.02820  0.04780  1.0000
  H   H2        1.0  0.81400  0.52800  0.45200  1.0000
  H   H3        1.0  0.18600  0.47200  0.54800  1.0000
  H   H4        1.0  0.31400  0.97200  0.95200  1.0000
  O   O1        1.0  0.37700  0.29700  0.01250  1.0000
  O   O2        1.0  0.97800  0.69300  0.10600  1.0000
  O   O3        1.0  0.76000  0.21000  0.12400  1.0000
  O   O4        1.0  0.34700  0.70700  0.24000  1.0000
  O   O5        1.0  0.15300  0.20700  0.26000  1.0000
  O   O6        1.0  0.74000  0.71000  0.37600  1.0000
  O   O7        1.0  0.52200  0.19300  0.39400  1.0000
  O   O8        1.0  0.12300  0.79700  0.48700  1.0000
  O   O9        1.0  0.87700  0.20300  0.51300  1.0000
  O   O10       1.0  0.47800  0.80700  0.60600  1.0000
  O   O11       1.0  0.26000  0.29000  0.62400  1.0000
  O   O12       1.0  0.84700  0.79300  0.74000  1.0000
  O   O13       1.0  0.65300  0.29300  0.76000  1.0000
  O   O14       1.0  0.24000  0.79000  0.87600  1.0000
  O   O15       1.0  0.02220  0.30700  0.89400  1.0000
  O   O16       1.0  0.62300  0.70300  0.98700  1.0000
  Si  Si1       1.0  0.18200  0.48400  0.08340  1.0000
  Si  Si2       1.0  0.31800  0.98400  0.41700  1.0000
  Si  Si3       1.0  0.68200  0.01600  0.58300  1.0000
  Si  Si4       1.0  0.81800  0.51600  0.91700  1.0000
