data_image0
_chemical_formula_structural       Cu2H6O14V4
_chemical_formula_sum              "Cu2 H6 O14 V4"
_cell_length_a       5.08151
_cell_length_b       5.25699
_cell_length_c       10.2287
_cell_angle_alpha    99.8468
_cell_angle_beta     101.973
_cell_angle_gamma    101.141

_space_group_name_H-M_alt    "P 1"
_space_group_IT_number       1

loop_
  _space_group_symop_operation_xyz
  'x, y, z'

loop_
  _atom_site_type_symbol
  _atom_site_label
  _atom_site_symmetry_multiplicity
  _atom_site_fract_x
  _atom_site_fract_y
  _atom_site_fract_z
  _atom_site_occupancy
  Cu  Cu1       1.0  0.50000  0.50000  0.00000  1.0000
  Cu  Cu2       1.0  0.00000  0.50000  0.50000  1.0000
  H   H1        1.0  0.91900  0.29400  0.04960  1.0000
  H   H2        1.0  0.32700  0.90000  0.06920  1.0000
  H   H3        1.0  0.30000  0.84600  0.41400  1.0000
  H   H4        1.0  0.70000  0.15400  0.58600  1.0000
  H   H5        1.0  0.67300  0.09990  0.93100  1.0000
  H   H6        1.0  0.08120  0.70600  0.95000  1.0000
  O   O1        1.0  0.71200  0.22600  0.01920  1.0000
  O   O2        1.0  0.26200  0.36100  0.11300  1.0000
  O   O3        1.0  0.83800  0.76500  0.17900  1.0000
  O   O4        1.0  0.47600  0.04660  0.28200  1.0000
  O   O5        1.0  0.03930  0.28400  0.33600  1.0000
  O   O6        1.0  0.58500  0.61200  0.38000  1.0000
  O   O7        1.0  0.14200  0.84400  0.45600  1.0000
  O   O8        1.0  0.85800  0.15600  0.54400  1.0000
  O   O9        1.0  0.41500  0.38800  0.62000  1.0000
  O   O10       1.0  0.96100  0.71600  0.66400  1.0000
  O   O11       1.0  0.52400  0.95300  0.71800  1.0000
  O   O12       1.0  0.16200  0.23500  0.82100  1.0000
  O   O13       1.0  0.73800  0.63900  0.88700  1.0000
  O   O14       1.0  0.28800  0.77400  0.98100  1.0000
  V   V1        1.0  0.34800  0.32900  0.27800  1.0000
  V   V2        1.0  0.81400  0.91800  0.32900  1.0000
  V   V3        1.0  0.18600  0.08220  0.67100  1.0000
  V   V4        1.0  0.65200  0.67100  0.72200  1.0000
