data_image0
_chemical_formula_structural       F8Ga2H14N4
_chemical_formula_sum              "F8 Ga2 H14 N4"
_cell_length_a       5.84639
_cell_length_b       5.84639
_cell_length_c       7.2657
_cell_angle_alpha    111.343
_cell_angle_beta     68.6566
_cell_angle_gamma    113.77

_space_group_name_H-M_alt    "P 1"
_space_group_IT_number       1

loop_
  _space_group_symop_operation_xyz
  'x, y, z'

loop_
  _atom_site_type_symbol
  _atom_site_label
  _atom_site_symmetry_multiplicity
  _atom_site_fract_x
  _atom_site_fract_y
  _atom_site_fract_z
  _atom_site_occupancy
  F   F1        1.0  0.29300  0.29300  0.00000  1.0000
  F   F2        1.0  0.70700  0.70700  0.00000  1.0000
  F   F3        1.0  0.90900  0.09070  0.31100  1.0000
  F   F4        1.0  0.35100  0.07470  0.34600  1.0000
  F   F5        1.0  0.92500  0.64900  0.34600  1.0000
  F   F6        1.0  0.07470  0.35100  0.65400  1.0000
  F   F7        1.0  0.64900  0.92500  0.65400  1.0000
  F   F8        1.0  0.09070  0.90900  0.68900  1.0000
  Ga  Ga1       1.0  0.00000  0.00000  0.00000  1.0000
  Ga  Ga2       1.0  0.00000  1.00000  0.50000  1.0000
  H   H1        1.0  0.22900  0.77100  0.09020  1.0000
  H   H2        1.0  0.60000  0.14200  0.12800  1.0000
  H   H3        1.0  0.85800  0.40000  0.12800  1.0000
  H   H4        1.0  0.47600  0.52400  0.21700  1.0000
  H   H5        1.0  0.18700  0.55400  0.35200  1.0000
  H   H6        1.0  0.44600  0.81300  0.35200  1.0000
  H   H7        1.0  0.39600  0.60400  0.48100  1.0000
  H   H8        1.0  0.60400  0.39600  0.51900  1.0000
  H   H9        1.0  0.55400  0.18700  0.64800  1.0000
  H   H10       1.0  0.81300  0.44600  0.64800  1.0000
  H   H11       1.0  0.52400  0.47600  0.78300  1.0000
  H   H12       1.0  0.14200  0.60000  0.87200  1.0000
  H   H13       1.0  0.40000  0.85800  0.87200  1.0000
  H   H14       1.0  0.77100  0.22900  0.91000  1.0000
  N   N1        1.0  0.78300  0.21700  0.04250  1.0000
  N   N2        1.0  0.37900  0.62100  0.35300  1.0000
  N   N3        1.0  0.62100  0.37900  0.64700  1.0000
  N   N4        1.0  0.21700  0.78300  0.95800  1.0000
