data_image0
_chemical_formula_structural       H12N2NiO10S2
_chemical_formula_sum              "H12 N2 Ni1 O10 S2"
_cell_length_a       6.14046
_cell_length_b       6.54987
_cell_length_c       6.6221
_cell_angle_alpha    88.6072
_cell_angle_beta     67.3498
_cell_angle_gamma    67.7429

_space_group_name_H-M_alt    "P 1"
_space_group_IT_number       1

loop_
  _space_group_symop_operation_xyz
  'x, y, z'

loop_
  _atom_site_type_symbol
  _atom_site_label
  _atom_site_symmetry_multiplicity
  _atom_site_fract_x
  _atom_site_fract_y
  _atom_site_fract_z
  _atom_site_occupancy
  H   H1        1.0  0.72700  0.76700  0.08180  1.0000
  H   H2        1.0  0.73900  0.41600  0.08360  1.0000
  H   H3        1.0  0.20700  0.05460  0.29700  1.0000
  H   H4        1.0  0.17500  0.82500  0.30400  1.0000
  H   H5        1.0  0.74100  0.81700  0.31400  1.0000
  H   H6        1.0  0.74200  0.33200  0.32600  1.0000
  H   H7        1.0  0.25800  0.66800  0.67400  1.0000
  H   H8        1.0  0.25900  0.18300  0.68600  1.0000
  H   H9        1.0  0.82500  0.17500  0.69600  1.0000
  H   H10       1.0  0.79300  0.94500  0.70300  1.0000
  H   H11       1.0  0.26100  0.58400  0.91600  1.0000
  H   H12       1.0  0.27300  0.23300  0.91800  1.0000
  N   N1        1.0  0.70400  0.30400  0.19200  1.0000
  N   N2        1.0  0.29600  0.69600  0.80800  1.0000
  Ni  Ni1       1.0  0.00000  0.00000  0.00000  1.0000
  O   O1        1.0  0.34200  0.36100  0.08470  1.0000
  O   O2        1.0  0.83200  0.79300  0.15100  1.0000
  O   O3        1.0  0.13000  0.97000  0.24700  1.0000
  O   O4        1.0  0.35100  0.18300  0.41000  1.0000
  O   O5        1.0  0.24900  0.58300  0.42000  1.0000
  O   O6        1.0  0.75100  0.41700  0.58000  1.0000
  O   O7        1.0  0.64900  0.81700  0.59000  1.0000
  O   O8        1.0  0.87000  0.03050  0.75300  1.0000
  O   O9        1.0  0.16800  0.20700  0.84900  1.0000
  O   O10       1.0  0.65800  0.63900  0.91500  1.0000
  S   S1        1.0  0.38900  0.36300  0.28400  1.0000
  S   S2        1.0  0.61100  0.63700  0.71600  1.0000
