data_image0
_chemical_formula_structural       As4Br4Cd4Hg4
_chemical_formula_sum              "As4 Br4 Cd4 Hg4"
_cell_length_a       10.8078
_cell_length_b       4.83347
_cell_length_c       10.0047
_cell_angle_alpha    90
_cell_angle_beta     90
_cell_angle_gamma    90

_space_group_name_H-M_alt    "P 1"
_space_group_IT_number       1

loop_
  _space_group_symop_operation_xyz
  'x, y, z'

loop_
  _atom_site_type_symbol
  _atom_site_label
  _atom_site_symmetry_multiplicity
  _atom_site_fract_x
  _atom_site_fract_y
  _atom_site_fract_z
  _atom_site_occupancy
  As  As1       1.0  0.51600  0.50000  0.25500  1.0000
  As  As2       1.0  0.98400  0.50000  0.25500  1.0000
  As  As3       1.0  0.01600  0.50000  0.74500  1.0000
  As  As4       1.0  0.48400  0.50000  0.74500  1.0000
  Br  Br1       1.0  0.25000  0.00000  0.07380  1.0000
  Br  Br2       1.0  0.25000  0.00000  0.48700  1.0000
  Br  Br3       1.0  0.75000  0.00000  0.51300  1.0000
  Br  Br4       1.0  0.75000  0.00000  0.92600  1.0000
  Cd  Cd1       1.0  0.07720  0.00000  0.28600  1.0000
  Cd  Cd2       1.0  0.42300  0.00000  0.28600  1.0000
  Cd  Cd3       1.0  0.57700  0.00000  0.71400  1.0000
  Cd  Cd4       1.0  0.92300  0.00000  0.71400  1.0000
  Hg  Hg1       1.0  0.00000  0.50000  0.00000  1.0000
  Hg  Hg2       1.0  0.50000  0.50000  0.00000  1.0000
  Hg  Hg3       1.0  0.75000  0.50000  0.26800  1.0000
  Hg  Hg4       1.0  0.25000  0.50000  0.73200  1.0000
