data_image0
_chemical_formula_structural       Al4H20Sr4
_chemical_formula_sum              "Al4 H20 Sr4"
_cell_length_a       12.4867
_cell_length_b       5.11957
_cell_length_c       4.38253
_cell_angle_alpha    90
_cell_angle_beta     90
_cell_angle_gamma    90

_space_group_name_H-M_alt    "P 1"
_space_group_IT_number       1

loop_
  _space_group_symop_operation_xyz
  'x, y, z'

loop_
  _atom_site_type_symbol
  _atom_site_label
  _atom_site_symmetry_multiplicity
  _atom_site_fract_x
  _atom_site_fract_y
  _atom_site_fract_z
  _atom_site_occupancy
  Al  Al1       1.0  0.16600  0.11900  0.07030  1.0000
  Al  Al2       1.0  0.83400  0.61900  0.43000  1.0000
  Al  Al3       1.0  0.33400  0.88100  0.57000  1.0000
  Al  Al4       1.0  0.66600  0.38100  0.93000  1.0000
  H   H1        1.0  0.59000  0.63800  0.05850  1.0000
  H   H2        1.0  0.57800  0.15500  0.07560  1.0000
  H   H3        1.0  0.92000  0.61300  0.11700  1.0000
  H   H4        1.0  0.23900  0.35800  0.23100  1.0000
  H   H5        1.0  0.75300  0.37700  0.24200  1.0000
  H   H6        1.0  0.24700  0.87700  0.25800  1.0000
  H   H7        1.0  0.76100  0.85800  0.26900  1.0000
  H   H8        1.0  0.07960  0.11300  0.38300  1.0000
  H   H9        1.0  0.42200  0.65500  0.42400  1.0000
  H   H10       1.0  0.41000  0.13800  0.44100  1.0000
  H   H11       1.0  0.91000  0.36200  0.55900  1.0000
  H   H12       1.0  0.92200  0.84500  0.57600  1.0000
  H   H13       1.0  0.58000  0.38700  0.61700  1.0000
  H   H14       1.0  0.26100  0.64200  0.73100  1.0000
  H   H15       1.0  0.74700  0.62300  0.74200  1.0000
  H   H16       1.0  0.25300  0.12300  0.75800  1.0000
  H   H17       1.0  0.73900  0.14200  0.76900  1.0000
  H   H18       1.0  0.42000  0.88700  0.88300  1.0000
  H   H19       1.0  0.07820  0.34500  0.92400  1.0000
  H   H20       1.0  0.09010  0.86200  0.94100  1.0000
  Sr  Sr1       1.0  0.90900  0.10500  0.03950  1.0000
  Sr  Sr2       1.0  0.09140  0.60500  0.46000  1.0000
  Sr  Sr3       1.0  0.59100  0.89500  0.54000  1.0000
  Sr  Sr4       1.0  0.40900  0.39500  0.96000  1.0000
