data_image0
_chemical_formula_structural       H2K6O16S4
_chemical_formula_sum              "H2 K6 O16 S4"
_cell_length_a       5.61384
_cell_length_b       7.76652
_cell_length_c       9.64628
_cell_angle_alpha    102.13
_cell_angle_beta     90
_cell_angle_gamma    111.187

_space_group_name_H-M_alt    "P 1"
_space_group_IT_number       1

loop_
  _space_group_symop_operation_xyz
  'x, y, z'

loop_
  _atom_site_type_symbol
  _atom_site_label
  _atom_site_symmetry_multiplicity
  _atom_site_fract_x
  _atom_site_fract_y
  _atom_site_fract_z
  _atom_site_occupancy
  H   H1        1.0  0.50000  0.00000  0.00000  1.0000
  H   H2        1.0  0.50000  0.00000  0.50000  1.0000
  K   K1        1.0  0.42600  0.38700  0.15200  1.0000
  K   K2        1.0  0.75300  0.00000  0.25000  1.0000
  K   K3        1.0  0.03880  0.61300  0.34800  1.0000
  K   K4        1.0  0.96100  0.38700  0.65200  1.0000
  K   K5        1.0  0.24700  0.00000  0.75000  1.0000
  K   K6        1.0  0.57400  0.61300  0.84800  1.0000
  O   O1        1.0  0.30600  0.98500  0.06150  1.0000
  O   O2        1.0  0.32700  0.69100  0.09940  1.0000
  O   O3        1.0  0.91900  0.73900  0.11000  1.0000
  O   O4        1.0  0.89400  0.30700  0.11800  1.0000
  O   O5        1.0  0.58700  0.69300  0.38200  1.0000
  O   O6        1.0  0.18000  0.26100  0.39000  1.0000
  O   O7        1.0  0.63600  0.30900  0.40100  1.0000
  O   O8        1.0  0.32200  0.01540  0.43900  1.0000
  O   O9        1.0  0.67800  0.98500  0.56100  1.0000
  O   O10       1.0  0.36400  0.69100  0.59900  1.0000
  O   O11       1.0  0.82000  0.73900  0.61000  1.0000
  O   O12       1.0  0.41300  0.30700  0.61800  1.0000
  O   O13       1.0  0.10600  0.69300  0.88200  1.0000
  O   O14       1.0  0.08070  0.26100  0.89000  1.0000
  O   O15       1.0  0.67300  0.30900  0.90100  1.0000
  O   O16       1.0  0.69400  0.01540  0.93900  1.0000
  S   S1        1.0  0.15700  0.76700  0.03810  1.0000
  S   S2        1.0  0.38900  0.23300  0.46200  1.0000
  S   S3        1.0  0.61100  0.76700  0.53800  1.0000
  S   S4        1.0  0.84300  0.23300  0.96200  1.0000
