data_image0
_chemical_formula_structural       C4Fe2H8O12
_chemical_formula_sum              "C4 Fe2 H8 O12"
_cell_length_a       5.57677
_cell_length_b       6.22844
_cell_length_c       8.10457
_cell_angle_alpha    97.294
_cell_angle_beta     110.124
_cell_angle_gamma    63.4047

_space_group_name_H-M_alt    "P 1"
_space_group_IT_number       1

loop_
  _space_group_symop_operation_xyz
  'x, y, z'

loop_
  _atom_site_type_symbol
  _atom_site_label
  _atom_site_symmetry_multiplicity
  _atom_site_fract_x
  _atom_site_fract_y
  _atom_site_fract_z
  _atom_site_occupancy
  C   C1        1.0  0.63000  0.24800  0.14800  1.0000
  C   C2        1.0  0.73000  0.25200  0.35200  1.0000
  C   C3        1.0  0.27000  0.74800  0.64800  1.0000
  C   C4        1.0  0.37000  0.75200  0.85200  1.0000
  Fe  Fe1       1.0  0.18100  0.25000  0.25000  1.0000
  Fe  Fe2       1.0  0.81900  0.75000  0.75000  1.0000
  H   H1        1.0  0.81700  0.69600  0.14200  1.0000
  H   H2        1.0  0.30300  0.80700  0.14700  1.0000
  H   H3        1.0  0.96300  0.69300  0.35300  1.0000
  H   H4        1.0  0.37200  0.80400  0.35800  1.0000
  H   H5        1.0  0.62800  0.19600  0.64200  1.0000
  H   H6        1.0  0.03720  0.30700  0.64700  1.0000
  H   H7        1.0  0.69700  0.19300  0.85300  1.0000
  H   H8        1.0  0.18300  0.30400  0.85800  1.0000
  O   O1        1.0  0.79400  0.25000  0.07290  1.0000
  O   O2        1.0  0.39200  0.24400  0.07390  1.0000
  O   O3        1.0  0.99700  0.62800  0.24100  1.0000
  O   O4        1.0  0.38500  0.87200  0.25900  1.0000
  O   O5        1.0  0.56300  0.25600  0.42600  1.0000
  O   O6        1.0  0.97100  0.25000  0.42700  1.0000
  O   O7        1.0  0.02900  0.75000  0.57300  1.0000
  O   O8        1.0  0.43700  0.74400  0.57400  1.0000
  O   O9        1.0  0.61500  0.12800  0.74100  1.0000
  O   O10       1.0  0.00297  0.37200  0.75900  1.0000
  O   O11       1.0  0.60800  0.75600  0.92600  1.0000
  O   O12       1.0  0.20600  0.75000  0.92700  1.0000
