data_image0
_chemical_formula_structural       Cl2H12N6O6Pt
_chemical_formula_sum              "Cl2 H12 N6 O6 Pt1"
_cell_length_a       6.54541
_cell_length_b       6.94074
_cell_length_c       6.24393
_cell_angle_alpha    114.411
_cell_angle_beta     96.3169
_cell_angle_gamma    100.337

_space_group_name_H-M_alt    "P 1"
_space_group_IT_number       1

loop_
  _space_group_symop_operation_xyz
  'x, y, z'

loop_
  _atom_site_type_symbol
  _atom_site_label
  _atom_site_symmetry_multiplicity
  _atom_site_fract_x
  _atom_site_fract_y
  _atom_site_fract_z
  _atom_site_occupancy
  Cl  Cl1       1.0  0.26400  0.93300  0.22100  1.0000
  Cl  Cl2       1.0  0.73600  0.06700  0.77900  1.0000
  H   H1        1.0  0.15200  0.37200  0.00743  1.0000
  H   H2        1.0  0.30900  0.35600  0.22900  1.0000
  H   H3        1.0  0.73400  0.92000  0.26000  1.0000
  H   H4        1.0  0.07130  0.42200  0.26100  1.0000
  H   H5        1.0  0.73200  0.16300  0.26200  1.0000
  H   H6        1.0  0.93000  0.14200  0.43500  1.0000
  H   H7        1.0  0.06970  0.85800  0.56500  1.0000
  H   H8        1.0  0.26800  0.83700  0.73800  1.0000
  H   H9        1.0  0.92900  0.57800  0.73900  1.0000
  H   H10       1.0  0.26600  0.07980  0.74000  1.0000
  H   H11       1.0  0.69100  0.64400  0.77100  1.0000
  H   H12       1.0  0.84800  0.62800  0.99300  1.0000
  N   N1        1.0  0.15300  0.32600  0.14500  1.0000
  N   N2        1.0  0.82800  0.06190  0.27000  1.0000
  N   N3        1.0  0.67800  0.55000  0.28300  1.0000
  N   N4        1.0  0.32200  0.45000  0.71700  1.0000
  N   N5        1.0  0.17200  0.93800  0.73000  1.0000
  N   N6        1.0  0.84700  0.67400  0.85500  1.0000
  O   O1        1.0  0.56500  0.66300  0.24000  1.0000
  O   O2        1.0  0.87900  0.60400  0.30100  1.0000
  O   O3        1.0  0.59500  0.38300  0.30800  1.0000
  O   O4        1.0  0.40500  0.61700  0.69200  1.0000
  O   O5        1.0  0.12100  0.39600  0.69900  1.0000
  O   O6        1.0  0.43500  0.33700  0.76000  1.0000
  Pt  Pt1       1.0  0.00000  0.00000  0.00000  1.0000
