data_image0
_chemical_formula_structural       H2Na2O16P4Zn4
_chemical_formula_sum              "H2 Na2 O16 P4 Zn4"
_cell_length_a       8.50336
_cell_length_b       8.71937
_cell_length_c       5.07567
_cell_angle_alpha    100.568
_cell_angle_beta     105.749
_cell_angle_gamma    96.8759

_space_group_name_H-M_alt    "P 1"
_space_group_IT_number       1

loop_
  _space_group_symop_operation_xyz
  'x, y, z'

loop_
  _atom_site_type_symbol
  _atom_site_label
  _atom_site_symmetry_multiplicity
  _atom_site_fract_x
  _atom_site_fract_y
  _atom_site_fract_z
  _atom_site_occupancy
  H   H1        1.0  0.56000  0.37200  0.08220  1.0000
  H   H2        1.0  0.44000  0.62800  0.91800  1.0000
  Na  Na1       1.0  0.19100  0.69600  0.42100  1.0000
  Na  Na2       1.0  0.80900  0.30400  0.57900  1.0000
  O   O1        1.0  0.08070  0.84200  0.07180  1.0000
  O   O2        1.0  0.19900  0.45900  0.12300  1.0000
  O   O3        1.0  0.61800  0.67900  0.12400  1.0000
  O   O4        1.0  0.73500  0.05730  0.20100  1.0000
  O   O5        1.0  0.68000  0.41300  0.20700  1.0000
  O   O6        1.0  0.26800  0.11400  0.27100  1.0000
  O   O7        1.0  0.38200  0.86700  0.27500  1.0000
  O   O8        1.0  0.90800  0.65000  0.40300  1.0000
  O   O9        1.0  0.09200  0.35000  0.59700  1.0000
  O   O10       1.0  0.61800  0.13300  0.72500  1.0000
  O   O11       1.0  0.73200  0.88600  0.72900  1.0000
  O   O12       1.0  0.32000  0.58700  0.79300  1.0000
  O   O13       1.0  0.26500  0.94300  0.79900  1.0000
  O   O14       1.0  0.38200  0.32100  0.87600  1.0000
  O   O15       1.0  0.80100  0.54100  0.87700  1.0000
  O   O16       1.0  0.91900  0.15800  0.92800  1.0000
  P   P1        1.0  0.24700  0.94000  0.09120  1.0000
  P   P2        1.0  0.75400  0.57500  0.15100  1.0000
  P   P3        1.0  0.24600  0.42500  0.84900  1.0000
  P   P4        1.0  0.75300  0.06020  0.90900  1.0000
  Zn  Zn1       1.0  0.11300  0.26600  0.22800  1.0000
  Zn  Zn2       1.0  0.61900  0.89400  0.32700  1.0000
  Zn  Zn3       1.0  0.38100  0.10600  0.67300  1.0000
  Zn  Zn4       1.0  0.88700  0.73400  0.77200  1.0000
