data_image0
_chemical_formula_structural       C4Ge4H12N4O4
_chemical_formula_sum              "C4 Ge4 H12 N4 O4"
_cell_length_a       7.63401
_cell_length_b       6.43532
_cell_length_c       6.93409
_cell_angle_alpha    90
_cell_angle_beta     90
_cell_angle_gamma    90

_space_group_name_H-M_alt    "P 1"
_space_group_IT_number       1

loop_
  _space_group_symop_operation_xyz
  'x, y, z'

loop_
  _atom_site_type_symbol
  _atom_site_label
  _atom_site_symmetry_multiplicity
  _atom_site_fract_x
  _atom_site_fract_y
  _atom_site_fract_z
  _atom_site_occupancy
  C   C1        1.0  0.00016  0.75000  0.11300  1.0000
  C   C2        1.0  0.50000  0.75000  0.38700  1.0000
  C   C3        1.0  0.50000  0.25000  0.61300  1.0000
  C   C4        1.0  0.00000  0.25000  0.88700  1.0000
  Ge  Ge1       1.0  0.26700  0.25000  0.19800  1.0000
  Ge  Ge2       1.0  0.76700  0.25000  0.30200  1.0000
  Ge  Ge3       1.0  0.23300  0.75000  0.69800  1.0000
  Ge  Ge4       1.0  0.73300  0.75000  0.80200  1.0000
  H   H1        1.0  0.68800  0.25000  0.10000  1.0000
  H   H2        1.0  0.36100  0.05130  0.13900  1.0000
  H   H3        1.0  0.36100  0.44900  0.13900  1.0000
  H   H4        1.0  0.86100  0.05130  0.36100  1.0000
  H   H5        1.0  0.86100  0.44900  0.36100  1.0000
  H   H6        1.0  0.18800  0.25000  0.40000  1.0000
  H   H7        1.0  0.81200  0.75000  0.60000  1.0000
  H   H8        1.0  0.13900  0.55100  0.63900  1.0000
  H   H9        1.0  0.13900  0.94900  0.63900  1.0000
  H   H10       1.0  0.63900  0.55100  0.86100  1.0000
  H   H11       1.0  0.63900  0.94900  0.86100  1.0000
  H   H12       1.0  0.31200  0.75000  0.90000  1.0000
  N   N1        1.0  0.05980  0.25000  0.04810  1.0000
  N   N2        1.0  0.56000  0.25000  0.45200  1.0000
  N   N3        1.0  0.44000  0.75000  0.54800  1.0000
  N   N4        1.0  0.94000  0.75000  0.95200  1.0000
  O   O1        1.0  0.57300  0.75000  0.23500  1.0000
  O   O2        1.0  0.07350  0.75000  0.26500  1.0000
  O   O3        1.0  0.92700  0.25000  0.73500  1.0000
  O   O4        1.0  0.42700  0.25000  0.76500  1.0000
