data_image0
_chemical_formula_structural       Eu8H16Pd4
_chemical_formula_sum              "Eu8 H16 Pd4"
_cell_length_a       7.32063
_cell_length_b       5.26182
_cell_length_c       9.30208
_cell_angle_alpha    90
_cell_angle_beta     90
_cell_angle_gamma    90

_space_group_name_H-M_alt    "P 1"
_space_group_IT_number       1

loop_
  _space_group_symop_operation_xyz
  'x, y, z'

loop_
  _atom_site_type_symbol
  _atom_site_label
  _atom_site_symmetry_multiplicity
  _atom_site_fract_x
  _atom_site_fract_y
  _atom_site_fract_z
  _atom_site_occupancy
  Eu  Eu1       1.0  0.64900  0.25000  0.09410  1.0000
  Eu  Eu2       1.0  0.01370  0.75000  0.16600  1.0000
  Eu  Eu3       1.0  0.51400  0.75000  0.33400  1.0000
  Eu  Eu4       1.0  0.14900  0.25000  0.40600  1.0000
  Eu  Eu5       1.0  0.85100  0.75000  0.59400  1.0000
  Eu  Eu6       1.0  0.48600  0.25000  0.66600  1.0000
  Eu  Eu7       1.0  0.98600  0.25000  0.83400  1.0000
  Eu  Eu8       1.0  0.35100  0.75000  0.90600  1.0000
  H   H1        1.0  0.67200  0.75000  0.09760  1.0000
  H   H2        1.0  0.00069  0.25000  0.11000  1.0000
  H   H3        1.0  0.32800  0.53100  0.15800  1.0000
  H   H4        1.0  0.32800  0.96900  0.15800  1.0000
  H   H5        1.0  0.82800  0.53100  0.34200  1.0000
  H   H6        1.0  0.82800  0.96900  0.34200  1.0000
  H   H7        1.0  0.50100  0.25000  0.39000  1.0000
  H   H8        1.0  0.17200  0.75000  0.40200  1.0000
  H   H9        1.0  0.82800  0.25000  0.59800  1.0000
  H   H10       1.0  0.49900  0.75000  0.61000  1.0000
  H   H11       1.0  0.17200  0.03110  0.65800  1.0000
  H   H12       1.0  0.17200  0.46900  0.65800  1.0000
  H   H13       1.0  0.67200  0.03110  0.84200  1.0000
  H   H14       1.0  0.67200  0.46900  0.84200  1.0000
  H   H15       1.0  0.99900  0.75000  0.89000  1.0000
  H   H16       1.0  0.32800  0.25000  0.90200  1.0000
  Pd  Pd1       1.0  0.24100  0.25000  0.08210  1.0000
  Pd  Pd2       1.0  0.74100  0.25000  0.41800  1.0000
  Pd  Pd3       1.0  0.25900  0.75000  0.58200  1.0000
  Pd  Pd4       1.0  0.75900  0.75000  0.91800  1.0000
