data_image0
_chemical_formula_structural       H8Li4N4O12
_chemical_formula_sum              "H8 Li4 N4 O12"
_cell_length_a       3.16493
_cell_length_b       14.0371
_cell_length_c       6.18706
_cell_angle_alpha    90
_cell_angle_beta     106.064
_cell_angle_gamma    90

_space_group_name_H-M_alt    "P 1"
_space_group_IT_number       1

loop_
  _space_group_symop_operation_xyz
  'x, y, z'

loop_
  _atom_site_type_symbol
  _atom_site_label
  _atom_site_symmetry_multiplicity
  _atom_site_fract_x
  _atom_site_fract_y
  _atom_site_fract_z
  _atom_site_occupancy
  H   H1        1.0  0.95400  0.11500  0.06060  1.0000
  H   H2        1.0  0.90500  0.53800  0.23600  1.0000
  H   H3        1.0  0.09490  0.03840  0.26400  1.0000
  H   H4        1.0  0.04560  0.61500  0.43900  1.0000
  H   H5        1.0  0.95400  0.38500  0.56100  1.0000
  H   H6        1.0  0.90500  0.96200  0.73600  1.0000
  H   H7        1.0  0.09490  0.46200  0.76400  1.0000
  H   H8        1.0  0.04560  0.88500  0.93900  1.0000
  Li  Li1       1.0  0.36400  0.66700  0.14200  1.0000
  Li  Li2       1.0  0.63600  0.16700  0.35800  1.0000
  Li  Li3       1.0  0.36400  0.83300  0.64200  1.0000
  Li  Li4       1.0  0.63600  0.33300  0.85800  1.0000
  N   N1        1.0  0.22700  0.86500  0.22400  1.0000
  N   N2        1.0  0.77300  0.36500  0.27600  1.0000
  N   N3        1.0  0.22700  0.63500  0.72400  1.0000
  N   N4        1.0  0.77300  0.13500  0.77600  1.0000
  O   O1        1.0  0.82100  0.42800  0.14000  1.0000
  O   O2        1.0  0.64000  0.28500  0.18300  1.0000
  O   O3        1.0  0.06930  0.10800  0.22800  1.0000
  O   O4        1.0  0.93100  0.60800  0.27200  1.0000
  O   O5        1.0  0.36000  0.78500  0.31700  1.0000
  O   O6        1.0  0.17900  0.92800  0.36000  1.0000
  O   O7        1.0  0.82100  0.07170  0.64000  1.0000
  O   O8        1.0  0.64000  0.21500  0.68300  1.0000
  O   O9        1.0  0.06930  0.39200  0.72800  1.0000
  O   O10       1.0  0.93100  0.89200  0.77200  1.0000
  O   O11       1.0  0.36000  0.71500  0.81700  1.0000
  O   O12       1.0  0.17900  0.57200  0.86000  1.0000
