data_image0
_chemical_formula_structural       C4Cs4H4N8O8
_chemical_formula_sum              "C4 Cs4 H4 N8 O8"
_cell_length_a       4.59138
_cell_length_b       12.3648
_cell_length_c       7.86659
_cell_angle_alpha    90
_cell_angle_beta     99.8718
_cell_angle_gamma    90

_space_group_name_H-M_alt    "P 1"
_space_group_IT_number       1

loop_
  _space_group_symop_operation_xyz
  'x, y, z'

loop_
  _atom_site_type_symbol
  _atom_site_label
  _atom_site_symmetry_multiplicity
  _atom_site_fract_x
  _atom_site_fract_y
  _atom_site_fract_z
  _atom_site_occupancy
  C   C1        1.0  0.75600  0.39700  0.09200  1.0000
  C   C2        1.0  0.24400  0.89700  0.40800  1.0000
  C   C3        1.0  0.75600  0.10300  0.59200  1.0000
  C   C4        1.0  0.24400  0.60300  0.90800  1.0000
  Cs  Cs1       1.0  0.23100  0.16500  0.06490  1.0000
  Cs  Cs2       1.0  0.76900  0.66500  0.43500  1.0000
  Cs  Cs3       1.0  0.23100  0.33500  0.56500  1.0000
  Cs  Cs4       1.0  0.76900  0.83500  0.93500  1.0000
  H   H1        1.0  0.97200  0.43800  0.12200  1.0000
  H   H2        1.0  0.02820  0.93800  0.37800  1.0000
  H   H3        1.0  0.97200  0.06170  0.62200  1.0000
  H   H4        1.0  0.02820  0.56200  0.87800  1.0000
  N   N1        1.0  0.34800  0.64600  0.06300  1.0000
  N   N2        1.0  0.57400  0.38600  0.20800  1.0000
  N   N3        1.0  0.42600  0.88600  0.29200  1.0000
  N   N4        1.0  0.65200  0.14600  0.43700  1.0000
  N   N5        1.0  0.34800  0.85400  0.56300  1.0000
  N   N6        1.0  0.57400  0.11400  0.70800  1.0000
  N   N7        1.0  0.42600  0.61400  0.79200  1.0000
  N   N8        1.0  0.65200  0.35400  0.93700  1.0000
  O   O1        1.0  0.32800  0.92700  0.14300  1.0000
  O   O2        1.0  0.17600  0.64000  0.17500  1.0000
  O   O3        1.0  0.82400  0.14000  0.32500  1.0000
  O   O4        1.0  0.67200  0.42700  0.35700  1.0000
  O   O5        1.0  0.32800  0.57300  0.64300  1.0000
  O   O6        1.0  0.17600  0.86000  0.67500  1.0000
  O   O7        1.0  0.82400  0.36000  0.82500  1.0000
  O   O8        1.0  0.67200  0.07300  0.85700  1.0000
