data_image0
_chemical_formula_structural       Al2Cs2H16N8
_chemical_formula_sum              "Al2 Cs2 H16 N8"
_cell_length_a       7.30422
_cell_length_b       7.30422
_cell_length_c       5.25032
_cell_angle_alpha    90
_cell_angle_beta     90
_cell_angle_gamma    90

_space_group_name_H-M_alt    "P 1"
_space_group_IT_number       1

loop_
  _space_group_symop_operation_xyz
  'x, y, z'

loop_
  _atom_site_type_symbol
  _atom_site_label
  _atom_site_symmetry_multiplicity
  _atom_site_fract_x
  _atom_site_fract_y
  _atom_site_fract_z
  _atom_site_occupancy
  Al  Al1       1.0  0.75000  0.25000  0.00000  1.0000
  Al  Al2       1.0  0.25000  0.75000  0.00000  1.0000
  Cs  Cs1       1.0  0.25000  0.25000  0.26100  1.0000
  Cs  Cs2       1.0  0.75000  0.75000  0.73900  1.0000
  H   H1        1.0  0.58600  0.54000  0.19900  1.0000
  H   H2        1.0  0.96000  0.58600  0.19900  1.0000
  H   H3        1.0  0.54000  0.91400  0.19900  1.0000
  H   H4        1.0  0.91400  0.96000  0.19900  1.0000
  H   H5        1.0  0.79400  0.07650  0.41200  1.0000
  H   H6        1.0  0.70600  0.42300  0.41200  1.0000
  H   H7        1.0  0.07650  0.70600  0.41200  1.0000
  H   H8        1.0  0.42300  0.79400  0.41200  1.0000
  H   H9        1.0  0.57700  0.20600  0.58800  1.0000
  H   H10       1.0  0.92300  0.29400  0.58800  1.0000
  H   H11       1.0  0.29400  0.57700  0.58800  1.0000
  H   H12       1.0  0.20600  0.92300  0.58800  1.0000
  H   H13       1.0  0.08610  0.03980  0.80100  1.0000
  H   H14       1.0  0.46000  0.08610  0.80100  1.0000
  H   H15       1.0  0.03980  0.41400  0.80100  1.0000
  H   H16       1.0  0.41400  0.46000  0.80100  1.0000
  N   N1        1.0  0.83400  0.07400  0.22600  1.0000
  N   N2        1.0  0.66600  0.42600  0.22600  1.0000
  N   N3        1.0  0.07400  0.66600  0.22600  1.0000
  N   N4        1.0  0.42600  0.83400  0.22600  1.0000
  N   N5        1.0  0.57400  0.16600  0.77400  1.0000
  N   N6        1.0  0.92600  0.33400  0.77400  1.0000
  N   N7        1.0  0.33400  0.57400  0.77400  1.0000
  N   N8        1.0  0.16600  0.92600  0.77400  1.0000
