data_image0
_chemical_formula_structural       F2H12N2Na2O8P2
_chemical_formula_sum              "F2 H12 N2 Na2 O8 P2"
_cell_length_a       5.92857
_cell_length_b       8.73193
_cell_length_c       4.80693
_cell_angle_alpha    90.0052
_cell_angle_beta     91.1421
_cell_angle_gamma    89.9998

_space_group_name_H-M_alt    "P 1"
_space_group_IT_number       1

loop_
  _space_group_symop_operation_xyz
  'x, y, z'

loop_
  _atom_site_type_symbol
  _atom_site_label
  _atom_site_symmetry_multiplicity
  _atom_site_fract_x
  _atom_site_fract_y
  _atom_site_fract_z
  _atom_site_occupancy
  F   F1        1.0  0.49200  0.82900  0.18400  1.0000
  F   F2        1.0  0.99200  0.17100  0.68400  1.0000
  H   H1        1.0  0.60300  0.35600  0.01310  1.0000
  H   H2        1.0  0.52900  0.52100  0.17300  1.0000
  H   H3        1.0  0.03420  0.48900  0.31100  1.0000
  H   H4        1.0  0.35800  0.20000  0.40700  1.0000
  H   H5        1.0  0.61600  0.21500  0.42600  1.0000
  H   H6        1.0  0.83300  0.58000  0.49200  1.0000
  H   H7        1.0  0.10300  0.64400  0.51300  1.0000
  H   H8        1.0  0.02920  0.47900  0.67300  1.0000
  H   H9        1.0  0.53400  0.51100  0.81100  1.0000
  H   H10       1.0  0.85800  0.80000  0.90700  1.0000
  H   H11       1.0  0.11600  0.78500  0.92600  1.0000
  H   H12       1.0  0.33300  0.42000  0.99200  1.0000
  N   N1        1.0  0.00293  0.54700  0.49700  1.0000
  N   N2        1.0  0.50300  0.45300  0.99700  1.0000
  Na  Na1       1.0  0.99200  0.95500  0.39000  1.0000
  Na  Na2       1.0  0.49200  0.04470  0.88900  1.0000
  O   O1        1.0  0.98100  0.77300  0.04150  1.0000
  O   O2        1.0  0.77200  0.17800  0.11800  1.0000
  O   O3        1.0  0.19600  0.12900  0.13300  1.0000
  O   O4        1.0  0.54600  0.60700  0.49500  1.0000
  O   O5        1.0  0.48100  0.22700  0.54100  1.0000
  O   O6        1.0  0.27200  0.82200  0.61800  1.0000
  O   O7        1.0  0.69700  0.87100  0.63300  1.0000
  O   O8        1.0  0.04640  0.39300  0.99500  1.0000
  P   P1        1.0  0.00266  0.22100  0.00991  1.0000
  P   P2        1.0  0.50300  0.77900  0.51000  1.0000
