data_image0
_chemical_formula_structural       K2La2O10Ti3
_chemical_formula_sum              "K2 La2 O10 Ti3"
_cell_length_a       3.88318
_cell_length_b       3.88318
_cell_length_c       15.0203
_cell_angle_alpha    97.4271
_cell_angle_beta     97.4271
_cell_angle_gamma    90

_space_group_name_H-M_alt    "P 1"
_space_group_IT_number       1

loop_
  _space_group_symop_operation_xyz
  'x, y, z'

loop_
  _atom_site_type_symbol
  _atom_site_label
  _atom_site_symmetry_multiplicity
  _atom_site_fract_x
  _atom_site_fract_y
  _atom_site_fract_z
  _atom_site_occupancy
  K   K1        1.0  0.70800  0.70800  0.41600  1.0000
  K   K2        1.0  0.29200  0.29200  0.58400  1.0000
  La  La1       1.0  0.57200  0.57200  0.14400  1.0000
  La  La2       1.0  0.42800  0.42800  0.85600  1.0000
  O   O1        1.0  0.50000  0.00000  0.00000  1.0000
  O   O2        1.0  0.00000  0.50000  0.00000  1.0000
  O   O3        1.0  0.06530  0.06530  0.13100  1.0000
  O   O4        1.0  0.62800  0.12800  0.25500  1.0000
  O   O5        1.0  0.12800  0.62800  0.25500  1.0000
  O   O6        1.0  0.20200  0.20200  0.40300  1.0000
  O   O7        1.0  0.79800  0.79800  0.59700  1.0000
  O   O8        1.0  0.87200  0.37200  0.74500  1.0000
  O   O9        1.0  0.37200  0.87200  0.74500  1.0000
  O   O10       1.0  0.93500  0.93500  0.86900  1.0000
  Ti  Ti1       1.0  0.00000  0.00000  0.00000  1.0000
  Ti  Ti2       1.0  0.14100  0.14100  0.28300  1.0000
  Ti  Ti3       1.0  0.85900  0.85900  0.71700  1.0000
