data_image0
_chemical_formula_structural       As4Ca2H8O16
_chemical_formula_sum              "As4 Ca2 H8 O16"
_cell_length_a       8.43721
_cell_length_b       7.59934
_cell_length_c       5.67332
_cell_angle_alpha    92.4599
_cell_angle_beta     109.664
_cell_angle_gamma    109.626

_space_group_name_H-M_alt    "P 1"
_space_group_IT_number       1

loop_
  _space_group_symop_operation_xyz
  'x, y, z'

loop_
  _atom_site_type_symbol
  _atom_site_label
  _atom_site_symmetry_multiplicity
  _atom_site_fract_x
  _atom_site_fract_y
  _atom_site_fract_z
  _atom_site_occupancy
  As  As1       1.0  0.65300  0.76000  0.00860  1.0000
  As  As2       1.0  0.18800  0.76800  0.33100  1.0000
  As  As3       1.0  0.81200  0.23200  0.66900  1.0000
  As  As4       1.0  0.34700  0.24000  0.99100  1.0000
  Ca  Ca1       1.0  0.08550  0.19200  0.31600  1.0000
  Ca  Ca2       1.0  0.91400  0.80800  0.68400  1.0000
  H   H1        1.0  0.00000  0.50000  0.00000  1.0000
  H   H2        1.0  0.42300  0.82300  0.07660  1.0000
  H   H3        1.0  0.49400  0.52200  0.27900  1.0000
  H   H4        1.0  0.73700  0.39400  0.34900  1.0000
  H   H5        1.0  0.50000  0.00000  0.50000  1.0000
  H   H6        1.0  0.26300  0.60600  0.65100  1.0000
  H   H7        1.0  0.50600  0.47800  0.72100  1.0000
  H   H8        1.0  0.57700  0.17700  0.92300  1.0000
  O   O1        1.0  0.17500  0.05560  0.00931  1.0000
  O   O2        1.0  0.04340  0.66800  0.02420  1.0000
  O   O3        1.0  0.55800  0.21100  0.08560  1.0000
  O   O4        1.0  0.37900  0.40600  0.24500  1.0000
  O   O5        1.0  0.68200  0.67100  0.28100  1.0000
  O   O6        1.0  0.40600  0.86100  0.34000  1.0000
  O   O7        1.0  0.17100  0.56300  0.47400  1.0000
  O   O8        1.0  0.12700  0.91400  0.48200  1.0000
  O   O9        1.0  0.87300  0.08590  0.51800  1.0000
  O   O10       1.0  0.82900  0.43700  0.52600  1.0000
  O   O11       1.0  0.59400  0.13900  0.66000  1.0000
  O   O12       1.0  0.31800  0.32900  0.71900  1.0000
  O   O13       1.0  0.62100  0.59400  0.75500  1.0000
  O   O14       1.0  0.44200  0.78900  0.91400  1.0000
  O   O15       1.0  0.95700  0.33200  0.97600  1.0000
  O   O16       1.0  0.82500  0.94400  0.99100  1.0000
