data_image0
_chemical_formula_structural       C2Cs4H12O12
_chemical_formula_sum              "C2 Cs4 H12 O12"
_cell_length_a       6.39534
_cell_length_b       6.74309
_cell_length_c       8.68976
_cell_angle_alpha    90
_cell_angle_beta     90.1705
_cell_angle_gamma    90

_space_group_name_H-M_alt    "P 1"
_space_group_IT_number       1

loop_
  _space_group_symop_operation_xyz
  'x, y, z'

loop_
  _atom_site_type_symbol
  _atom_site_label
  _atom_site_symmetry_multiplicity
  _atom_site_fract_x
  _atom_site_fract_y
  _atom_site_fract_z
  _atom_site_occupancy
  C   C1        1.0  0.50000  0.67400  0.25000  1.0000
  C   C2        1.0  0.50000  0.32600  0.75000  1.0000
  Cs  Cs1       1.0  0.24300  0.15500  0.07250  1.0000
  Cs  Cs2       1.0  0.75700  0.15500  0.42700  1.0000
  Cs  Cs3       1.0  0.24300  0.84500  0.57200  1.0000
  Cs  Cs4       1.0  0.75700  0.84500  0.92700  1.0000
  H   H1        1.0  0.26000  0.66000  0.03040  1.0000
  H   H2        1.0  0.72400  0.39700  0.14600  1.0000
  H   H3        1.0  0.12300  0.73800  0.23900  1.0000
  H   H4        1.0  0.87700  0.73800  0.26100  1.0000
  H   H5        1.0  0.27600  0.39700  0.35400  1.0000
  H   H6        1.0  0.74000  0.66000  0.47000  1.0000
  H   H7        1.0  0.26000  0.34000  0.53000  1.0000
  H   H8        1.0  0.72400  0.60300  0.64600  1.0000
  H   H9        1.0  0.12300  0.26200  0.73900  1.0000
  H   H10       1.0  0.87700  0.26200  0.76100  1.0000
  H   H11       1.0  0.27600  0.60300  0.85400  1.0000
  H   H12       1.0  0.74000  0.34000  0.97000  1.0000
  O   O1        1.0  0.76000  0.28600  0.07470  1.0000
  O   O2        1.0  0.32700  0.57400  0.22100  1.0000
  O   O3        1.0  0.50000  0.86200  0.25000  1.0000
  O   O4        1.0  0.00000  0.82900  0.25000  1.0000
  O   O5        1.0  0.67300  0.57400  0.27900  1.0000
  O   O6        1.0  0.24000  0.28600  0.42500  1.0000
  O   O7        1.0  0.76000  0.71400  0.57500  1.0000
  O   O8        1.0  0.32700  0.42600  0.72100  1.0000
  O   O9        1.0  0.50000  0.13800  0.75000  1.0000
  O   O10       1.0  0.00000  0.17100  0.75000  1.0000
  O   O11       1.0  0.67300  0.42600  0.77900  1.0000
  O   O12       1.0  0.24000  0.71400  0.92500  1.0000
