data_image0
_chemical_formula_structural       Cs2F8H8Mn2O4
_chemical_formula_sum              "Cs2 F8 H8 Mn2 O4"
_cell_length_a       6.25748
_cell_length_b       6.59509
_cell_length_c       8.283
_cell_angle_alpha    94.0935
_cell_angle_beta     112.193
_cell_angle_gamma    61.6794

_space_group_name_H-M_alt    "P 1"
_space_group_IT_number       1

loop_
  _space_group_symop_operation_xyz
  'x, y, z'

loop_
  _atom_site_type_symbol
  _atom_site_label
  _atom_site_symmetry_multiplicity
  _atom_site_fract_x
  _atom_site_fract_y
  _atom_site_fract_z
  _atom_site_occupancy
  Cs  Cs1       1.0  0.02120  0.00000  0.00000  1.0000
  Cs  Cs2       1.0  0.97500  0.50000  0.50000  1.0000
  F   F1        1.0  0.13900  0.34900  0.18800  1.0000
  F   F2        1.0  0.56200  0.94000  0.24300  1.0000
  F   F3        1.0  0.43300  0.56000  0.25600  1.0000
  F   F4        1.0  0.85600  0.15300  0.31300  1.0000
  F   F5        1.0  0.69600  0.84700  0.68700  1.0000
  F   F6        1.0  0.73700  0.44000  0.74400  1.0000
  F   F7        1.0  0.25900  0.05970  0.75700  1.0000
  F   F8        1.0  0.29900  0.65100  0.81200  1.0000
  H   H1        1.0  0.90300  0.57200  0.07780  1.0000
  H   H2        1.0  0.67200  0.80500  0.10400  1.0000
  H   H3        1.0  0.32300  0.69600  0.39400  1.0000
  H   H4        1.0  0.09160  0.92900  0.42200  1.0000
  H   H5        1.0  0.59900  0.07130  0.57800  1.0000
  H   H6        1.0  0.62500  0.30400  0.60600  1.0000
  H   H7        1.0  0.37300  0.19500  0.89600  1.0000
  H   H8        1.0  0.39700  0.42800  0.92200  1.0000
  Mn  Mn1       1.0  0.49800  0.25000  0.25100  1.0000
  Mn  Mn2       1.0  0.49700  0.75000  0.74900  1.0000
  O   O1        1.0  0.74600  0.72600  0.01670  1.0000
  O   O2        1.0  0.24900  0.77500  0.48200  1.0000
  O   O3        1.0  0.54200  0.22500  0.51800  1.0000
  O   O4        1.0  0.45500  0.27400  0.98300  1.0000
