data_image0
_chemical_formula_structural       Pt12Si5
_chemical_formula_sum              "Pt12 Si5"
_cell_length_a       5.58003
_cell_length_b       7.33849
_cell_length_c       7.33849
_cell_angle_alpha    98.3109
_cell_angle_beta     67.6546
_cell_angle_gamma    112.345

_space_group_name_H-M_alt    "P 1"
_space_group_IT_number       1

loop_
  _space_group_symop_operation_xyz
  'x, y, z'

loop_
  _atom_site_type_symbol
  _atom_site_label
  _atom_site_symmetry_multiplicity
  _atom_site_fract_x
  _atom_site_fract_y
  _atom_site_fract_z
  _atom_site_occupancy
  Pt  Pt1       1.0  0.07560  0.70400  0.05250  1.0000
  Pt  Pt2       1.0  0.57600  0.70400  0.05250  1.0000
  Pt  Pt3       1.0  0.12800  0.05250  0.29600  1.0000
  Pt  Pt4       1.0  0.62800  0.05250  0.29600  1.0000
  Pt  Pt5       1.0  0.05640  0.42400  0.31100  1.0000
  Pt  Pt6       1.0  0.63300  0.68900  0.42400  1.0000
  Pt  Pt7       1.0  0.36700  0.31100  0.57600  1.0000
  Pt  Pt8       1.0  0.94400  0.57600  0.68900  1.0000
  Pt  Pt9       1.0  0.37200  0.94700  0.70400  1.0000
  Pt  Pt10      1.0  0.87200  0.94700  0.70400  1.0000
  Pt  Pt11      1.0  0.42400  0.29600  0.94700  1.0000
  Pt  Pt12      1.0  0.92400  0.29600  0.94700  1.0000
  Si  Si1       1.0  0.00000  0.00000  0.00000  1.0000
  Si  Si2       1.0  0.57900  0.38300  0.22600  1.0000
  Si  Si3       1.0  0.19500  0.77400  0.38300  1.0000
  Si  Si4       1.0  0.80500  0.22600  0.61700  1.0000
  Si  Si5       1.0  0.42100  0.61700  0.77400  1.0000
