data_image0
_chemical_formula_structural       B6Rh8Sr3
_chemical_formula_sum              "B6 Rh8 Sr3"
_cell_length_a       5.61201
_cell_length_b       5.74953
_cell_length_c       9.04128
_cell_angle_alpha    98.7119
_cell_angle_beta     108.081
_cell_angle_gamma    60.7881

_space_group_name_H-M_alt    "P 1"
_space_group_IT_number       1

loop_
  _space_group_symop_operation_xyz
  'x, y, z'

loop_
  _atom_site_type_symbol
  _atom_site_label
  _atom_site_symmetry_multiplicity
  _atom_site_fract_x
  _atom_site_fract_y
  _atom_site_fract_z
  _atom_site_occupancy
  B   B1        1.0  0.83500  0.32900  0.00000  1.0000
  B   B2        1.0  0.16500  0.67100  0.00000  1.0000
  B   B3        1.0  0.00479  0.32900  0.33800  1.0000
  B   B4        1.0  0.33400  0.67100  0.33800  1.0000
  B   B5        1.0  0.66600  0.32900  0.66200  1.0000
  B   B6        1.0  0.99500  0.67100  0.66200  1.0000
  Rh  Rh1       1.0  0.08430  0.50000  0.16900  1.0000
  Rh  Rh2       1.0  0.58400  0.50000  0.16900  1.0000
  Rh  Rh3       1.0  0.08680  0.00000  0.17400  1.0000
  Rh  Rh4       1.0  0.25000  0.50000  0.50000  1.0000
  Rh  Rh5       1.0  0.75000  0.50000  0.50000  1.0000
  Rh  Rh6       1.0  0.91300  0.00000  0.82600  1.0000
  Rh  Rh7       1.0  0.41600  0.50000  0.83100  1.0000
  Rh  Rh8       1.0  0.91600  0.50000  0.83100  1.0000
  Sr  Sr1       1.0  0.50000  0.00000  0.00000  1.0000
  Sr  Sr2       1.0  0.68300  0.00000  0.36700  1.0000
  Sr  Sr3       1.0  0.31700  0.00000  0.63300  1.0000
