data_image0
_chemical_formula_structural       Cu8K3S6
_chemical_formula_sum              "Cu8 K3 S6"
_cell_length_a       3.82728
_cell_length_b       8.84842
_cell_length_c       9.81271
_cell_angle_alpha    104.63
_cell_angle_beta     90
_cell_angle_gamma    102.49

_space_group_name_H-M_alt    "P 1"
_space_group_IT_number       1

loop_
  _space_group_symop_operation_xyz
  'x, y, z'

loop_
  _atom_site_type_symbol
  _atom_site_label
  _atom_site_symmetry_multiplicity
  _atom_site_fract_x
  _atom_site_fract_y
  _atom_site_fract_z
  _atom_site_occupancy
  Cu  Cu1       1.0  0.29900  0.59900  0.07580  1.0000
  Cu  Cu2       1.0  0.89700  0.79400  0.21200  1.0000
  Cu  Cu3       1.0  0.48300  0.96500  0.35700  1.0000
  Cu  Cu4       1.0  0.91000  0.81900  0.47500  1.0000
  Cu  Cu5       1.0  0.09040  0.18100  0.52500  1.0000
  Cu  Cu6       1.0  0.51700  0.03480  0.64300  1.0000
  Cu  Cu7       1.0  0.10300  0.20600  0.78800  1.0000
  Cu  Cu8       1.0  0.70100  0.40100  0.92400  1.0000
  K   K1        1.0  0.50000  0.00000  0.00000  1.0000
  K   K2        1.0  0.69000  0.38100  0.29800  1.0000
  K   K3        1.0  0.31000  0.61900  0.70200  1.0000
  S   S1        1.0  0.15800  0.31700  0.02070  1.0000
  S   S2        1.0  0.03840  0.07690  0.29000  1.0000
  S   S3        1.0  0.34400  0.68900  0.35400  1.0000
  S   S4        1.0  0.65600  0.31100  0.64600  1.0000
  S   S5        1.0  0.96200  0.92300  0.71000  1.0000
  S   S6        1.0  0.84200  0.68300  0.97900  1.0000
