data_image0
_chemical_formula_structural       C4F4H12O8
_chemical_formula_sum              "C4 F4 H12 O8"
_cell_length_a       6.18011
_cell_length_b       5.0954
_cell_length_c       7.01826
_cell_angle_alpha    90
_cell_angle_beta     90
_cell_angle_gamma    90

_space_group_name_H-M_alt    "P 1"
_space_group_IT_number       1

loop_
  _space_group_symop_operation_xyz
  'x, y, z'

loop_
  _atom_site_type_symbol
  _atom_site_label
  _atom_site_symmetry_multiplicity
  _atom_site_fract_x
  _atom_site_fract_y
  _atom_site_fract_z
  _atom_site_occupancy
  C   C1        1.0  0.75000  0.25000  0.11900  1.0000
  C   C2        1.0  0.25000  0.25000  0.38100  1.0000
  C   C3        1.0  0.75000  0.75000  0.61900  1.0000
  C   C4        1.0  0.25000  0.75000  0.88100  1.0000
  F   F1        1.0  0.88600  0.75000  0.17200  1.0000
  F   F2        1.0  0.38600  0.75000  0.32800  1.0000
  F   F3        1.0  0.61400  0.25000  0.67200  1.0000
  F   F4        1.0  0.11400  0.25000  0.82800  1.0000
  H   H1        1.0  0.91100  0.25000  0.05370  1.0000
  H   H2        1.0  0.37700  0.25000  0.12600  1.0000
  H   H3        1.0  0.39700  0.75000  0.18500  1.0000
  H   H4        1.0  0.89700  0.75000  0.31500  1.0000
  H   H5        1.0  0.87700  0.25000  0.37400  1.0000
  H   H6        1.0  0.41100  0.25000  0.44600  1.0000
  H   H7        1.0  0.58900  0.75000  0.55400  1.0000
  H   H8        1.0  0.12300  0.75000  0.62600  1.0000
  H   H9        1.0  0.10300  0.25000  0.68500  1.0000
  H   H10       1.0  0.60300  0.25000  0.81500  1.0000
  H   H11       1.0  0.62300  0.75000  0.87400  1.0000
  H   H12       1.0  0.08910  0.75000  0.94600  1.0000
  O   O1        1.0  0.58300  0.25000  0.01750  1.0000
  O   O2        1.0  0.22900  0.25000  0.19800  1.0000
  O   O3        1.0  0.72900  0.25000  0.30200  1.0000
  O   O4        1.0  0.08270  0.25000  0.48200  1.0000
  O   O5        1.0  0.91700  0.75000  0.51800  1.0000
  O   O6        1.0  0.27100  0.75000  0.69800  1.0000
  O   O7        1.0  0.77100  0.75000  0.80200  1.0000
  O   O8        1.0  0.41700  0.75000  0.98200  1.0000
