data_image0
_chemical_formula_structural       O10Sr4Ti3
_chemical_formula_sum              "O10 Sr4 Ti3"
_cell_length_a       3.91067
_cell_length_b       3.91067
_cell_length_c       14.3228
_cell_angle_alpha    97.8465
_cell_angle_beta     97.8465
_cell_angle_gamma    90

_space_group_name_H-M_alt    "P 1"
_space_group_IT_number       1

loop_
  _space_group_symop_operation_xyz
  'x, y, z'

loop_
  _atom_site_type_symbol
  _atom_site_label
  _atom_site_symmetry_multiplicity
  _atom_site_fract_x
  _atom_site_fract_y
  _atom_site_fract_z
  _atom_site_occupancy
  O   O1        1.0  0.50000  0.00000  0.00000  1.0000
  O   O2        1.0  0.00000  0.50000  0.00000  1.0000
  O   O3        1.0  0.06970  0.06970  0.13900  1.0000
  O   O4        1.0  0.63900  0.13900  0.27800  1.0000
  O   O5        1.0  0.13900  0.63900  0.27800  1.0000
  O   O6        1.0  0.21000  0.21000  0.42100  1.0000
  O   O7        1.0  0.79000  0.79000  0.57900  1.0000
  O   O8        1.0  0.86100  0.36100  0.72200  1.0000
  O   O9        1.0  0.36100  0.86100  0.72200  1.0000
  O   O10       1.0  0.93000  0.93000  0.86100  1.0000
  Sr  Sr1       1.0  0.56900  0.56900  0.13700  1.0000
  Sr  Sr2       1.0  0.70300  0.70300  0.40500  1.0000
  Sr  Sr3       1.0  0.29700  0.29700  0.59500  1.0000
  Sr  Sr4       1.0  0.43100  0.43100  0.86300  1.0000
  Ti  Ti1       1.0  0.00000  0.00000  0.00000  1.0000
  Ti  Ti2       1.0  0.14100  0.14100  0.28100  1.0000
  Ti  Ti3       1.0  0.85900  0.85900  0.71900  1.0000
