data_image0
_chemical_formula_structural       Cs3Cu8Se6
_chemical_formula_sum              "Cs3 Cu8 Se6"
_cell_length_a       4.0504
_cell_length_b       9.75949
_cell_length_c       10.4633
_cell_angle_alpha    106.879
_cell_angle_beta     90
_cell_angle_gamma    101.977

_space_group_name_H-M_alt    "P 1"
_space_group_IT_number       1

loop_
  _space_group_symop_operation_xyz
  'x, y, z'

loop_
  _atom_site_type_symbol
  _atom_site_label
  _atom_site_symmetry_multiplicity
  _atom_site_fract_x
  _atom_site_fract_y
  _atom_site_fract_z
  _atom_site_occupancy
  Cs  Cs1       1.0  0.50000  0.00000  0.00000  1.0000
  Cs  Cs2       1.0  0.69000  0.38000  0.31000  1.0000
  Cs  Cs3       1.0  0.31000  0.62000  0.69000  1.0000
  Cu  Cu1       1.0  0.30100  0.60100  0.08450  1.0000
  Cu  Cu2       1.0  0.89300  0.78500  0.21700  1.0000
  Cu  Cu3       1.0  0.47900  0.95900  0.36300  1.0000
  Cu  Cu4       1.0  0.92300  0.84500  0.46500  1.0000
  Cu  Cu5       1.0  0.07730  0.15500  0.53500  1.0000
  Cu  Cu6       1.0  0.52100  0.04130  0.63700  1.0000
  Cu  Cu7       1.0  0.10700  0.21500  0.78300  1.0000
  Cu  Cu8       1.0  0.69900  0.39900  0.91500  1.0000
  Se  Se1       1.0  0.16400  0.32700  0.01940  1.0000
  Se  Se2       1.0  0.03170  0.06330  0.29700  1.0000
  Se  Se3       1.0  0.34800  0.69600  0.34700  1.0000
  Se  Se4       1.0  0.65200  0.30400  0.65300  1.0000
  Se  Se5       1.0  0.96800  0.93700  0.70300  1.0000
  Se  Se6       1.0  0.83600  0.67300  0.98100  1.0000
