data_image0
_chemical_formula_structural       Ag3C6CdN6Rb
_chemical_formula_sum              "Ag3 C6 Cd1 N6 Rb1"
_cell_length_a       6.97977
_cell_length_b       6.97989
_cell_length_c       8.38082
_cell_angle_alpha    89.9999
_cell_angle_beta     90.0002
_cell_angle_gamma    119.999

_space_group_name_H-M_alt    "P 1"
_space_group_IT_number       1

loop_
  _space_group_symop_operation_xyz
  'x, y, z'

loop_
  _atom_site_type_symbol
  _atom_site_label
  _atom_site_symmetry_multiplicity
  _atom_site_fract_x
  _atom_site_fract_y
  _atom_site_fract_z
  _atom_site_occupancy
  Ag  Ag1       1.0  0.51000  0.49000  0.50000  1.0000
  Ag  Ag2       1.0  0.51000  0.01980  0.50000  1.0000
  Ag  Ag3       1.0  0.98000  0.49000  0.50000  1.0000
  C   C1        1.0  0.35200  0.01090  0.29300  1.0000
  C   C2        1.0  0.65900  0.64800  0.29300  1.0000
  C   C3        1.0  0.98900  0.34100  0.29300  1.0000
  C   C4        1.0  0.35200  0.34100  0.70700  1.0000
  C   C5        1.0  0.98900  0.64800  0.70700  1.0000
  C   C6        1.0  0.65900  0.01090  0.70700  1.0000
  Cd  Cd1       1.0  0.00000  0.00000  1.00000  1.0000
  N   N1        1.0  0.26200  0.00000  0.17200  1.0000
  N   N2        1.0  0.73700  0.73800  0.17200  1.0000
  N   N3        1.0  0.00023  0.26300  0.17200  1.0000
  N   N4        1.0  0.26200  0.26300  0.82800  1.0000
  N   N5        1.0  0.00024  0.73800  0.82800  1.0000
  N   N6        1.0  0.73700  0.00000  0.82800  1.0000
  Rb  Rb1       1.0  0.33300  0.66700  0.00000  1.0000
