data_image0
_chemical_formula_structural       CdF6H12O6Sn2
_chemical_formula_sum              "Cd1 F6 H12 O6 Sn2"
_cell_length_a       6.42838
_cell_length_b       6.74737
_cell_length_c       6.72563
_cell_angle_alpha    77.6242
_cell_angle_beta     69.9483
_cell_angle_gamma    78.7709

_space_group_name_H-M_alt    "P 1"
_space_group_IT_number       1

loop_
  _space_group_symop_operation_xyz
  'x, y, z'

loop_
  _atom_site_type_symbol
  _atom_site_label
  _atom_site_symmetry_multiplicity
  _atom_site_fract_x
  _atom_site_fract_y
  _atom_site_fract_z
  _atom_site_occupancy
  Cd  Cd1       1.0  0.00000  0.00000  0.00000  1.0000
  F   F1        1.0  0.42100  0.32600  0.02770  1.0000
  F   F2        1.0  0.02320  0.41200  0.31800  1.0000
  F   F3        1.0  0.32100  0.07460  0.41000  1.0000
  F   F4        1.0  0.67900  0.92500  0.59000  1.0000
  F   F5        1.0  0.97700  0.58800  0.68200  1.0000
  F   F6        1.0  0.57900  0.67400  0.97200  1.0000
  H   H1        1.0  0.36700  0.79800  0.09880  1.0000
  H   H2        1.0  0.72400  0.70200  0.09920  1.0000
  H   H3        1.0  0.91000  0.61300  0.21800  1.0000
  H   H4        1.0  0.26300  0.94700  0.27500  1.0000
  H   H5        1.0  0.87100  0.27300  0.29200  1.0000
  H   H6        1.0  0.73200  0.08160  0.38900  1.0000
  H   H7        1.0  0.26800  0.91800  0.61100  1.0000
  H   H8        1.0  0.12900  0.72700  0.70800  1.0000
  H   H9        1.0  0.73700  0.05320  0.72500  1.0000
  H   H10       1.0  0.09040  0.38700  0.78200  1.0000
  H   H11       1.0  0.27600  0.29800  0.90100  1.0000
  H   H12       1.0  0.63300  0.20200  0.90100  1.0000
  O   O1        1.0  0.80300  0.73700  0.19000  1.0000
  O   O2        1.0  0.22400  0.85300  0.20100  1.0000
  O   O3        1.0  0.77000  0.19500  0.26200  1.0000
  O   O4        1.0  0.23000  0.80500  0.73800  1.0000
  O   O5        1.0  0.77600  0.14700  0.79900  1.0000
  O   O6        1.0  0.19700  0.26300  0.81000  1.0000
  Sn  Sn1       1.0  0.35600  0.39100  0.34700  1.0000
  Sn  Sn2       1.0  0.64400  0.60900  0.65300  1.0000
