data_image0
_chemical_formula_structural       Cl11CsHg5
_chemical_formula_sum              "Cl11 Cs1 Hg5"
_cell_length_a       6.78302
_cell_length_b       9.39691
_cell_length_c       9.39691
_cell_angle_alpha    100.426
_cell_angle_beta     108.394
_cell_angle_gamma    108.394

_space_group_name_H-M_alt    "P 1"
_space_group_IT_number       1

loop_
  _space_group_symop_operation_xyz
  'x, y, z'

loop_
  _atom_site_type_symbol
  _atom_site_label
  _atom_site_symmetry_multiplicity
  _atom_site_fract_x
  _atom_site_fract_y
  _atom_site_fract_z
  _atom_site_occupancy
  Cl  Cl1       1.0  0.50000  0.00000  0.00000  1.0000
  Cl  Cl2       1.0  0.69300  0.70000  0.14400  1.0000
  Cl  Cl3       1.0  0.06730  0.42100  0.17100  1.0000
  Cl  Cl4       1.0  0.30700  0.85600  0.30000  1.0000
  Cl  Cl5       1.0  0.61300  0.35100  0.35100  1.0000
  Cl  Cl6       1.0  0.06730  0.17100  0.42100  1.0000
  Cl  Cl7       1.0  0.93300  0.82900  0.57900  1.0000
  Cl  Cl8       1.0  0.38700  0.64900  0.64900  1.0000
  Cl  Cl9       1.0  0.69300  0.14400  0.70000  1.0000
  Cl  Cl10      1.0  0.93300  0.57900  0.82900  1.0000
  Cl  Cl11      1.0  0.30700  0.30000  0.85600  1.0000
  Cs  Cs1       1.0  0.00000  0.00000  0.00000  1.0000
  Hg  Hg1       1.0  0.68400  0.35400  0.01620  1.0000
  Hg  Hg2       1.0  0.68400  0.01620  0.35400  1.0000
  Hg  Hg3       1.0  0.00000  0.50000  0.50000  1.0000
  Hg  Hg4       1.0  0.31600  0.98400  0.64600  1.0000
  Hg  Hg5       1.0  0.31600  0.64600  0.98400  1.0000
