data_image0
_chemical_formula_structural       Cl4H2K6O12Pt2S4
_chemical_formula_sum              "Cl4 H2 K6 O12 Pt2 S4"
_cell_length_a       6.97952
_cell_length_b       9.13613
_cell_length_c       9.13613
_cell_angle_alpha    69.2849
_cell_angle_beta     90
_cell_angle_gamma    90

_space_group_name_H-M_alt    "P 1"
_space_group_IT_number       1

loop_
  _space_group_symop_operation_xyz
  'x, y, z'

loop_
  _atom_site_type_symbol
  _atom_site_label
  _atom_site_symmetry_multiplicity
  _atom_site_fract_x
  _atom_site_fract_y
  _atom_site_fract_z
  _atom_site_occupancy
  Cl  Cl1       1.0  0.40900  0.77200  0.00363  1.0000
  Cl  Cl2       1.0  0.40900  0.99600  0.22800  1.0000
  Cl  Cl3       1.0  0.90900  0.00363  0.77200  1.0000
  Cl  Cl4       1.0  0.90900  0.22800  0.99600  1.0000
  H   H1        1.0  0.02800  0.51200  0.48800  1.0000
  H   H2        1.0  0.52800  0.48800  0.51200  1.0000
  K   K1        1.0  0.78200  0.87700  0.12300  1.0000
  K   K2        1.0  0.60200  0.41900  0.13900  1.0000
  K   K3        1.0  0.10200  0.13900  0.41900  1.0000
  K   K4        1.0  0.60200  0.86100  0.58100  1.0000
  K   K5        1.0  0.10200  0.58100  0.86100  1.0000
  K   K6        1.0  0.28200  0.12300  0.87700  1.0000
  O   O1        1.0  0.92400  0.59700  0.14000  1.0000
  O   O2        1.0  0.21400  0.44000  0.17800  1.0000
  O   O3        1.0  0.92400  0.86000  0.40300  1.0000
  O   O4        1.0  0.03420  0.43700  0.40400  1.0000
  O   O5        1.0  0.53400  0.40400  0.43700  1.0000
  O   O6        1.0  0.71400  0.17800  0.44000  1.0000
  O   O7        1.0  0.21400  0.82200  0.56000  1.0000
  O   O8        1.0  0.03420  0.59600  0.56300  1.0000
  O   O9        1.0  0.53400  0.56300  0.59600  1.0000
  O   O10       1.0  0.42400  0.14000  0.59700  1.0000
  O   O11       1.0  0.71400  0.56000  0.82200  1.0000
  O   O12       1.0  0.42400  0.40300  0.86000  1.0000
  Pt  Pt1       1.0  0.25300  0.75600  0.24400  1.0000
  Pt  Pt2       1.0  0.75300  0.24400  0.75600  1.0000
  S   S1        1.0  0.09790  0.54100  0.23800  1.0000
  S   S2        1.0  0.09790  0.76200  0.45900  1.0000
  S   S3        1.0  0.59800  0.23800  0.54100  1.0000
  S   S4        1.0  0.59800  0.45900  0.76200  1.0000
