data_image0
_chemical_formula_structural       Cl10K4OW2
_chemical_formula_sum              "Cl10 K4 O1 W2"
_cell_length_a       7.22254
_cell_length_b       7.22254
_cell_length_c       10.3089
_cell_angle_alpha    110.506
_cell_angle_beta     110.506
_cell_angle_gamma    90

_space_group_name_H-M_alt    "P 1"
_space_group_IT_number       1

loop_
  _space_group_symop_operation_xyz
  'x, y, z'

loop_
  _atom_site_type_symbol
  _atom_site_label
  _atom_site_symmetry_multiplicity
  _atom_site_fract_x
  _atom_site_fract_y
  _atom_site_fract_z
  _atom_site_occupancy
  Cl  Cl1       1.0  0.34900  0.34900  0.22300  1.0000
  Cl  Cl2       1.0  0.87400  0.34900  0.22300  1.0000
  Cl  Cl3       1.0  0.34900  0.87400  0.22300  1.0000
  Cl  Cl4       1.0  0.87400  0.87400  0.22300  1.0000
  Cl  Cl5       1.0  0.24100  0.24100  0.48200  1.0000
  Cl  Cl6       1.0  0.75900  0.75900  0.51800  1.0000
  Cl  Cl7       1.0  0.12600  0.12600  0.77700  1.0000
  Cl  Cl8       1.0  0.65100  0.12600  0.77700  1.0000
  Cl  Cl9       1.0  0.12600  0.65100  0.77700  1.0000
  Cl  Cl10      1.0  0.65100  0.65100  0.77700  1.0000
  K   K1        1.0  0.50000  0.00000  0.00000  1.0000
  K   K2        1.0  0.00000  0.50000  0.00000  1.0000
  K   K3        1.0  0.75000  0.25000  0.50000  1.0000
  K   K4        1.0  0.25000  0.75000  0.50000  1.0000
  O   O1        1.0  0.00000  0.00000  0.00000  1.0000
  W   W1        1.0  0.10600  0.10600  0.21100  1.0000
  W   W2        1.0  0.89400  0.89400  0.78900  1.0000
