data_image0
_chemical_formula_structural       Al2H16N8Rb2
_chemical_formula_sum              "Al2 H16 N8 Rb2"
_cell_length_a       7.02906
_cell_length_b       7.02906
_cell_length_c       6.14567
_cell_angle_alpha    90
_cell_angle_beta     90
_cell_angle_gamma    90

_space_group_name_H-M_alt    "P 1"
_space_group_IT_number       1

loop_
  _space_group_symop_operation_xyz
  'x, y, z'

loop_
  _atom_site_type_symbol
  _atom_site_label
  _atom_site_symmetry_multiplicity
  _atom_site_fract_x
  _atom_site_fract_y
  _atom_site_fract_z
  _atom_site_occupancy
  Al  Al1       1.0  0.75000  0.25000  0.00000  1.0000
  Al  Al2       1.0  0.25000  0.75000  0.00000  1.0000
  H   H1        1.0  0.58800  0.14100  0.14300  1.0000
  H   H2        1.0  0.91200  0.35900  0.14300  1.0000
  H   H3        1.0  0.35900  0.58800  0.14300  1.0000
  H   H4        1.0  0.14100  0.91200  0.14300  1.0000
  H   H5        1.0  0.16100  0.04380  0.36500  1.0000
  H   H6        1.0  0.45600  0.16100  0.36500  1.0000
  H   H7        1.0  0.04380  0.33900  0.36500  1.0000
  H   H8        1.0  0.33900  0.45600  0.36500  1.0000
  H   H9        1.0  0.66100  0.54400  0.63500  1.0000
  H   H10       1.0  0.95600  0.66100  0.63500  1.0000
  H   H11       1.0  0.54400  0.83900  0.63500  1.0000
  H   H12       1.0  0.83900  0.95600  0.63500  1.0000
  H   H13       1.0  0.85900  0.08840  0.85700  1.0000
  H   H14       1.0  0.64100  0.41200  0.85700  1.0000
  H   H15       1.0  0.08840  0.64100  0.85700  1.0000
  H   H16       1.0  0.41200  0.85900  0.85700  1.0000
  N   N1        1.0  0.69000  0.61300  0.48800  1.0000
  N   N2        1.0  0.88700  0.69000  0.48800  1.0000
  N   N3        1.0  0.61300  0.81000  0.48800  1.0000
  N   N4        1.0  0.81000  0.88700  0.48800  1.0000
  N   N5        1.0  0.19000  0.11300  0.51200  1.0000
  N   N6        1.0  0.38700  0.19000  0.51200  1.0000
  N   N7        1.0  0.11300  0.31000  0.51200  1.0000
  N   N8        1.0  0.31000  0.38700  0.51200  1.0000
  Rb  Rb1       1.0  0.75000  0.75000  0.06010  1.0000
  Rb  Rb2       1.0  0.25000  0.25000  0.94000  1.0000
