data_image0
_chemical_formula_structural       H16K2N8Y2
_chemical_formula_sum              "H16 K2 N8 Y2"
_cell_length_a       5.88645
_cell_length_b       6.5426
_cell_length_c       8.9283
_cell_angle_alpha    104.568
_cell_angle_beta     101.653
_cell_angle_gamma    110.393

_space_group_name_H-M_alt    "P 1"
_space_group_IT_number       1

loop_
  _space_group_symop_operation_xyz
  'x, y, z'

loop_
  _atom_site_type_symbol
  _atom_site_label
  _atom_site_symmetry_multiplicity
  _atom_site_fract_x
  _atom_site_fract_y
  _atom_site_fract_z
  _atom_site_occupancy
  H   H1        1.0  0.59500  0.39800  0.04740  1.0000
  H   H2        1.0  0.95300  0.65000  0.04740  1.0000
  H   H3        1.0  0.45400  0.30500  0.17300  1.0000
  H   H4        1.0  0.21900  0.86800  0.17300  1.0000
  H   H5        1.0  0.27500  0.51200  0.29300  1.0000
  H   H6        1.0  0.51800  0.78100  0.29300  1.0000
  H   H7        1.0  0.57100  0.04280  0.39500  1.0000
  H   H8        1.0  0.32400  0.35200  0.39500  1.0000
  H   H9        1.0  0.67600  0.64800  0.60500  1.0000
  H   H10       1.0  0.42900  0.95700  0.60500  1.0000
  H   H11       1.0  0.48200  0.21900  0.70700  1.0000
  H   H12       1.0  0.72500  0.48800  0.70700  1.0000
  H   H13       1.0  0.78100  0.13200  0.82700  1.0000
  H   H14       1.0  0.54600  0.69500  0.82700  1.0000
  H   H15       1.0  0.04750  0.35000  0.95300  1.0000
  H   H16       1.0  0.40500  0.60200  0.95300  1.0000
  K   K1        1.0  0.94500  0.69500  0.39000  1.0000
  K   K2        1.0  0.05510  0.30500  0.61000  1.0000
  N   N1        1.0  0.55000  0.26500  0.09340  1.0000
  N   N2        1.0  0.04370  0.82800  0.09340  1.0000
  N   N3        1.0  0.17900  0.38100  0.33100  1.0000
  N   N4        1.0  0.65200  0.95000  0.33100  1.0000
  N   N5        1.0  0.34800  0.04970  0.66900  1.0000
  N   N6        1.0  0.82100  0.61900  0.66900  1.0000
  N   N7        1.0  0.95600  0.17200  0.90700  1.0000
  N   N8        1.0  0.45000  0.73500  0.90700  1.0000
  Y   Y1        1.0  0.81600  0.06630  0.13300  1.0000
  Y   Y2        1.0  0.18400  0.93400  0.86700  1.0000
