data_image0
_chemical_formula_structural       H16Mo2N4O8
_chemical_formula_sum              "H16 Mo2 N4 O8"
_cell_length_a       6.39217
_cell_length_b       7.01617
_cell_length_c       7.65656
_cell_angle_alpha    114.206
_cell_angle_beta     90
_cell_angle_gamma    117.099

_space_group_name_H-M_alt    "P 1"
_space_group_IT_number       1

loop_
  _space_group_symop_operation_xyz
  'x, y, z'

loop_
  _atom_site_type_symbol
  _atom_site_label
  _atom_site_symmetry_multiplicity
  _atom_site_fract_x
  _atom_site_fract_y
  _atom_site_fract_z
  _atom_site_occupancy
  H   H1        1.0  0.14000  0.28000  0.08810  1.0000
  H   H2        1.0  0.42700  0.85400  0.14600  1.0000
  H   H3        1.0  0.57400  0.14800  0.20800  1.0000
  H   H4        1.0  0.08160  0.16300  0.24600  1.0000
  H   H5        1.0  0.08760  0.43200  0.30900  1.0000
  H   H6        1.0  0.34500  0.43200  0.30900  1.0000
  H   H7        1.0  0.40000  0.06090  0.35600  1.0000
  H   H8        1.0  0.66100  0.06090  0.35600  1.0000
  H   H9        1.0  0.33900  0.93900  0.64400  1.0000
  H   H10       1.0  0.60000  0.93900  0.64400  1.0000
  H   H11       1.0  0.65500  0.56800  0.69100  1.0000
  H   H12       1.0  0.91200  0.56800  0.69100  1.0000
  H   H13       1.0  0.91800  0.83700  0.75400  1.0000
  H   H14       1.0  0.42600  0.85200  0.79200  1.0000
  H   H15       1.0  0.57300  0.14600  0.85400  1.0000
  H   H16       1.0  0.86000  0.72000  0.91200  1.0000
  Mo  Mo1       1.0  0.83000  0.66100  0.27900  1.0000
  Mo  Mo2       1.0  0.17000  0.33900  0.72100  1.0000
  N   N1        1.0  0.16300  0.32500  0.23800  1.0000
  N   N2        1.0  0.51300  0.02580  0.26600  1.0000
  N   N3        1.0  0.48700  0.97400  0.73400  1.0000
  N   N4        1.0  0.83700  0.67500  0.76200  1.0000
  O   O1        1.0  0.67500  0.34900  0.10300  1.0000
  O   O2        1.0  0.92500  0.84900  0.16000  1.0000
  O   O3        1.0  0.08610  0.71700  0.42900  1.0000
  O   O4        1.0  0.63100  0.71700  0.42900  1.0000
  O   O5        1.0  0.36900  0.28300  0.57100  1.0000
  O   O6        1.0  0.91400  0.28300  0.57100  1.0000
  O   O7        1.0  0.07530  0.15100  0.84000  1.0000
  O   O8        1.0  0.32500  0.65100  0.89700  1.0000
