data_image0
_chemical_formula_structural       Cu6Fe2S8Sn
_chemical_formula_sum              "Cu6 Fe2 S8 Sn1"
_cell_length_a       7.60439
_cell_length_b       7.60439
_cell_length_c       5.29229
_cell_angle_alpha    90
_cell_angle_beta     90
_cell_angle_gamma    90

_space_group_name_H-M_alt    "P 1"
_space_group_IT_number       1

loop_
  _space_group_symop_operation_xyz
  'x, y, z'

loop_
  _atom_site_type_symbol
  _atom_site_label
  _atom_site_symmetry_multiplicity
  _atom_site_fract_x
  _atom_site_fract_y
  _atom_site_fract_z
  _atom_site_occupancy
  Cu  Cu1       1.0  0.50000  0.00000  0.98700  1.0000
  Cu  Cu2       1.0  0.00000  0.50000  0.01280  1.0000
  Cu  Cu3       1.0  0.24900  0.24900  0.50000  1.0000
  Cu  Cu4       1.0  0.75100  0.24900  0.50000  1.0000
  Cu  Cu5       1.0  0.24900  0.75100  0.50000  1.0000
  Cu  Cu6       1.0  0.75100  0.75100  0.50000  1.0000
  Fe  Fe1       1.0  0.50000  0.50000  0.00000  1.0000
  Fe  Fe2       1.0  0.50000  0.50000  0.50000  1.0000
  S   S1        1.0  0.26000  0.50000  0.24500  1.0000
  S   S2        1.0  0.74000  0.50000  0.24500  1.0000
  S   S3        1.0  0.26700  0.00000  0.26000  1.0000
  S   S4        1.0  0.73300  0.00000  0.26000  1.0000
  S   S5        1.0  0.00000  0.26700  0.74000  1.0000
  S   S6        1.0  0.00000  0.73300  0.74000  1.0000
  S   S7        1.0  0.50000  0.26000  0.75500  1.0000
  S   S8        1.0  0.50000  0.74000  0.75500  1.0000
  Sn  Sn1       1.0  0.00000  0.00000  0.00000  1.0000
