data_image0
_chemical_formula_structural       As6Rh7Yb4
_chemical_formula_sum              "As6 Rh7 Yb4"
_cell_length_a       7.21039
_cell_length_b       7.21039
_cell_length_c       7.21039
_cell_angle_alpha    109.471
_cell_angle_beta     109.471
_cell_angle_gamma    109.471

_space_group_name_H-M_alt    "P 1"
_space_group_IT_number       1

loop_
  _space_group_symop_operation_xyz
  'x, y, z'

loop_
  _atom_site_type_symbol
  _atom_site_label
  _atom_site_symmetry_multiplicity
  _atom_site_fract_x
  _atom_site_fract_y
  _atom_site_fract_z
  _atom_site_occupancy
  As  As1       1.0  0.32000  0.32000  0.00000  1.0000
  As  As2       1.0  0.68000  0.68000  0.00000  1.0000
  As  As3       1.0  0.32000  0.00000  0.32000  1.0000
  As  As4       1.0  0.00000  0.32000  0.32000  1.0000
  As  As5       1.0  0.68000  0.00000  0.68000  1.0000
  As  As6       1.0  0.00000  0.68000  0.68000  1.0000
  Rh  Rh1       1.0  0.00000  0.00000  0.00000  1.0000
  Rh  Rh2       1.0  0.75000  0.50000  0.25000  1.0000
  Rh  Rh3       1.0  0.50000  0.75000  0.25000  1.0000
  Rh  Rh4       1.0  0.75000  0.25000  0.50000  1.0000
  Rh  Rh5       1.0  0.25000  0.75000  0.50000  1.0000
  Rh  Rh6       1.0  0.50000  0.25000  0.75000  1.0000
  Rh  Rh7       1.0  0.25000  0.50000  0.75000  1.0000
  Yb  Yb1       1.0  0.50000  0.00000  0.00000  1.0000
  Yb  Yb2       1.0  0.00000  0.50000  0.00000  1.0000
  Yb  Yb3       1.0  0.00000  0.00000  0.50000  1.0000
  Yb  Yb4       1.0  0.50000  0.50000  0.50000  1.0000
