data_image0
_chemical_formula_structural       Ge12NdPt4
_chemical_formula_sum              "Ge12 Nd1 Pt4"
_cell_length_a       7.54776
_cell_length_b       7.54776
_cell_length_c       7.54776
_cell_angle_alpha    109.471
_cell_angle_beta     109.471
_cell_angle_gamma    109.471

_space_group_name_H-M_alt    "P 1"
_space_group_IT_number       1

loop_
  _space_group_symop_operation_xyz
  'x, y, z'

loop_
  _atom_site_type_symbol
  _atom_site_label
  _atom_site_symmetry_multiplicity
  _atom_site_fract_x
  _atom_site_fract_y
  _atom_site_fract_z
  _atom_site_occupancy
  Ge  Ge1       1.0  0.35400  0.50500  0.15100  1.0000
  Ge  Ge2       1.0  0.64600  0.79700  0.15100  1.0000
  Ge  Ge3       1.0  0.84900  0.35400  0.20300  1.0000
  Ge  Ge4       1.0  0.50500  0.15100  0.35400  1.0000
  Ge  Ge5       1.0  0.20300  0.84900  0.35400  1.0000
  Ge  Ge6       1.0  0.84900  0.64600  0.49500  1.0000
  Ge  Ge7       1.0  0.15100  0.35400  0.50500  1.0000
  Ge  Ge8       1.0  0.79700  0.15100  0.64600  1.0000
  Ge  Ge9       1.0  0.49500  0.84900  0.64600  1.0000
  Ge  Ge10      1.0  0.15100  0.64600  0.79700  1.0000
  Ge  Ge11      1.0  0.35400  0.20300  0.84900  1.0000
  Ge  Ge12      1.0  0.64600  0.49500  0.84900  1.0000
  Nd  Nd1       1.0  0.00000  0.00000  0.00000  1.0000
  Pt  Pt1       1.0  0.50000  0.00000  0.00000  1.0000
  Pt  Pt2       1.0  0.00000  0.50000  0.00000  1.0000
  Pt  Pt3       1.0  0.00000  0.00000  0.50000  1.0000
  Pt  Pt4       1.0  0.50000  0.50000  0.50000  1.0000
