data_image0
_chemical_formula_structural       H8Na2O16P2S2
_chemical_formula_sum              "H8 Na2 O16 P2 S2"
_cell_length_a       5.33641
_cell_length_b       6.62204
_cell_length_c       8.43521
_cell_angle_alpha    90
_cell_angle_beta     96.4238
_cell_angle_gamma    90

_space_group_name_H-M_alt    "P 1"
_space_group_IT_number       1

loop_
  _space_group_symop_operation_xyz
  'x, y, z'

loop_
  _atom_site_type_symbol
  _atom_site_label
  _atom_site_symmetry_multiplicity
  _atom_site_fract_x
  _atom_site_fract_y
  _atom_site_fract_z
  _atom_site_occupancy
  H   H1        1.0  0.90300  0.99500  0.07530  1.0000
  H   H2        1.0  0.56100  0.59100  0.13700  1.0000
  H   H3        1.0  0.55300  0.11700  0.21900  1.0000
  H   H4        1.0  0.16500  0.57900  0.25300  1.0000
  H   H5        1.0  0.83500  0.07930  0.74700  1.0000
  H   H6        1.0  0.44700  0.61700  0.78100  1.0000
  H   H7        1.0  0.43900  0.09110  0.86300  1.0000
  H   H8        1.0  0.09670  0.49500  0.92500  1.0000
  Na  Na1       1.0  0.01410  0.13600  0.44300  1.0000
  Na  Na2       1.0  0.98600  0.63600  0.55700  1.0000
  O   O1        1.0  0.94900  0.86500  0.01560  1.0000
  O   O2        1.0  0.63400  0.49700  0.05750  1.0000
  O   O3        1.0  0.81600  0.16600  0.16900  1.0000
  O   O4        1.0  0.39800  0.70200  0.24200  1.0000
  O   O5        1.0  0.01340  0.48900  0.27000  1.0000
  O   O6        1.0  0.39900  0.07260  0.27500  1.0000
  O   O7        1.0  0.72600  0.86500  0.42000  1.0000
  O   O8        1.0  0.28600  0.85900  0.48200  1.0000
  O   O9        1.0  0.71400  0.35900  0.51800  1.0000
  O   O10       1.0  0.27400  0.36500  0.58000  1.0000
  O   O11       1.0  0.60100  0.57300  0.72500  1.0000
  O   O12       1.0  0.98700  0.98900  0.73000  1.0000
  O   O13       1.0  0.60200  0.20200  0.75800  1.0000
  O   O14       1.0  0.18400  0.66600  0.83100  1.0000
  O   O15       1.0  0.36600  0.99700  0.94200  1.0000
  O   O16       1.0  0.05110  0.36500  0.98400  1.0000
  P   P1        1.0  0.87700  0.38000  0.11900  1.0000
  P   P2        1.0  0.12300  0.88000  0.88100  1.0000
  S   S1        1.0  0.45900  0.86600  0.36100  1.0000
  S   S2        1.0  0.54100  0.36600  0.63900  1.0000
