data_image0
_chemical_formula_structural       H4Li4O16S4
_chemical_formula_sum              "H4 Li4 O16 S4"
_cell_length_a       5.04585
_cell_length_b       7.21619
_cell_length_c       8.21039
_cell_angle_alpha    90
_cell_angle_beta     89.4534
_cell_angle_gamma    90

_space_group_name_H-M_alt    "P 1"
_space_group_IT_number       1

loop_
  _space_group_symop_operation_xyz
  'x, y, z'

loop_
  _atom_site_type_symbol
  _atom_site_label
  _atom_site_symmetry_multiplicity
  _atom_site_fract_x
  _atom_site_fract_y
  _atom_site_fract_z
  _atom_site_occupancy
  H   H1        1.0  0.85000  0.38200  0.22200  1.0000
  H   H2        1.0  0.15000  0.88200  0.27800  1.0000
  H   H3        1.0  0.85000  0.11800  0.72200  1.0000
  H   H4        1.0  0.15000  0.61800  0.77800  1.0000
  Li  Li1       1.0  0.48300  0.30500  0.00244  1.0000
  Li  Li2       1.0  0.51700  0.80500  0.49800  1.0000
  Li  Li3       1.0  0.48300  0.19500  0.50200  1.0000
  Li  Li4       1.0  0.51700  0.69500  0.99800  1.0000
  O   O1        1.0  0.70200  0.87500  0.10800  1.0000
  O   O2        1.0  0.32300  0.50800  0.12200  1.0000
  O   O3        1.0  0.75200  0.20800  0.14300  1.0000
  O   O4        1.0  0.09790  0.00965  0.23000  1.0000
  O   O5        1.0  0.90200  0.51000  0.27000  1.0000
  O   O6        1.0  0.24800  0.70800  0.35700  1.0000
  O   O7        1.0  0.67700  0.00847  0.37800  1.0000
  O   O8        1.0  0.29800  0.37500  0.39200  1.0000
  O   O9        1.0  0.70200  0.62500  0.60800  1.0000
  O   O10       1.0  0.32300  0.99200  0.62200  1.0000
  O   O11       1.0  0.75200  0.29200  0.64300  1.0000
  O   O12       1.0  0.09790  0.49000  0.73000  1.0000
  O   O13       1.0  0.90200  0.99000  0.77000  1.0000
  O   O14       1.0  0.24800  0.79200  0.85700  1.0000
  O   O15       1.0  0.67700  0.49200  0.87800  1.0000
  O   O16       1.0  0.29800  0.12500  0.89200  1.0000
  S   S1        1.0  0.79200  0.02160  0.21300  1.0000
  S   S2        1.0  0.20800  0.52200  0.28700  1.0000
  S   S3        1.0  0.79200  0.47800  0.71300  1.0000
  S   S4        1.0  0.20800  0.97800  0.78700  1.0000
