data_image0
_chemical_formula_structural       BaRu4Sb12
_chemical_formula_sum              "Ba1 Ru4 Sb12"
_cell_length_a       8.15555
_cell_length_b       8.15555
_cell_length_c       8.15555
_cell_angle_alpha    109.471
_cell_angle_beta     109.471
_cell_angle_gamma    109.471

_space_group_name_H-M_alt    "P 1"
_space_group_IT_number       1

loop_
  _space_group_symop_operation_xyz
  'x, y, z'

loop_
  _atom_site_type_symbol
  _atom_site_label
  _atom_site_symmetry_multiplicity
  _atom_site_fract_x
  _atom_site_fract_y
  _atom_site_fract_z
  _atom_site_occupancy
  Ba  Ba1       1.0  0.00000  0.00000  0.00000  1.0000
  Ru  Ru1       1.0  0.50000  0.00000  0.00000  1.0000
  Ru  Ru2       1.0  0.00000  0.50000  0.00000  1.0000
  Ru  Ru3       1.0  0.00000  0.00000  0.50000  1.0000
  Ru  Ru4       1.0  0.50000  0.50000  0.50000  1.0000
  Sb  Sb1       1.0  0.34400  0.50400  0.16000  1.0000
  Sb  Sb2       1.0  0.65600  0.81700  0.16000  1.0000
  Sb  Sb3       1.0  0.84000  0.34400  0.18300  1.0000
  Sb  Sb4       1.0  0.50400  0.16000  0.34400  1.0000
  Sb  Sb5       1.0  0.18300  0.84000  0.34400  1.0000
  Sb  Sb6       1.0  0.84000  0.65600  0.49600  1.0000
  Sb  Sb7       1.0  0.16000  0.34400  0.50400  1.0000
  Sb  Sb8       1.0  0.49600  0.84000  0.65600  1.0000
  Sb  Sb9       1.0  0.81700  0.16000  0.65600  1.0000
  Sb  Sb10      1.0  0.16000  0.65600  0.81700  1.0000
  Sb  Sb11      1.0  0.34400  0.18300  0.84000  1.0000
  Sb  Sb12      1.0  0.65600  0.49600  0.84000  1.0000
