data_image0
_chemical_formula_structural       Cu8Rb3S6
_chemical_formula_sum              "Cu8 Rb3 S6"
_cell_length_a       3.87645
_cell_length_b       9.12697
_cell_length_c       9.96571
_cell_angle_alpha    106.183
_cell_angle_beta     90
_cell_angle_gamma    102.261

_space_group_name_H-M_alt    "P 1"
_space_group_IT_number       1

loop_
  _space_group_symop_operation_xyz
  'x, y, z'

loop_
  _atom_site_type_symbol
  _atom_site_label
  _atom_site_symmetry_multiplicity
  _atom_site_fract_x
  _atom_site_fract_y
  _atom_site_fract_z
  _atom_site_occupancy
  Cu  Cu1       1.0  0.30300  0.60600  0.08780  1.0000
  Cu  Cu2       1.0  0.90300  0.80600  0.20800  1.0000
  Cu  Cu3       1.0  0.48400  0.96700  0.35900  1.0000
  Cu  Cu4       1.0  0.91200  0.82400  0.46700  1.0000
  Cu  Cu5       1.0  0.08810  0.17600  0.53300  1.0000
  Cu  Cu6       1.0  0.51600  0.03270  0.64100  1.0000
  Cu  Cu7       1.0  0.09710  0.19400  0.79200  1.0000
  Cu  Cu8       1.0  0.69700  0.39400  0.91200  1.0000
  Rb  Rb1       1.0  0.50000  0.00000  0.00000  1.0000
  Rb  Rb2       1.0  0.69200  0.38400  0.29900  1.0000
  Rb  Rb3       1.0  0.30800  0.61600  0.70100  1.0000
  S   S1        1.0  0.16300  0.32600  0.01850  1.0000
  S   S2        1.0  0.03840  0.07670  0.29700  1.0000
  S   S3        1.0  0.34900  0.69800  0.35000  1.0000
  S   S4        1.0  0.65100  0.30200  0.65000  1.0000
  S   S5        1.0  0.96200  0.92300  0.70300  1.0000
  S   S6        1.0  0.83700  0.67400  0.98200  1.0000
