data_image0
_chemical_formula_structural       Cu2H12N2O10P2
_chemical_formula_sum              "Cu2 H12 N2 O10 P2"
_cell_length_a       5.43826
_cell_length_b       8.68496
_cell_length_c       4.69738
_cell_angle_alpha    90
_cell_angle_beta     90
_cell_angle_gamma    90

_space_group_name_H-M_alt    "P 1"
_space_group_IT_number       1

loop_
  _space_group_symop_operation_xyz
  'x, y, z'

loop_
  _atom_site_type_symbol
  _atom_site_label
  _atom_site_symmetry_multiplicity
  _atom_site_fract_x
  _atom_site_fract_y
  _atom_site_fract_z
  _atom_site_occupancy
  Cu  Cu1       1.0  0.50000  0.97700  0.02040  1.0000
  Cu  Cu2       1.0  0.00000  0.02280  0.52000  1.0000
  H   H1        1.0  0.50000  0.45400  0.03330  1.0000
  H   H2        1.0  0.00000  0.53700  0.16700  1.0000
  H   H3        1.0  0.15800  0.40500  0.36200  1.0000
  H   H4        1.0  0.84200  0.40500  0.36200  1.0000
  H   H5        1.0  0.35600  0.79800  0.42900  1.0000
  H   H6        1.0  0.64400  0.79800  0.42900  1.0000
  H   H7        1.0  0.00000  0.54600  0.53300  1.0000
  H   H8        1.0  0.50000  0.46300  0.66700  1.0000
  H   H9        1.0  0.34200  0.59500  0.86200  1.0000
  H   H10       1.0  0.65800  0.59500  0.86200  1.0000
  H   H11       1.0  0.14400  0.20200  0.92900  1.0000
  H   H12       1.0  0.85600  0.20200  0.92900  1.0000
  N   N1        1.0  0.00000  0.47200  0.35600  1.0000
  N   N2        1.0  0.50000  0.52800  0.85600  1.0000
  O   O1        1.0  0.00000  0.82000  0.25500  1.0000
  O   O2        1.0  0.27700  0.10600  0.28800  1.0000
  O   O3        1.0  0.72300  0.10600  0.28800  1.0000
  O   O4        1.0  0.50000  0.76900  0.31400  1.0000
  O   O5        1.0  0.50000  0.36400  0.34800  1.0000
  O   O6        1.0  0.50000  0.18000  0.75500  1.0000
  O   O7        1.0  0.22300  0.89400  0.78800  1.0000
  O   O8        1.0  0.77700  0.89400  0.78800  1.0000
  O   O9        1.0  0.00000  0.23100  0.81400  1.0000
  O   O10       1.0  0.00000  0.63600  0.84800  1.0000
  P   P1        1.0  0.50000  0.19300  0.43500  1.0000
  P   P2        1.0  0.00000  0.80700  0.93500  1.0000
