data_image0
_chemical_formula_structural       P2Pd15
_chemical_formula_sum              "P2 Pd15"
_cell_length_a       7.13112
_cell_length_b       7.13112
_cell_length_c       7.13112
_cell_angle_alpha    60.74
_cell_angle_beta     119.26
_cell_angle_gamma    119.26

_space_group_name_H-M_alt    "P 1"
_space_group_IT_number       1

loop_
  _space_group_symop_operation_xyz
  'x, y, z'

loop_
  _atom_site_type_symbol
  _atom_site_label
  _atom_site_symmetry_multiplicity
  _atom_site_fract_x
  _atom_site_fract_y
  _atom_site_fract_z
  _atom_site_occupancy
  P   P1        1.0  0.71400  0.28600  0.28600  1.0000
  P   P2        1.0  0.28600  0.71400  0.71400  1.0000
  Pd  Pd1       1.0  0.22500  0.55800  0.05280  1.0000
  Pd  Pd2       1.0  0.92100  0.07950  0.07950  1.0000
  Pd  Pd3       1.0  0.68000  0.63500  0.15400  1.0000
  Pd  Pd4       1.0  0.55800  0.94700  0.22500  1.0000
  Pd  Pd5       1.0  0.36500  0.15400  0.32000  1.0000
  Pd  Pd6       1.0  0.15400  0.68000  0.36500  1.0000
  Pd  Pd7       1.0  0.05280  0.22500  0.44200  1.0000
  Pd  Pd8       1.0  0.50000  0.50000  0.50000  1.0000
  Pd  Pd9       1.0  0.94700  0.77500  0.55800  1.0000
  Pd  Pd10      1.0  0.84600  0.32000  0.63500  1.0000
  Pd  Pd11      1.0  0.63500  0.84600  0.68000  1.0000
  Pd  Pd12      1.0  0.44200  0.05280  0.77500  1.0000
  Pd  Pd13      1.0  0.32000  0.36500  0.84600  1.0000
  Pd  Pd14      1.0  0.07950  0.92100  0.92100  1.0000
  Pd  Pd15      1.0  0.77500  0.44200  0.94700  1.0000
