data_image0
_chemical_formula_structural       C8Fe4H4O12
_chemical_formula_sum              "C8 Fe4 H4 O12"
_cell_length_a       3.29427
_cell_length_b       9.96518
_cell_length_c       8.46707
_cell_angle_alpha    90
_cell_angle_beta     99.2206
_cell_angle_gamma    90

_space_group_name_H-M_alt    "P 1"
_space_group_IT_number       1

loop_
  _space_group_symop_operation_xyz
  'x, y, z'

loop_
  _atom_site_type_symbol
  _atom_site_label
  _atom_site_symmetry_multiplicity
  _atom_site_fract_x
  _atom_site_fract_y
  _atom_site_fract_z
  _atom_site_occupancy
  C   C1        1.0  0.14700  0.91700  0.05670  1.0000
  C   C2        1.0  0.07110  0.05450  0.10500  1.0000
  C   C3        1.0  0.92900  0.55500  0.39500  1.0000
  C   C4        1.0  0.85300  0.41700  0.44300  1.0000
  C   C5        1.0  0.14700  0.58300  0.55700  1.0000
  C   C6        1.0  0.07110  0.44500  0.60500  1.0000
  C   C7        1.0  0.92900  0.94500  0.89500  1.0000
  C   C8        1.0  0.85300  0.08340  0.94300  1.0000
  Fe  Fe1       1.0  0.29400  0.61300  0.08460  1.0000
  Fe  Fe2       1.0  0.70600  0.11300  0.41500  1.0000
  Fe  Fe3       1.0  0.29400  0.88700  0.58500  1.0000
  Fe  Fe4       1.0  0.70600  0.38700  0.91500  1.0000
  H   H1        1.0  0.33100  0.35100  0.16800  1.0000
  H   H2        1.0  0.66900  0.85100  0.33200  1.0000
  H   H3        1.0  0.33100  0.14900  0.66800  1.0000
  H   H4        1.0  0.66900  0.64900  0.83200  1.0000
  O   O1        1.0  0.26500  0.40300  0.06870  1.0000
  O   O2        1.0  0.33100  0.81800  0.12800  1.0000
  O   O3        1.0  0.15400  0.12100  0.23300  1.0000
  O   O4        1.0  0.84600  0.62100  0.26700  1.0000
  O   O5        1.0  0.66900  0.31800  0.37200  1.0000
  O   O6        1.0  0.73500  0.90300  0.43100  1.0000
  O   O7        1.0  0.26500  0.09740  0.56900  1.0000
  O   O8        1.0  0.33100  0.68200  0.62800  1.0000
  O   O9        1.0  0.15400  0.37900  0.73300  1.0000
  O   O10       1.0  0.84600  0.87900  0.76700  1.0000
  O   O11       1.0  0.66900  0.18200  0.87200  1.0000
  O   O12       1.0  0.73500  0.59700  0.93100  1.0000
