data_image0
_chemical_formula_structural       As5Fe12
_chemical_formula_sum              "As5 Fe12"
_cell_length_a       6.62872
_cell_length_b       6.62872
_cell_length_c       6.62872
_cell_angle_alpha    118.956
_cell_angle_beta     61.0439
_cell_angle_gamma    118.956

_space_group_name_H-M_alt    "P 1"
_space_group_IT_number       1

loop_
  _space_group_symop_operation_xyz
  'x, y, z'

loop_
  _atom_site_type_symbol
  _atom_site_label
  _atom_site_symmetry_multiplicity
  _atom_site_fract_x
  _atom_site_fract_y
  _atom_site_fract_z
  _atom_site_occupancy
  As  As1       1.0  0.99800  0.00189  0.99800  1.0000
  As  As2       1.0  0.50800  0.14600  0.20000  1.0000
  As  As3       1.0  0.85400  0.80000  0.50800  1.0000
  As  As4       1.0  0.71000  0.29000  0.71000  1.0000
  As  As5       1.0  0.20000  0.49200  0.85400  1.0000
  Fe  Fe1       1.0  0.85900  0.63200  0.07930  1.0000
  Fe  Fe2       1.0  0.35400  0.40800  0.11600  1.0000
  Fe  Fe3       1.0  0.23700  0.76300  0.23700  1.0000
  Fe  Fe4       1.0  0.85000  0.37100  0.34000  1.0000
  Fe  Fe5       1.0  0.59200  0.88400  0.35400  1.0000
  Fe  Fe6       1.0  0.07930  0.14100  0.36800  1.0000
  Fe  Fe7       1.0  0.47100  0.52900  0.47100  1.0000
  Fe  Fe8       1.0  0.11600  0.64600  0.59200  1.0000
  Fe  Fe9       1.0  0.34000  0.15000  0.62900  1.0000
  Fe  Fe10      1.0  0.62900  0.66000  0.85000  1.0000
  Fe  Fe11      1.0  0.85400  0.14600  0.85400  1.0000
  Fe  Fe12      1.0  0.36800  0.92100  0.85900  1.0000
