data_image0
_chemical_formula_structural       Re7Si6U4
_chemical_formula_sum              "Re7 Si6 U4"
_cell_length_a       7.13711
_cell_length_b       7.13711
_cell_length_c       7.13711
_cell_angle_alpha    109.471
_cell_angle_beta     109.471
_cell_angle_gamma    109.471

_space_group_name_H-M_alt    "P 1"
_space_group_IT_number       1

loop_
  _space_group_symop_operation_xyz
  'x, y, z'

loop_
  _atom_site_type_symbol
  _atom_site_label
  _atom_site_symmetry_multiplicity
  _atom_site_fract_x
  _atom_site_fract_y
  _atom_site_fract_z
  _atom_site_occupancy
  Re  Re1       1.0  0.00000  0.00000  0.00000  1.0000
  Re  Re2       1.0  0.75000  0.50000  0.25000  1.0000
  Re  Re3       1.0  0.50000  0.75000  0.25000  1.0000
  Re  Re4       1.0  0.75000  0.25000  0.50000  1.0000
  Re  Re5       1.0  0.25000  0.75000  0.50000  1.0000
  Re  Re6       1.0  0.50000  0.25000  0.75000  1.0000
  Re  Re7       1.0  0.25000  0.50000  0.75000  1.0000
  Si  Si1       1.0  0.30900  0.30900  0.00000  1.0000
  Si  Si2       1.0  0.69100  0.69100  0.00000  1.0000
  Si  Si3       1.0  0.30900  0.00000  0.30900  1.0000
  Si  Si4       1.0  0.00000  0.30900  0.30900  1.0000
  Si  Si5       1.0  0.69100  0.00000  0.69100  1.0000
  Si  Si6       1.0  0.00000  0.69100  0.69100  1.0000
  U   U1        1.0  0.50000  0.00000  0.00000  1.0000
  U   U2        1.0  0.00000  0.50000  0.00000  1.0000
  U   U3        1.0  0.00000  0.00000  0.50000  1.0000
  U   U4        1.0  0.50000  0.50000  0.50000  1.0000
