data_image0
_chemical_formula_structural       CuK6O8Si2
_chemical_formula_sum              "Cu1 K6 O8 Si2"
_cell_length_a       6.14462
_cell_length_b       6.61319
_cell_length_c       7.50808
_cell_angle_alpha    83.2826
_cell_angle_beta     87.9182
_cell_angle_gamma    70.4029

_space_group_name_H-M_alt    "P 1"
_space_group_IT_number       1

loop_
  _space_group_symop_operation_xyz
  'x, y, z'

loop_
  _atom_site_type_symbol
  _atom_site_label
  _atom_site_symmetry_multiplicity
  _atom_site_fract_x
  _atom_site_fract_y
  _atom_site_fract_z
  _atom_site_occupancy
  Cu  Cu1       1.0  0.00000  0.50000  0.50000  1.0000
  K   K1        1.0  0.20000  0.69700  0.02530  1.0000
  K   K2        1.0  0.65300  0.82900  0.16600  1.0000
  K   K3        1.0  0.72700  0.19000  0.44200  1.0000
  K   K4        1.0  0.27300  0.81000  0.55800  1.0000
  K   K5        1.0  0.34700  0.17100  0.83400  1.0000
  K   K6        1.0  0.80000  0.30300  0.97500  1.0000
  O   O1        1.0  0.43900  0.27600  0.15700  1.0000
  O   O2        1.0  0.16500  0.02840  0.21500  1.0000
  O   O3        1.0  0.98100  0.45900  0.24500  1.0000
  O   O4        1.0  0.26000  0.22800  0.49000  1.0000
  O   O5        1.0  0.74000  0.77200  0.51000  1.0000
  O   O6        1.0  0.01870  0.54100  0.75500  1.0000
  O   O7        1.0  0.83500  0.97200  0.78500  1.0000
  O   O8        1.0  0.56100  0.72400  0.84300  1.0000
  Si  Si1       1.0  0.22000  0.23900  0.26800  1.0000
  Si  Si2       1.0  0.78000  0.76100  0.73200  1.0000
