data_image0
_chemical_formula_structural       Ni12P5
_chemical_formula_sum              "Ni12 P5"
_cell_length_a       5.05032
_cell_length_b       6.58991
_cell_length_c       6.58991
_cell_angle_alpha    98.4434
_cell_angle_beta     112.531
_cell_angle_gamma    67.4688

_space_group_name_H-M_alt    "P 1"
_space_group_IT_number       1

loop_
  _space_group_symop_operation_xyz
  'x, y, z'

loop_
  _atom_site_type_symbol
  _atom_site_label
  _atom_site_symmetry_multiplicity
  _atom_site_fract_x
  _atom_site_fract_y
  _atom_site_fract_z
  _atom_site_occupancy
  Ni  Ni1       1.0  0.13200  0.29800  0.06440  1.0000
  Ni  Ni2       1.0  0.63400  0.29800  0.06440  1.0000
  Ni  Ni3       1.0  0.43000  0.93600  0.29800  1.0000
  Ni  Ni4       1.0  0.93200  0.93600  0.29800  1.0000
  Ni  Ni5       1.0  0.36600  0.57400  0.30500  1.0000
  Ni  Ni6       1.0  0.06090  0.30500  0.42600  1.0000
  Ni  Ni7       1.0  0.93900  0.69500  0.57400  1.0000
  Ni  Ni8       1.0  0.63400  0.42600  0.69500  1.0000
  Ni  Ni9       1.0  0.06790  0.06440  0.70200  1.0000
  Ni  Ni10      1.0  0.57000  0.06440  0.70200  1.0000
  Ni  Ni11      1.0  0.36600  0.70200  0.93600  1.0000
  Ni  Ni12      1.0  0.86800  0.70200  0.93600  1.0000
  P   P1        1.0  0.00000  0.00000  0.00000  1.0000
  P   P2        1.0  0.80600  0.60700  0.21900  1.0000
  P   P3        1.0  0.58700  0.21900  0.39300  1.0000
  P   P4        1.0  0.41300  0.78100  0.60700  1.0000
  P   P5        1.0  0.19400  0.39300  0.78100  1.0000
