data_image0
_chemical_formula_structural       Cl11Hg5Tl
_chemical_formula_sum              "Cl11 Hg5 Tl1"
_cell_length_a       6.54284
_cell_length_b       9.29421
_cell_length_c       9.29421
_cell_angle_alpha    100.758
_cell_angle_beta     107.478
_cell_angle_gamma    107.478

_space_group_name_H-M_alt    "P 1"
_space_group_IT_number       1

loop_
  _space_group_symop_operation_xyz
  'x, y, z'

loop_
  _atom_site_type_symbol
  _atom_site_label
  _atom_site_symmetry_multiplicity
  _atom_site_fract_x
  _atom_site_fract_y
  _atom_site_fract_z
  _atom_site_occupancy
  Cl  Cl1       1.0  0.92200  0.33000  0.08220  1.0000
  Cl  Cl2       1.0  0.39300  0.15000  0.15000  1.0000
  Cl  Cl3       1.0  0.70100  0.64200  0.20300  1.0000
  Cl  Cl4       1.0  0.92200  0.08220  0.33000  1.0000
  Cl  Cl5       1.0  0.29900  0.79700  0.35800  1.0000
  Cl  Cl6       1.0  0.50000  0.50000  0.50000  1.0000
  Cl  Cl7       1.0  0.70100  0.20300  0.64200  1.0000
  Cl  Cl8       1.0  0.07750  0.91800  0.67000  1.0000
  Cl  Cl9       1.0  0.29900  0.35800  0.79700  1.0000
  Cl  Cl10      1.0  0.60700  0.85000  0.85000  1.0000
  Cl  Cl11      1.0  0.07750  0.67000  0.91800  1.0000
  Hg  Hg1       1.0  0.00000  0.00000  0.00000  1.0000
  Hg  Hg2       1.0  0.31200  0.48400  0.14500  1.0000
  Hg  Hg3       1.0  0.31200  0.14500  0.48400  1.0000
  Hg  Hg4       1.0  0.68800  0.85500  0.51600  1.0000
  Hg  Hg5       1.0  0.68800  0.51600  0.85500  1.0000
  Tl  Tl1       1.0  0.00000  0.50000  0.50000  1.0000
