data_image0
_chemical_formula_structural       CdCr2H14N4O8
_chemical_formula_sum              "Cd1 Cr2 H14 N4 O8"
_cell_length_a       5.97351
_cell_length_b       6.95503
_cell_length_c       7.44885
_cell_angle_alpha    108.098
_cell_angle_beta     90
_cell_angle_gamma    115.432

_space_group_name_H-M_alt    "P 1"
_space_group_IT_number       1

loop_
  _space_group_symop_operation_xyz
  'x, y, z'

loop_
  _atom_site_type_symbol
  _atom_site_label
  _atom_site_symmetry_multiplicity
  _atom_site_fract_x
  _atom_site_fract_y
  _atom_site_fract_z
  _atom_site_occupancy
  Cd  Cd1       1.0  0.00000  0.00000  0.00000  1.0000
  Cr  Cr1       1.0  0.66200  0.32400  0.22200  1.0000
  Cr  Cr2       1.0  0.33800  0.67600  0.77800  1.0000
  H   H1        1.0  0.14200  0.55800  0.20600  1.0000
  H   H2        1.0  0.41600  0.55800  0.20600  1.0000
  H   H3        1.0  0.40300  0.80600  0.22900  1.0000
  H   H4        1.0  0.92200  0.84400  0.31100  1.0000
  H   H5        1.0  0.18400  0.08970  0.36300  1.0000
  H   H6        1.0  0.90600  0.08970  0.36300  1.0000
  H   H7        1.0  0.35500  0.71000  0.41400  1.0000
  H   H8        1.0  0.64500  0.29000  0.58600  1.0000
  H   H9        1.0  0.09390  0.91000  0.63700  1.0000
  H   H10       1.0  0.81600  0.91000  0.63700  1.0000
  H   H11       1.0  0.07780  0.15600  0.68900  1.0000
  H   H12       1.0  0.59700  0.19400  0.77100  1.0000
  H   H13       1.0  0.58400  0.44200  0.79400  1.0000
  H   H14       1.0  0.85800  0.44200  0.79400  1.0000
  N   N1        1.0  0.33000  0.66100  0.26500  1.0000
  N   N2        1.0  0.00098  0.00195  0.29600  1.0000
  N   N3        1.0  0.99900  0.99800  0.70400  1.0000
  N   N4        1.0  0.67000  0.33900  0.73500  1.0000
  O   O1        1.0  0.41900  0.29200  0.08510  1.0000
  O   O2        1.0  0.87300  0.29200  0.08510  1.0000
  O   O3        1.0  0.56900  0.13800  0.33700  1.0000
  O   O4        1.0  0.79200  0.58300  0.37900  1.0000
  O   O5        1.0  0.20800  0.41700  0.62100  1.0000
  O   O6        1.0  0.43100  0.86200  0.66300  1.0000
  O   O7        1.0  0.12700  0.70800  0.91500  1.0000
  O   O8        1.0  0.58100  0.70800  0.91500  1.0000
