data_image0
_chemical_formula_structural       As2C2F12H10O2
_chemical_formula_sum              "As2 C2 F12 H10 O2"
_cell_length_a       4.48409
_cell_length_b       6.7561
_cell_length_c       7.96466
_cell_angle_alpha    90
_cell_angle_beta     97.1134
_cell_angle_gamma    90

_space_group_name_H-M_alt    "P 1"
_space_group_IT_number       1

loop_
  _space_group_symop_operation_xyz
  'x, y, z'

loop_
  _atom_site_type_symbol
  _atom_site_label
  _atom_site_symmetry_multiplicity
  _atom_site_fract_x
  _atom_site_fract_y
  _atom_site_fract_z
  _atom_site_occupancy
  As  As1       1.0  0.05560  0.25000  0.29200  1.0000
  As  As2       1.0  0.94400  0.75000  0.70800  1.0000
  C   C1        1.0  0.33900  0.75000  0.12400  1.0000
  C   C2        1.0  0.66100  0.25000  0.87600  1.0000
  F   F1        1.0  0.24700  0.25000  0.11400  1.0000
  F   F2        1.0  0.82300  0.05890  0.20500  1.0000
  F   F3        1.0  0.82300  0.44100  0.20500  1.0000
  F   F4        1.0  0.31600  0.07290  0.39100  1.0000
  F   F5        1.0  0.31600  0.42700  0.39100  1.0000
  F   F6        1.0  0.88600  0.25000  0.47800  1.0000
  F   F7        1.0  0.11400  0.75000  0.52200  1.0000
  F   F8        1.0  0.68400  0.57300  0.60900  1.0000
  F   F9        1.0  0.68400  0.92700  0.60900  1.0000
  F   F10       1.0  0.17700  0.55900  0.79500  1.0000
  F   F11       1.0  0.17700  0.94100  0.79500  1.0000
  F   F12       1.0  0.75300  0.75000  0.88600  1.0000
  H   H1        1.0  0.41100  0.61700  0.06340  1.0000
  H   H2        1.0  0.41100  0.88300  0.06340  1.0000
  H   H3        1.0  0.09830  0.75000  0.13100  1.0000
  H   H4        1.0  0.44100  0.62800  0.35500  1.0000
  H   H5        1.0  0.44100  0.87200  0.35500  1.0000
  H   H6        1.0  0.55900  0.12800  0.64500  1.0000
  H   H7        1.0  0.55900  0.37200  0.64500  1.0000
  H   H8        1.0  0.90200  0.25000  0.86900  1.0000
  H   H9        1.0  0.58900  0.11700  0.93700  1.0000
  H   H10       1.0  0.58900  0.38300  0.93700  1.0000
  O   O1        1.0  0.50300  0.75000  0.29500  1.0000
  O   O2        1.0  0.49700  0.25000  0.70500  1.0000
