data_image0
_chemical_formula_structural       Cu5O10P2
_chemical_formula_sum              "Cu5 O10 P2"
_cell_length_a       7.58374
_cell_length_b       5.23685
_cell_length_c       5.14886
_cell_angle_alpha    110.867
_cell_angle_beta     89.6021
_cell_angle_gamma    82.9057

_space_group_name_H-M_alt    "P 1"
_space_group_IT_number       1

loop_
  _space_group_symop_operation_xyz
  'x, y, z'

loop_
  _atom_site_type_symbol
  _atom_site_label
  _atom_site_symmetry_multiplicity
  _atom_site_fract_x
  _atom_site_fract_y
  _atom_site_fract_z
  _atom_site_occupancy
  Cu  Cu1       1.0  0.00000  0.00000  0.00000  1.0000
  Cu  Cu2       1.0  0.36000  0.25300  0.11900  1.0000
  Cu  Cu3       1.0  0.94500  0.61700  0.29500  1.0000
  Cu  Cu4       1.0  0.05530  0.38300  0.70500  1.0000
  Cu  Cu5       1.0  0.64000  0.74700  0.88100  1.0000
  O   O1        1.0  0.11600  0.32500  0.04560  1.0000
  O   O2        1.0  0.59900  0.09650  0.19200  1.0000
  O   O3        1.0  0.39300  0.62400  0.29200  1.0000
  O   O4        1.0  0.88700  0.24500  0.37800  1.0000
  O   O5        1.0  0.24200  0.11200  0.47700  1.0000
  O   O6        1.0  0.75800  0.88800  0.52300  1.0000
  O   O7        1.0  0.11300  0.75500  0.62200  1.0000
  O   O8        1.0  0.60700  0.37600  0.70800  1.0000
  O   O9        1.0  0.40100  0.90400  0.80800  1.0000
  O   O10       1.0  0.88400  0.67500  0.95400  1.0000
  P   P1        1.0  0.70800  0.15400  0.45800  1.0000
  P   P2        1.0  0.29200  0.84600  0.54200  1.0000
