data_image0
_chemical_formula_structural       La2Li2O10Ti3
_chemical_formula_sum              "La2 Li2 O10 Ti3"
_cell_length_a       3.85724
_cell_length_b       3.85724
_cell_length_c       13.3821
_cell_angle_alpha    98.2863
_cell_angle_beta     98.2863
_cell_angle_gamma    90

_space_group_name_H-M_alt    "P 1"
_space_group_IT_number       1

loop_
  _space_group_symop_operation_xyz
  'x, y, z'

loop_
  _atom_site_type_symbol
  _atom_site_label
  _atom_site_symmetry_multiplicity
  _atom_site_fract_x
  _atom_site_fract_y
  _atom_site_fract_z
  _atom_site_occupancy
  La  La1       1.0  0.58100  0.58100  0.16300  1.0000
  La  La2       1.0  0.41900  0.41900  0.83700  1.0000
  Li  Li1       1.0  0.75000  0.25000  0.50000  1.0000
  Li  Li2       1.0  0.25000  0.75000  0.50000  1.0000
  O   O1        1.0  0.50000  0.00000  0.00000  1.0000
  O   O2        1.0  0.00000  0.50000  0.00000  1.0000
  O   O3        1.0  0.07360  0.07360  0.14700  1.0000
  O   O4        1.0  0.64400  0.14400  0.28700  1.0000
  O   O5        1.0  0.14400  0.64400  0.28700  1.0000
  O   O6        1.0  0.22700  0.22700  0.45500  1.0000
  O   O7        1.0  0.77300  0.77300  0.54500  1.0000
  O   O8        1.0  0.85600  0.35600  0.71300  1.0000
  O   O9        1.0  0.35600  0.85600  0.71300  1.0000
  O   O10       1.0  0.92600  0.92600  0.85300  1.0000
  Ti  Ti1       1.0  0.00000  0.00000  0.00000  1.0000
  Ti  Ti2       1.0  0.15900  0.15900  0.31800  1.0000
  Ti  Ti3       1.0  0.84100  0.84100  0.68200  1.0000
