data_image0
_chemical_formula_structural       Al13Os4
_chemical_formula_sum              "Al13 Os4"
_cell_length_a       4.23558
_cell_length_b       7.81246
_cell_length_c       9.11485
_cell_angle_alpha    115.013
_cell_angle_beta     103.435
_cell_angle_gamma    90

_space_group_name_H-M_alt    "P 1"
_space_group_IT_number       1

loop_
  _space_group_symop_operation_xyz
  'x, y, z'

loop_
  _atom_site_type_symbol
  _atom_site_label
  _atom_site_symmetry_multiplicity
  _atom_site_fract_x
  _atom_site_fract_y
  _atom_site_fract_z
  _atom_site_occupancy
  Al  Al1       1.0  0.50000  0.00000  0.00000  1.0000
  Al  Al2       1.0  0.08520  0.56800  0.17000  1.0000
  Al  Al3       1.0  0.58800  0.79900  0.17600  1.0000
  Al  Al4       1.0  0.58800  0.36600  0.17600  1.0000
  Al  Al5       1.0  0.13000  0.15600  0.26000  1.0000
  Al  Al6       1.0  0.20800  0.91500  0.41600  1.0000
  Al  Al7       1.0  0.74000  0.38300  0.48000  1.0000
  Al  Al8       1.0  0.26000  0.61700  0.52000  1.0000
  Al  Al9       1.0  0.79200  0.08460  0.58400  1.0000
  Al  Al10      1.0  0.87000  0.84400  0.74000  1.0000
  Al  Al11      1.0  0.41200  0.63400  0.82400  1.0000
  Al  Al12      1.0  0.41200  0.20100  0.82400  1.0000
  Al  Al13      1.0  0.91500  0.43200  0.83000  1.0000
  Os  Os1       1.0  0.00831  0.80400  0.01660  1.0000
  Os  Os2       1.0  0.70600  0.70800  0.41200  1.0000
  Os  Os3       1.0  0.29400  0.29200  0.58800  1.0000
  Os  Os4       1.0  0.99200  0.19600  0.98300  1.0000
