data_image0
_chemical_formula_structural       Cr6H2O16
_chemical_formula_sum              "Cr6 H2 O16"
_cell_length_a       13.2292
_cell_length_b       3.76079
_cell_length_c       6.03814
_cell_angle_alpha    90
_cell_angle_beta     111.415
_cell_angle_gamma    90

_space_group_name_H-M_alt    "P 1"
_space_group_IT_number       1

loop_
  _space_group_symop_operation_xyz
  'x, y, z'

loop_
  _atom_site_type_symbol
  _atom_site_label
  _atom_site_symmetry_multiplicity
  _atom_site_fract_x
  _atom_site_fract_y
  _atom_site_fract_z
  _atom_site_occupancy
  Cr  Cr1       1.0  0.84900  0.75000  0.99500  1.0000
  Cr  Cr2       1.0  0.15100  0.25000  0.00470  1.0000
  Cr  Cr3       1.0  0.09810  0.75000  0.32500  1.0000
  Cr  Cr4       1.0  0.52400  0.75000  0.33700  1.0000
  Cr  Cr5       1.0  0.47600  0.25000  0.66300  1.0000
  Cr  Cr6       1.0  0.90200  0.25000  0.67500  1.0000
  H   H1        1.0  0.67800  0.75000  0.21800  1.0000
  H   H2        1.0  0.32200  0.25000  0.78200  1.0000
  O   O1        1.0  0.27500  0.25000  0.03020  1.0000
  O   O2        1.0  0.13900  0.75000  0.06090  1.0000
  O   O3        1.0  0.43400  0.75000  0.07760  1.0000
  O   O4        1.0  0.10000  0.25000  0.25500  1.0000
  O   O5        1.0  0.95500  0.75000  0.28300  1.0000
  O   O6        1.0  0.66300  0.75000  0.36700  1.0000
  O   O7        1.0  0.81200  0.25000  0.41400  1.0000
  O   O8        1.0  0.52900  0.25000  0.41500  1.0000
  O   O9        1.0  0.47100  0.75000  0.58500  1.0000
  O   O10       1.0  0.18800  0.75000  0.58600  1.0000
  O   O11       1.0  0.33700  0.25000  0.63300  1.0000
  O   O12       1.0  0.04540  0.25000  0.71700  1.0000
  O   O13       1.0  0.90000  0.75000  0.74500  1.0000
  O   O14       1.0  0.56600  0.25000  0.92200  1.0000
  O   O15       1.0  0.86100  0.25000  0.93900  1.0000
  O   O16       1.0  0.72500  0.75000  0.97000  1.0000
