data_image0
_chemical_formula_structural       Fe4LaP12
_chemical_formula_sum              "Fe4 La1 P12"
_cell_length_a       6.75514
_cell_length_b       6.75514
_cell_length_c       6.75514
_cell_angle_alpha    109.471
_cell_angle_beta     109.471
_cell_angle_gamma    109.471

_space_group_name_H-M_alt    "P 1"
_space_group_IT_number       1

loop_
  _space_group_symop_operation_xyz
  'x, y, z'

loop_
  _atom_site_type_symbol
  _atom_site_label
  _atom_site_symmetry_multiplicity
  _atom_site_fract_x
  _atom_site_fract_y
  _atom_site_fract_z
  _atom_site_occupancy
  Fe  Fe1       1.0  0.50000  0.00000  0.00000  1.0000
  Fe  Fe2       1.0  0.00000  0.50000  0.00000  1.0000
  Fe  Fe3       1.0  0.00000  0.00000  0.50000  1.0000
  Fe  Fe4       1.0  0.50000  0.50000  0.50000  1.0000
  La  La1       1.0  0.00000  0.00000  0.00000  1.0000
  P   P1        1.0  0.50600  0.35400  0.15300  1.0000
  P   P2        1.0  0.79900  0.64600  0.15300  1.0000
  P   P3        1.0  0.35400  0.84700  0.20100  1.0000
  P   P4        1.0  0.84700  0.20100  0.35400  1.0000
  P   P5        1.0  0.15300  0.50600  0.35400  1.0000
  P   P6        1.0  0.64600  0.84700  0.49400  1.0000
  P   P7        1.0  0.35400  0.15300  0.50600  1.0000
  P   P8        1.0  0.84700  0.49400  0.64600  1.0000
  P   P9        1.0  0.15300  0.79900  0.64600  1.0000
  P   P10       1.0  0.64600  0.15300  0.79900  1.0000
  P   P11       1.0  0.20100  0.35400  0.84700  1.0000
  P   P12       1.0  0.49400  0.64600  0.84700  1.0000
