data_image0
_chemical_formula_structural       Na4O9Si3Sr
_chemical_formula_sum              "Na4 O9 Si3 Sr1"
_cell_length_a       6.50218
_cell_length_b       6.58131
_cell_length_c       6.58376
_cell_angle_alpha    109.768
_cell_angle_beta     109.283
_cell_angle_gamma    109.102

_space_group_name_H-M_alt    "P 1"
_space_group_IT_number       1

loop_
  _space_group_symop_operation_xyz
  'x, y, z'

loop_
  _atom_site_type_symbol
  _atom_site_label
  _atom_site_symmetry_multiplicity
  _atom_site_fract_x
  _atom_site_fract_y
  _atom_site_fract_z
  _atom_site_occupancy
  Na  Na1       1.0  0.51600  0.01610  0.03220  1.0000
  Na  Na2       1.0  0.99700  0.01380  0.47600  1.0000
  Na  Na3       1.0  0.48000  0.46200  0.47600  1.0000
  Na  Na4       1.0  0.49600  0.49600  0.99300  1.0000
  O   O1        1.0  0.21000  0.23200  0.07150  1.0000
  O   O2        1.0  0.86200  0.84000  0.07150  1.0000
  O   O3        1.0  0.79000  0.42000  0.25500  1.0000
  O   O4        1.0  0.46500  0.83600  0.25500  1.0000
  O   O5        1.0  0.26000  0.76000  0.51900  1.0000
  O   O6        1.0  0.52400  0.23500  0.65200  1.0000
  O   O7        1.0  0.12800  0.41700  0.65200  1.0000
  O   O8        1.0  0.99100  0.74900  0.73400  1.0000
  O   O9        1.0  0.74300  0.98500  0.73400  1.0000
  Si  Si1       1.0  0.02990  0.56100  0.52700  1.0000
  Si  Si2       1.0  0.49700  0.96600  0.52700  1.0000
  Si  Si3       1.0  0.96500  0.96500  0.92900  1.0000
  Sr  Sr1       1.0  0.99600  0.49600  0.99200  1.0000
