data_image0
_chemical_formula_structural       Ag2La2O10Ti3
_chemical_formula_sum              "Ag2 La2 O10 Ti3"
_cell_length_a       3.84116
_cell_length_b       3.84116
_cell_length_c       14.5751
_cell_angle_alpha    97.572
_cell_angle_beta     97.572
_cell_angle_gamma    90

_space_group_name_H-M_alt    "P 1"
_space_group_IT_number       1

loop_
  _space_group_symop_operation_xyz
  'x, y, z'

loop_
  _atom_site_type_symbol
  _atom_site_label
  _atom_site_symmetry_multiplicity
  _atom_site_fract_x
  _atom_site_fract_y
  _atom_site_fract_z
  _atom_site_occupancy
  Ag  Ag1       1.0  0.71100  0.71100  0.42200  1.0000
  Ag  Ag2       1.0  0.28900  0.28900  0.57800  1.0000
  La  La1       1.0  0.57500  0.57500  0.15000  1.0000
  La  La2       1.0  0.42500  0.42500  0.85000  1.0000
  O   O1        1.0  0.50000  0.00000  0.00000  1.0000
  O   O2        1.0  0.00000  0.50000  0.00000  1.0000
  O   O3        1.0  0.06780  0.06780  0.13600  1.0000
  O   O4        1.0  0.63200  0.13200  0.26400  1.0000
  O   O5        1.0  0.13200  0.63200  0.26400  1.0000
  O   O6        1.0  0.21000  0.21000  0.42000  1.0000
  O   O7        1.0  0.79000  0.79000  0.58000  1.0000
  O   O8        1.0  0.86800  0.36800  0.73600  1.0000
  O   O9        1.0  0.36800  0.86800  0.73600  1.0000
  O   O10       1.0  0.93200  0.93200  0.86400  1.0000
  Ti  Ti1       1.0  0.00000  0.00000  0.00000  1.0000
  Ti  Ti2       1.0  0.14800  0.14800  0.29500  1.0000
  Ti  Ti3       1.0  0.85200  0.85200  0.70500  1.0000
