data_image0
_chemical_formula_structural       CuH6O14Pb4S2
_chemical_formula_sum              "Cu1 H6 O14 Pb4 S2"
_cell_length_a       5.74311
_cell_length_b       7.90437
_cell_length_c       7.94164
_cell_angle_alpha    112.252
_cell_angle_beta     97.4671
_cell_angle_gamma    100.427

_space_group_name_H-M_alt    "P 1"
_space_group_IT_number       1

loop_
  _space_group_symop_operation_xyz
  'x, y, z'

loop_
  _atom_site_type_symbol
  _atom_site_label
  _atom_site_symmetry_multiplicity
  _atom_site_fract_x
  _atom_site_fract_y
  _atom_site_fract_z
  _atom_site_occupancy
  Cu  Cu1       1.0  0.00000  0.00000  0.00000  1.0000
  H   H1        1.0  0.15600  0.34800  0.20100  1.0000
  H   H2        1.0  0.78400  0.08380  0.25700  1.0000
  H   H3        1.0  0.83300  0.41800  0.45000  1.0000
  H   H4        1.0  0.16700  0.58200  0.55000  1.0000
  H   H5        1.0  0.21600  0.91600  0.74300  1.0000
  H   H6        1.0  0.84400  0.65200  0.79900  1.0000
  O   O1        1.0  0.72200  0.04390  0.12300  1.0000
  O   O2        1.0  0.21200  0.23300  0.18900  1.0000
  O   O3        1.0  0.79800  0.68600  0.19100  1.0000
  O   O4        1.0  0.16400  0.57100  0.21400  1.0000
  O   O5        1.0  0.19700  0.88500  0.22800  1.0000
  O   O6        1.0  0.68300  0.44000  0.39800  1.0000
  O   O7        1.0  0.08940  0.81500  0.48600  1.0000
  O   O8        1.0  0.91100  0.18500  0.51400  1.0000
  O   O9        1.0  0.31700  0.56000  0.60200  1.0000
  O   O10       1.0  0.80300  0.11500  0.77200  1.0000
  O   O11       1.0  0.83600  0.42900  0.78600  1.0000
  O   O12       1.0  0.20200  0.31400  0.80900  1.0000
  O   O13       1.0  0.78800  0.76700  0.81100  1.0000
  O   O14       1.0  0.27800  0.95600  0.87700  1.0000
  Pb  Pb1       1.0  0.56100  0.27500  0.04560  1.0000
  Pb  Pb2       1.0  0.37900  0.24900  0.48700  1.0000
  Pb  Pb3       1.0  0.62100  0.75100  0.51300  1.0000
  Pb  Pb4       1.0  0.43900  0.72500  0.95400  1.0000
  S   S1        1.0  0.06040  0.73800  0.27800  1.0000
  S   S2        1.0  0.94000  0.26200  0.72200  1.0000
