data_image0
_chemical_formula_structural       H4K2O18S4Ti2
_chemical_formula_sum              "H4 K2 O18 S4 Ti2"
_cell_length_a       7.49768
_cell_length_b       5.25257
_cell_length_c       8.9276
_cell_angle_alpha    90
_cell_angle_beta     101.205
_cell_angle_gamma    90

_space_group_name_H-M_alt    "P 1"
_space_group_IT_number       1

loop_
  _space_group_symop_operation_xyz
  'x, y, z'

loop_
  _atom_site_type_symbol
  _atom_site_label
  _atom_site_symmetry_multiplicity
  _atom_site_fract_x
  _atom_site_fract_y
  _atom_site_fract_z
  _atom_site_occupancy
  H   H1        1.0  0.02750  0.75000  0.99400  1.0000
  H   H2        1.0  0.97300  0.25000  0.00552  1.0000
  H   H3        1.0  0.19700  0.25000  0.04170  1.0000
  H   H4        1.0  0.80300  0.75000  0.95800  1.0000
  K   K1        1.0  0.42600  0.75000  0.28600  1.0000
  K   K2        1.0  0.57400  0.25000  0.71400  1.0000
  O   O1        1.0  0.74800  0.25000  0.01110  1.0000
  O   O2        1.0  0.91400  0.75000  0.03720  1.0000
  O   O3        1.0  0.46200  0.25000  0.10500  1.0000
  O   O4        1.0  0.72100  0.02090  0.24400  1.0000
  O   O5        1.0  0.72100  0.47900  0.24400  1.0000
  O   O6        1.0  0.11500  0.02080  0.28400  1.0000
  O   O7        1.0  0.11500  0.47900  0.28400  1.0000
  O   O8        1.0  0.36400  0.25000  0.43800  1.0000
  O   O9        1.0  0.94000  0.75000  0.49500  1.0000
  O   O10       1.0  0.06010  0.25000  0.50500  1.0000
  O   O11       1.0  0.63600  0.75000  0.56200  1.0000
  O   O12       1.0  0.88500  0.52100  0.71600  1.0000
  O   O13       1.0  0.88500  0.97900  0.71600  1.0000
  O   O14       1.0  0.27900  0.52100  0.75600  1.0000
  O   O15       1.0  0.27900  0.97900  0.75600  1.0000
  O   O16       1.0  0.53800  0.75000  0.89500  1.0000
  O   O17       1.0  0.08650  0.25000  0.96300  1.0000
  O   O18       1.0  0.25200  0.75000  0.98900  1.0000
  S   S1        1.0  0.65900  0.25000  0.14400  1.0000
  S   S2        1.0  0.16900  0.25000  0.38300  1.0000
  S   S3        1.0  0.83100  0.75000  0.61700  1.0000
  S   S4        1.0  0.34100  0.75000  0.85600  1.0000
  Ti  Ti1       1.0  0.91400  0.75000  0.26400  1.0000
  Ti  Ti2       1.0  0.08640  0.25000  0.73600  1.0000
