data_image0
_chemical_formula_structural       Ca2H8O14Se4
_chemical_formula_sum              "Ca2 H8 O14 Se4"
_cell_length_a       6.84296
_cell_length_b       7.28974
_cell_length_c       6.63215
_cell_angle_alpha    89.6774
_cell_angle_beta     91.4528
_cell_angle_gamma    107.997

_space_group_name_H-M_alt    "P 1"
_space_group_IT_number       1

loop_
  _space_group_symop_operation_xyz
  'x, y, z'

loop_
  _atom_site_type_symbol
  _atom_site_label
  _atom_site_symmetry_multiplicity
  _atom_site_fract_x
  _atom_site_fract_y
  _atom_site_fract_z
  _atom_site_occupancy
  Ca  Ca1       1.0  0.22800  0.92500  0.11900  1.0000
  Ca  Ca2       1.0  0.77200  0.07540  0.88100  1.0000
  H   H1        1.0  0.46500  0.66100  0.00408  1.0000
  H   H2        1.0  0.79100  0.52100  0.29700  1.0000
  H   H3        1.0  0.56500  0.38700  0.33400  1.0000
  H   H4        1.0  0.76000  0.28300  0.47000  1.0000
  H   H5        1.0  0.24000  0.71700  0.53000  1.0000
  H   H6        1.0  0.43500  0.61300  0.66600  1.0000
  H   H7        1.0  0.20900  0.47900  0.70300  1.0000
  H   H8        1.0  0.53500  0.33900  0.99600  1.0000
  O   O1        1.0  0.91400  0.64800  0.10000  1.0000
  O   O2        1.0  0.35300  0.64800  0.10900  1.0000
  O   O3        1.0  0.36700  0.28800  0.15700  1.0000
  O   O4        1.0  0.58400  0.02570  0.19500  1.0000
  O   O5        1.0  0.96600  0.05360  0.21000  1.0000
  O   O6        1.0  0.70200  0.44200  0.40500  1.0000
  O   O7        1.0  0.20300  0.83900  0.46500  1.0000
  O   O8        1.0  0.79700  0.16100  0.53500  1.0000
  O   O9        1.0  0.29800  0.55800  0.59500  1.0000
  O   O10       1.0  0.03390  0.94600  0.79000  1.0000
  O   O11       1.0  0.41600  0.97400  0.80500  1.0000
  O   O12       1.0  0.63300  0.71200  0.84300  1.0000
  O   O13       1.0  0.64700  0.35200  0.89100  1.0000
  O   O14       1.0  0.08640  0.35200  0.90000  1.0000
  Se  Se1       1.0  0.18200  0.40500  0.14000  1.0000
  Se  Se2       1.0  0.75300  0.96900  0.35400  1.0000
  Se  Se3       1.0  0.24700  0.03100  0.64600  1.0000
  Se  Se4       1.0  0.81800  0.59500  0.86000  1.0000
