data_image0
_chemical_formula_structural       AlC4F4H2Na7O12
_chemical_formula_sum              "Al1 C4 F4 H2 Na7 O12"
_cell_length_a       6.36233
_cell_length_b       6.66427
_cell_length_c       8.74364
_cell_angle_alpha    92.3497
_cell_angle_beta     97.5234
_cell_angle_gamma    120.067

_space_group_name_H-M_alt    "P 1"
_space_group_IT_number       1

loop_
  _space_group_symop_operation_xyz
  'x, y, z'

loop_
  _atom_site_type_symbol
  _atom_site_label
  _atom_site_symmetry_multiplicity
  _atom_site_fract_x
  _atom_site_fract_y
  _atom_site_fract_z
  _atom_site_occupancy
  Al  Al1       1.0  0.00000  0.50000  0.00000  1.0000
  C   C1        1.0  0.20300  0.38900  0.28700  1.0000
  C   C2        1.0  0.71400  0.88700  0.30000  1.0000
  C   C3        1.0  0.28600  0.11300  0.70000  1.0000
  C   C4        1.0  0.79700  0.61100  0.71300  1.0000
  F   F1        1.0  0.15600  0.79000  0.10900  1.0000
  F   F2        1.0  0.74800  0.38900  0.11000  1.0000
  F   F3        1.0  0.25200  0.61100  0.89000  1.0000
  F   F4        1.0  0.84400  0.21000  0.89100  1.0000
  H   H1        1.0  0.76200  0.76400  0.49900  1.0000
  H   H2        1.0  0.23800  0.23600  0.50100  1.0000
  Na  Na1       1.0  0.00000  0.00000  0.00000  1.0000
  Na  Na2       1.0  0.50000  0.00000  0.00000  1.0000
  Na  Na3       1.0  0.50000  0.50000  0.00000  1.0000
  Na  Na4       1.0  0.22300  0.88000  0.35800  1.0000
  Na  Na5       1.0  0.72000  0.38400  0.35900  1.0000
  Na  Na6       1.0  0.28000  0.61600  0.64100  1.0000
  Na  Na7       1.0  0.77700  0.12000  0.64200  1.0000
  O   O1        1.0  0.17600  0.39000  0.13500  1.0000
  O   O2        1.0  0.70900  0.86700  0.15500  1.0000
  O   O3        1.0  0.28700  0.25800  0.34300  1.0000
  O   O4        1.0  0.64800  0.00923  0.37300  1.0000
  O   O5        1.0  0.15100  0.50800  0.37500  1.0000
  O   O6        1.0  0.79900  0.76700  0.38300  1.0000
  O   O7        1.0  0.20100  0.23300  0.61700  1.0000
  O   O8        1.0  0.84900  0.49200  0.62500  1.0000
  O   O9        1.0  0.35200  0.99100  0.62700  1.0000
  O   O10       1.0  0.71300  0.74200  0.65700  1.0000
  O   O11       1.0  0.29100  0.13300  0.84500  1.0000
  O   O12       1.0  0.82400  0.61000  0.86500  1.0000
