data_image0
_chemical_formula_structural       As2H8Na2O12Zn2
_chemical_formula_sum              "As2 H8 Na2 O12 Zn2"
_cell_length_a       5.64224
_cell_length_b       6.05038
_cell_length_c       7.74086
_cell_angle_alpha    87.3168
_cell_angle_beta     89.2435
_cell_angle_gamma    91.3683

_space_group_name_H-M_alt    "P 1"
_space_group_IT_number       1

loop_
  _space_group_symop_operation_xyz
  'x, y, z'

loop_
  _atom_site_type_symbol
  _atom_site_label
  _atom_site_symmetry_multiplicity
  _atom_site_fract_x
  _atom_site_fract_y
  _atom_site_fract_z
  _atom_site_occupancy
  As  As1       1.0  0.81200  0.25000  0.38000  1.0000
  As  As2       1.0  0.18800  0.75000  0.62000  1.0000
  H   H1        1.0  0.86600  0.38800  0.02760  1.0000
  H   H2        1.0  0.46000  0.09080  0.14900  1.0000
  H   H3        1.0  0.06150  0.60200  0.17000  1.0000
  H   H4        1.0  0.24700  0.20700  0.23200  1.0000
  H   H5        1.0  0.75300  0.79300  0.76800  1.0000
  H   H6        1.0  0.93800  0.39800  0.83000  1.0000
  H   H7        1.0  0.54000  0.90900  0.85100  1.0000
  H   H8        1.0  0.13400  0.61200  0.97200  1.0000
  Na  Na1       1.0  0.50000  0.50000  1.00000  1.0000
  Na  Na2       1.0  0.00000  0.00000  0.00000  1.0000
  O   O1        1.0  0.17000  0.67700  0.08370  1.0000
  O   O2        1.0  0.32200  0.18100  0.11600  1.0000
  O   O3        1.0  0.77300  0.48700  0.24700  1.0000
  O   O4        1.0  0.74000  0.03050  0.25300  1.0000
  O   O5        1.0  0.11100  0.24000  0.41500  1.0000
  O   O6        1.0  0.34500  0.73500  0.43300  1.0000
  O   O7        1.0  0.65500  0.26500  0.56700  1.0000
  O   O8        1.0  0.88900  0.75900  0.58500  1.0000
  O   O9        1.0  0.26000  0.97000  0.74700  1.0000
  O   O10       1.0  0.22700  0.51300  0.75300  1.0000
  O   O11       1.0  0.67800  0.81900  0.88400  1.0000
  O   O12       1.0  0.83000  0.32300  0.91600  1.0000
  Zn  Zn1       1.0  0.68400  0.74400  0.38400  1.0000
  Zn  Zn2       1.0  0.31600  0.25600  0.61600  1.0000
