data_image0
_chemical_formula_structural       Ga6Ge6MnY4
_chemical_formula_sum              "Ga6 Ge6 Mn1 Y4"
_cell_length_a       7.52326
_cell_length_b       7.52326
_cell_length_c       7.52326
_cell_angle_alpha    109.471
_cell_angle_beta     109.471
_cell_angle_gamma    109.471

_space_group_name_H-M_alt    "P 1"
_space_group_IT_number       1

loop_
  _space_group_symop_operation_xyz
  'x, y, z'

loop_
  _atom_site_type_symbol
  _atom_site_label
  _atom_site_symmetry_multiplicity
  _atom_site_fract_x
  _atom_site_fract_y
  _atom_site_fract_z
  _atom_site_occupancy
  Ga  Ga1       1.0  0.75000  0.50000  0.25000  1.0000
  Ga  Ga2       1.0  0.50000  0.75000  0.25000  1.0000
  Ga  Ga3       1.0  0.75000  0.25000  0.50000  1.0000
  Ga  Ga4       1.0  0.25000  0.75000  0.50000  1.0000
  Ga  Ga5       1.0  0.50000  0.25000  0.75000  1.0000
  Ga  Ga6       1.0  0.25000  0.50000  0.75000  1.0000
  Ge  Ge1       1.0  0.28900  0.28900  0.00000  1.0000
  Ge  Ge2       1.0  0.71100  0.71100  0.00000  1.0000
  Ge  Ge3       1.0  0.28900  0.00000  0.28900  1.0000
  Ge  Ge4       1.0  0.00000  0.28900  0.28900  1.0000
  Ge  Ge5       1.0  0.71100  0.00000  0.71100  1.0000
  Ge  Ge6       1.0  0.00000  0.71100  0.71100  1.0000
  Mn  Mn1       1.0  0.00000  0.00000  0.00000  1.0000
  Y   Y1        1.0  0.50000  0.00000  0.00000  1.0000
  Y   Y2        1.0  0.00000  0.50000  0.00000  1.0000
  Y   Y3        1.0  0.00000  0.00000  0.50000  1.0000
  Y   Y4        1.0  0.50000  0.50000  0.50000  1.0000
