data_image0
_chemical_formula_structural       Br6C2Cd2H12N6
_chemical_formula_sum              "Br6 C2 Cd2 H12 N6"
_cell_length_a       7.49878
_cell_length_b       7.38856
_cell_length_c       8.80515
_cell_angle_alpha    65.1933
_cell_angle_beta     97.7056
_cell_angle_gamma    108.638

_space_group_name_H-M_alt    "P 1"
_space_group_IT_number       1

loop_
  _space_group_symop_operation_xyz
  'x, y, z'

loop_
  _atom_site_type_symbol
  _atom_site_label
  _atom_site_symmetry_multiplicity
  _atom_site_fract_x
  _atom_site_fract_y
  _atom_site_fract_z
  _atom_site_occupancy
  Br  Br1       1.0  0.13600  0.20000  0.08460  1.0000
  Br  Br2       1.0  0.36400  0.71600  0.08460  1.0000
  Br  Br3       1.0  0.75000  0.78800  0.42500  1.0000
  Br  Br4       1.0  0.25000  0.21200  0.57500  1.0000
  Br  Br5       1.0  0.63600  0.28400  0.91500  1.0000
  Br  Br6       1.0  0.86400  0.80000  0.91500  1.0000
  C   C1        1.0  0.75000  0.30700  0.38600  1.0000
  C   C2        1.0  0.25000  0.69300  0.61400  1.0000
  Cd  Cd1       1.0  0.75000  0.95000  0.10000  1.0000
  Cd  Cd2       1.0  0.25000  0.05010  0.90000  1.0000
  H   H1        1.0  0.58400  0.34800  0.17700  1.0000
  H   H2        1.0  0.91600  0.47600  0.17700  1.0000
  H   H3        1.0  0.46700  0.27700  0.36300  1.0000
  H   H4        1.0  0.03270  0.36000  0.36300  1.0000
  H   H5        1.0  0.12700  0.77300  0.38300  1.0000
  H   H6        1.0  0.37300  0.84400  0.38300  1.0000
  H   H7        1.0  0.62700  0.15600  0.61700  1.0000
  H   H8        1.0  0.87300  0.22700  0.61700  1.0000
  H   H9        1.0  0.96700  0.64000  0.63700  1.0000
  H   H10       1.0  0.53300  0.72300  0.63700  1.0000
  H   H11       1.0  0.08370  0.52400  0.82300  1.0000
  H   H12       1.0  0.41600  0.65200  0.82300  1.0000
  N   N1        1.0  0.58700  0.30600  0.30300  1.0000
  N   N2        1.0  0.91300  0.39100  0.30300  1.0000
  N   N3        1.0  0.25000  0.77600  0.44700  1.0000
  N   N4        1.0  0.75000  0.22400  0.55300  1.0000
  N   N5        1.0  0.08710  0.60900  0.69700  1.0000
  N   N6        1.0  0.41300  0.69400  0.69700  1.0000
