data_image0
_chemical_formula_structural       H16Mo2N4O4S4
_chemical_formula_sum              "H16 Mo2 N4 O4 S4"
_cell_length_a       6.68839
_cell_length_b       6.68839
_cell_length_c       9.1229
_cell_angle_alpha    110.988
_cell_angle_beta     93.7484
_cell_angle_gamma    114.979

_space_group_name_H-M_alt    "P 1"
_space_group_IT_number       1

loop_
  _space_group_symop_operation_xyz
  'x, y, z'

loop_
  _atom_site_type_symbol
  _atom_site_label
  _atom_site_symmetry_multiplicity
  _atom_site_fract_x
  _atom_site_fract_y
  _atom_site_fract_z
  _atom_site_occupancy
  H   H1        1.0  0.79000  0.84500  0.03130  1.0000
  H   H2        1.0  0.03190  0.05930  0.18200  1.0000
  H   H3        1.0  0.85600  0.79300  0.19200  1.0000
  H   H4        1.0  0.77000  0.00402  0.22000  1.0000
  H   H5        1.0  0.28400  0.55000  0.28000  1.0000
  H   H6        1.0  0.10100  0.66400  0.30800  1.0000
  H   H7        1.0  0.37700  0.85000  0.31800  1.0000
  H   H8        1.0  0.31300  0.75900  0.46900  1.0000
  H   H9        1.0  0.68700  0.24100  0.53100  1.0000
  H   H10       1.0  0.62300  0.15000  0.68200  1.0000
  H   H11       1.0  0.89900  0.33600  0.69200  1.0000
  H   H12       1.0  0.71600  0.45000  0.72000  1.0000
  H   H13       1.0  0.23000  0.99600  0.78000  1.0000
  H   H14       1.0  0.14400  0.20700  0.80800  1.0000
  H   H15       1.0  0.96800  0.94100  0.81800  1.0000
  H   H16       1.0  0.21000  0.15500  0.96900  1.0000
  Mo  Mo1       1.0  0.58800  0.33800  0.25000  1.0000
  Mo  Mo2       1.0  0.41200  0.66200  0.75000  1.0000
  N   N1        1.0  0.86300  0.92600  0.15700  1.0000
  N   N2        1.0  0.26900  0.70600  0.34300  1.0000
  N   N3        1.0  0.73100  0.29400  0.65700  1.0000
  N   N4        1.0  0.13700  0.07420  0.84300  1.0000
  O   O1        1.0  0.30200  0.27800  0.17900  1.0000
  O   O2        1.0  0.59900  0.12300  0.32100  1.0000
  O   O3        1.0  0.40100  0.87700  0.67900  1.0000
  O   O4        1.0  0.69800  0.72200  0.82100  1.0000
  S   S1        1.0  0.75900  0.33100  0.05250  1.0000
  S   S2        1.0  0.77900  0.70600  0.44700  1.0000
  S   S3        1.0  0.22100  0.29400  0.55300  1.0000
  S   S4        1.0  0.24100  0.66900  0.94800  1.0000
