data_image0
_chemical_formula_structural       F14H2K6Nb2O2
_chemical_formula_sum              "F14 H2 K6 Nb2 O2"
_cell_length_a       6.63391
_cell_length_b       8.00514
_cell_length_c       8.00514
_cell_angle_alpha    114.807
_cell_angle_beta     92.1258
_cell_angle_gamma    92.1258

_space_group_name_H-M_alt    "P 1"
_space_group_IT_number       1

loop_
  _space_group_symop_operation_xyz
  'x, y, z'

loop_
  _atom_site_type_symbol
  _atom_site_label
  _atom_site_symmetry_multiplicity
  _atom_site_fract_x
  _atom_site_fract_y
  _atom_site_fract_z
  _atom_site_occupancy
  F   F1        1.0  0.83600  0.40600  0.03910  1.0000
  F   F2        1.0  0.53600  0.76800  0.13400  1.0000
  F   F3        1.0  0.96400  0.86600  0.23200  1.0000
  F   F4        1.0  0.25000  0.67900  0.32100  1.0000
  F   F5        1.0  0.51800  0.39500  0.35200  1.0000
  F   F6        1.0  0.01840  0.35200  0.39500  1.0000
  F   F7        1.0  0.33600  0.03910  0.40600  1.0000
  F   F8        1.0  0.66400  0.96100  0.59400  1.0000
  F   F9        1.0  0.98200  0.64800  0.60500  1.0000
  F   F10       1.0  0.48200  0.60500  0.64800  1.0000
  F   F11       1.0  0.75000  0.32100  0.67900  1.0000
  F   F12       1.0  0.03590  0.13400  0.76800  1.0000
  F   F13       1.0  0.46400  0.23200  0.86600  1.0000
  F   F14       1.0  0.16400  0.59400  0.96100  1.0000
  H   H1        1.0  0.50000  0.50000  0.50000  1.0000
  H   H2        1.0  1.00000  0.50000  0.50000  1.0000
  K   K1        1.0  0.21600  0.32800  0.12400  1.0000
  K   K2        1.0  0.71600  0.12400  0.32800  1.0000
  K   K3        1.0  0.75000  0.65500  0.34500  1.0000
  K   K4        1.0  0.25000  0.34500  0.65500  1.0000
  K   K5        1.0  0.28400  0.87600  0.67200  1.0000
  K   K6        1.0  0.78400  0.67200  0.87600  1.0000
  Nb  Nb1       1.0  0.25000  0.83500  0.16500  1.0000
  Nb  Nb2       1.0  0.75000  0.16500  0.83500  1.0000
  O   O1        1.0  0.25000  0.96600  0.03400  1.0000
  O   O2        1.0  0.75000  0.03400  0.96600  1.0000
