data_image0
_chemical_formula_structural       Cs2N2Tb6Te7
_chemical_formula_sum              "Cs2 N2 Tb6 Te7"
_cell_length_a       4.22844
_cell_length_b       11.4906
_cell_length_c       12.276
_cell_angle_alpha    103.562
_cell_angle_beta     99.9171
_cell_angle_gamma    90

_space_group_name_H-M_alt    "P 1"
_space_group_IT_number       1

loop_
  _space_group_symop_operation_xyz
  'x, y, z'

loop_
  _atom_site_type_symbol
  _atom_site_label
  _atom_site_symmetry_multiplicity
  _atom_site_fract_x
  _atom_site_fract_y
  _atom_site_fract_z
  _atom_site_occupancy
  Cs  Cs1       1.0  0.06590  0.69800  0.13200  1.0000
  Cs  Cs2       1.0  0.93400  0.30200  0.86800  1.0000
  N   N1        1.0  0.13700  0.19400  0.27500  1.0000
  N   N2        1.0  0.86300  0.80600  0.72500  1.0000
  Tb  Tb1       1.0  0.59100  0.13600  0.18200  1.0000
  Tb  Tb2       1.0  0.16500  0.38800  0.33000  1.0000
  Tb  Tb3       1.0  0.21500  0.13000  0.43000  1.0000
  Tb  Tb4       1.0  0.78500  0.87000  0.57000  1.0000
  Tb  Tb5       1.0  0.83500  0.61200  0.67000  1.0000
  Tb  Tb6       1.0  0.40900  0.86400  0.81800  1.0000
  Te  Te1       1.0  0.00000  0.00000  0.00000  1.0000
  Te  Te2       1.0  0.57600  0.40400  0.15200  1.0000
  Te  Te3       1.0  0.66400  0.94300  0.32800  1.0000
  Te  Te4       1.0  0.24100  0.66200  0.48100  1.0000
  Te  Te5       1.0  0.75900  0.33800  0.51900  1.0000
  Te  Te6       1.0  0.33600  0.05750  0.67200  1.0000
  Te  Te7       1.0  0.42400  0.59600  0.84800  1.0000
