data_image0
_chemical_formula_structural       La4Ni3O10
_chemical_formula_sum              "La4 Ni3 O10"
_cell_length_a       3.82578
_cell_length_b       3.82578
_cell_length_c       14.146
_cell_angle_alpha    97.756
_cell_angle_beta     97.756
_cell_angle_gamma    90.1145

_space_group_name_H-M_alt    "P 1"
_space_group_IT_number       1

loop_
  _space_group_symop_operation_xyz
  'x, y, z'

loop_
  _atom_site_type_symbol
  _atom_site_label
  _atom_site_symmetry_multiplicity
  _atom_site_fract_x
  _atom_site_fract_y
  _atom_site_fract_z
  _atom_site_occupancy
  La  La1       1.0  0.56700  0.56700  0.13400  1.0000
  La  La2       1.0  0.69900  0.69900  0.39700  1.0000
  La  La3       1.0  0.30100  0.30100  0.60300  1.0000
  La  La4       1.0  0.43300  0.43300  0.86600  1.0000
  Ni  Ni1       1.0  0.00000  0.00000  0.00000  1.0000
  Ni  Ni2       1.0  0.14000  0.14000  0.28000  1.0000
  Ni  Ni3       1.0  0.86000  0.86000  0.72000  1.0000
  O   O1        1.0  0.50000  0.00000  0.00000  1.0000
  O   O2        1.0  0.00000  0.50000  0.00000  1.0000
  O   O3        1.0  0.06840  0.06840  0.13700  1.0000
  O   O4        1.0  0.63900  0.13900  0.27900  1.0000
  O   O5        1.0  0.13900  0.63900  0.27900  1.0000
  O   O6        1.0  0.21700  0.21700  0.43400  1.0000
  O   O7        1.0  0.78300  0.78300  0.56600  1.0000
  O   O8        1.0  0.86100  0.36100  0.72100  1.0000
  O   O9        1.0  0.36100  0.86100  0.72100  1.0000
  O   O10       1.0  0.93200  0.93200  0.86300  1.0000
