data_image0
_chemical_formula_structural       Bi4Br2O9Te2
_chemical_formula_sum              "Bi4 Br2 O9 Te2"
_cell_length_a       5.58737
_cell_length_b       5.59721
_cell_length_c       9.48188
_cell_angle_alpha    90
_cell_angle_beta     90
_cell_angle_gamma    90

_space_group_name_H-M_alt    "P 1"
_space_group_IT_number       1

loop_
  _space_group_symop_operation_xyz
  'x, y, z'

loop_
  _atom_site_type_symbol
  _atom_site_label
  _atom_site_symmetry_multiplicity
  _atom_site_fract_x
  _atom_site_fract_y
  _atom_site_fract_z
  _atom_site_occupancy
  Bi  Bi1       1.0  0.50000  0.50000  0.55300  1.0000
  Bi  Bi2       1.0  0.00000  0.00000  0.55400  1.0000
  Bi  Bi3       1.0  0.00000  0.50000  0.81000  1.0000
  Bi  Bi4       1.0  0.50000  0.00000  0.82300  1.0000
  Br  Br1       1.0  0.00000  0.00000  0.98300  1.0000
  Br  Br2       1.0  0.50000  0.50000  0.98400  1.0000
  O   O1        1.0  0.26000  0.24000  0.30900  1.0000
  O   O2        1.0  0.74000  0.24000  0.30900  1.0000
  O   O3        1.0  0.26000  0.76000  0.30900  1.0000
  O   O4        1.0  0.74000  0.76000  0.30900  1.0000
  O   O5        1.0  0.00000  0.50000  0.48100  1.0000
  O   O6        1.0  0.25500  0.24500  0.68600  1.0000
  O   O7        1.0  0.74500  0.24500  0.68600  1.0000
  O   O8        1.0  0.25500  0.75500  0.68600  1.0000
  O   O9        1.0  0.74500  0.75500  0.68600  1.0000
  Te  Te1       1.0  0.00000  0.50000  0.28000  1.0000
  Te  Te2       1.0  0.50000  0.00000  0.35700  1.0000
