data_image0
_chemical_formula_structural       Cl2Mn3O8Sr4
_chemical_formula_sum              "Cl2 Mn3 O8 Sr4"
_cell_length_a       3.8871
_cell_length_b       3.8871
_cell_length_c       16.2332
_cell_angle_alpha    96.8763
_cell_angle_beta     96.8763
_cell_angle_gamma    90

_space_group_name_H-M_alt    "P 1"
_space_group_IT_number       1

loop_
  _space_group_symop_operation_xyz
  'x, y, z'

loop_
  _atom_site_type_symbol
  _atom_site_label
  _atom_site_symmetry_multiplicity
  _atom_site_fract_x
  _atom_site_fract_y
  _atom_site_fract_z
  _atom_site_occupancy
  Cl  Cl1       1.0  0.21700  0.21700  0.43300  1.0000
  Cl  Cl2       1.0  0.78300  0.78300  0.56700  1.0000
  Mn  Mn1       1.0  0.00000  0.00000  0.00000  1.0000
  Mn  Mn2       1.0  0.12200  0.12200  0.24300  1.0000
  Mn  Mn3       1.0  0.87800  0.87800  0.75700  1.0000
  O   O1        1.0  0.50000  0.00000  0.00000  1.0000
  O   O2        1.0  0.00000  0.50000  0.00000  1.0000
  O   O3        1.0  0.06120  0.06120  0.12200  1.0000
  O   O4        1.0  0.63100  0.13100  0.26100  1.0000
  O   O5        1.0  0.13100  0.63100  0.26100  1.0000
  O   O6        1.0  0.86900  0.36900  0.73900  1.0000
  O   O7        1.0  0.36900  0.86900  0.73900  1.0000
  O   O8        1.0  0.93900  0.93900  0.87800  1.0000
  Sr  Sr1       1.0  0.55800  0.55800  0.11700  1.0000
  Sr  Sr2       1.0  0.68100  0.68100  0.36100  1.0000
  Sr  Sr3       1.0  0.31900  0.31900  0.63900  1.0000
  Sr  Sr4       1.0  0.44200  0.44200  0.88300  1.0000
