data_image0
_chemical_formula_structural       Cl6FeH12O6Pt
_chemical_formula_sum              "Cl6 Fe1 H12 O6 Pt1"
_cell_length_a       6.92054
_cell_length_b       6.92054
_cell_length_c       6.92054
_cell_angle_alpha    96.4555
_cell_angle_beta     96.4555
_cell_angle_gamma    96.4555

_space_group_name_H-M_alt    "P 1"
_space_group_IT_number       1

loop_
  _space_group_symop_operation_xyz
  'x, y, z'

loop_
  _atom_site_type_symbol
  _atom_site_label
  _atom_site_symmetry_multiplicity
  _atom_site_fract_x
  _atom_site_fract_y
  _atom_site_fract_z
  _atom_site_occupancy
  Cl  Cl1       1.0  0.70700  0.83900  0.07490  1.0000
  Cl  Cl2       1.0  0.92500  0.29300  0.16100  1.0000
  Cl  Cl3       1.0  0.16100  0.92500  0.29300  1.0000
  Cl  Cl4       1.0  0.83900  0.07490  0.70700  1.0000
  Cl  Cl5       1.0  0.07490  0.70700  0.83900  1.0000
  Cl  Cl6       1.0  0.29300  0.16100  0.92500  1.0000
  Fe  Fe1       1.0  0.50000  0.50000  0.50000  1.0000
  H   H1        1.0  0.32800  0.44900  0.11500  1.0000
  H   H2        1.0  0.29900  0.66200  0.21100  1.0000
  H   H3        1.0  0.66200  0.21100  0.29900  1.0000
  H   H4        1.0  0.44900  0.11500  0.32800  1.0000
  H   H5        1.0  0.78900  0.70100  0.33800  1.0000
  H   H6        1.0  0.11500  0.32800  0.44900  1.0000
  H   H7        1.0  0.88500  0.67200  0.55100  1.0000
  H   H8        1.0  0.21100  0.29900  0.66200  1.0000
  H   H9        1.0  0.55100  0.88500  0.67200  1.0000
  H   H10       1.0  0.33800  0.78900  0.70100  1.0000
  H   H11       1.0  0.70100  0.33800  0.78900  1.0000
  H   H12       1.0  0.67200  0.55100  0.88500  1.0000
  O   O1        1.0  0.38600  0.55900  0.21500  1.0000
  O   O2        1.0  0.55900  0.21500  0.38600  1.0000
  O   O3        1.0  0.78500  0.61400  0.44100  1.0000
  O   O4        1.0  0.21500  0.38600  0.55900  1.0000
  O   O5        1.0  0.44100  0.78500  0.61400  1.0000
  O   O6        1.0  0.61400  0.44100  0.78500  1.0000
  Pt  Pt1       1.0  0.00000  0.00000  0.00000  1.0000
