data_image0
_chemical_formula_structural       H12K2Na2O12Te2
_chemical_formula_sum              "H12 K2 Na2 O12 Te2"
_cell_length_a       6.49812
_cell_length_b       6.49811
_cell_length_c       8.70114
_cell_angle_alpha    89.9997
_cell_angle_beta     89.9997
_cell_angle_gamma    120

_space_group_name_H-M_alt    "P 1"
_space_group_IT_number       1

loop_
  _space_group_symop_operation_xyz
  'x, y, z'

loop_
  _atom_site_type_symbol
  _atom_site_label
  _atom_site_symmetry_multiplicity
  _atom_site_fract_x
  _atom_site_fract_y
  _atom_site_fract_z
  _atom_site_occupancy
  H   H1        1.0  0.56900  0.97600  0.00188  1.0000
  H   H2        1.0  0.40700  0.43100  0.00188  1.0000
  H   H3        1.0  0.02390  0.59300  0.00188  1.0000
  H   H4        1.0  0.31300  0.94000  0.01370  1.0000
  H   H5        1.0  0.06020  0.37300  0.01370  1.0000
  H   H6        1.0  0.62700  0.68700  0.01370  1.0000
  H   H7        1.0  0.97600  0.56900  0.50200  1.0000
  H   H8        1.0  0.43100  0.40700  0.50200  1.0000
  H   H9        1.0  0.59300  0.02390  0.50200  1.0000
  H   H10       1.0  0.94000  0.31300  0.51400  1.0000
  H   H11       1.0  0.37300  0.06020  0.51400  1.0000
  H   H12       1.0  0.68700  0.62700  0.51400  1.0000
  K   K1        1.0  0.66700  0.33300  0.20800  1.0000
  K   K2        1.0  0.33300  0.66700  0.70800  1.0000
  Na  Na1       1.0  0.33300  0.66700  0.28100  1.0000
  Na  Na2       1.0  0.66700  0.33300  0.78100  1.0000
  O   O1        1.0  0.70900  0.90700  0.14100  1.0000
  O   O2        1.0  0.09270  0.80200  0.14100  1.0000
  O   O3        1.0  0.19800  0.29100  0.14100  1.0000
  O   O4        1.0  0.00431  0.45400  0.44300  1.0000
  O   O5        1.0  0.54600  0.55000  0.44300  1.0000
  O   O6        1.0  0.45000  0.99600  0.44300  1.0000
  O   O7        1.0  0.90700  0.70900  0.64100  1.0000
  O   O8        1.0  0.80200  0.09270  0.64100  1.0000
  O   O9        1.0  0.29100  0.19800  0.64100  1.0000
  O   O10       1.0  0.45400  0.00431  0.94300  1.0000
  O   O11       1.0  0.55000  0.54600  0.94300  1.0000
  O   O12       1.0  0.99600  0.45000  0.94300  1.0000
  Te  Te1       1.0  0.00000  1.00000  0.24200  1.0000
  Te  Te2       1.0  0.00000  0.00000  0.74200  1.0000
