data_image0
_chemical_formula_structural       F8H12O6Zr2
_chemical_formula_sum              "F8 H12 O6 Zr2"
_cell_length_a       5.61628
_cell_length_b       6.51848
_cell_length_c       7.4813
_cell_angle_alpha    91.9551
_cell_angle_beta     104.061
_cell_angle_gamma    117.398

_space_group_name_H-M_alt    "P 1"
_space_group_IT_number       1

loop_
  _space_group_symop_operation_xyz
  'x, y, z'

loop_
  _atom_site_type_symbol
  _atom_site_label
  _atom_site_symmetry_multiplicity
  _atom_site_fract_x
  _atom_site_fract_y
  _atom_site_fract_z
  _atom_site_occupancy
  F   F1        1.0  0.81800  0.98600  0.06460  1.0000
  F   F2        1.0  0.24200  0.42400  0.10100  1.0000
  F   F3        1.0  0.05500  0.88800  0.35200  1.0000
  F   F4        1.0  0.54900  0.29000  0.48900  1.0000
  F   F5        1.0  0.45100  0.71000  0.51100  1.0000
  F   F6        1.0  0.94500  0.11200  0.64800  1.0000
  F   F7        1.0  0.75800  0.57600  0.89900  1.0000
  F   F8        1.0  0.18200  0.01440  0.93500  1.0000
  H   H1        1.0  0.71500  0.45500  0.06900  1.0000
  H   H2        1.0  0.58900  0.92900  0.16900  1.0000
  H   H3        1.0  0.83800  0.34500  0.24200  1.0000
  H   H4        1.0  0.44700  0.82800  0.33400  1.0000
  H   H5        1.0  0.21700  0.46800  0.44300  1.0000
  H   H6        1.0  0.01100  0.21600  0.48900  1.0000
  H   H7        1.0  0.98900  0.78400  0.51100  1.0000
  H   H8        1.0  0.78300  0.53200  0.55700  1.0000
  H   H9        1.0  0.55300  0.17200  0.66600  1.0000
  H   H10       1.0  0.16200  0.65500  0.75800  1.0000
  H   H11       1.0  0.41100  0.07060  0.83100  1.0000
  H   H12       1.0  0.28500  0.54500  0.93100  1.0000
  O   O1        1.0  0.67700  0.36900  0.17600  1.0000
  O   O2        1.0  0.44500  0.91700  0.22900  1.0000
  O   O3        1.0  0.07080  0.30200  0.38300  1.0000
  O   O4        1.0  0.92900  0.69800  0.61700  1.0000
  O   O5        1.0  0.55500  0.08310  0.77100  1.0000
  O   O6        1.0  0.32300  0.63100  0.82400  1.0000
  Zr  Zr1       1.0  0.26800  0.15600  0.22100  1.0000
  Zr  Zr2       1.0  0.73200  0.84400  0.77900  1.0000
