data_image0
_chemical_formula_structural       Na2Nd2O10Ti3
_chemical_formula_sum              "Na2 Nd2 O10 Ti3"
_cell_length_a       3.8277
_cell_length_b       3.8277
_cell_length_c       14.3835
_cell_angle_alpha    97.6464
_cell_angle_beta     97.6464
_cell_angle_gamma    90

_space_group_name_H-M_alt    "P 1"
_space_group_IT_number       1

loop_
  _space_group_symop_operation_xyz
  'x, y, z'

loop_
  _atom_site_type_symbol
  _atom_site_label
  _atom_site_symmetry_multiplicity
  _atom_site_fract_x
  _atom_site_fract_y
  _atom_site_fract_z
  _atom_site_occupancy
  Na  Na1       1.0  0.71000  0.71000  0.42100  1.0000
  Na  Na2       1.0  0.29000  0.29000  0.57900  1.0000
  Nd  Nd1       1.0  0.57600  0.57600  0.15100  1.0000
  Nd  Nd2       1.0  0.42400  0.42400  0.84900  1.0000
  O   O1        1.0  0.50000  0.00000  0.00000  1.0000
  O   O2        1.0  0.00000  0.50000  0.00000  1.0000
  O   O3        1.0  0.06840  0.06840  0.13700  1.0000
  O   O4        1.0  0.63300  0.13300  0.26600  1.0000
  O   O5        1.0  0.13300  0.63300  0.26600  1.0000
  O   O6        1.0  0.21100  0.21100  0.42100  1.0000
  O   O7        1.0  0.78900  0.78900  0.57900  1.0000
  O   O8        1.0  0.86700  0.36700  0.73400  1.0000
  O   O9        1.0  0.36700  0.86700  0.73400  1.0000
  O   O10       1.0  0.93200  0.93200  0.86300  1.0000
  Ti  Ti1       1.0  0.00000  0.00000  0.00000  1.0000
  Ti  Ti2       1.0  0.14800  0.14800  0.29600  1.0000
  Ti  Ti3       1.0  0.85200  0.85200  0.70400  1.0000
