data_image0
_chemical_formula_structural       B4F20H2Pr2
_chemical_formula_sum              "B4 F20 H2 Pr2"
_cell_length_a       6.81827
_cell_length_b       5.73716
_cell_length_c       8.49668
_cell_angle_alpha    90
_cell_angle_beta     112.152
_cell_angle_gamma    90

_space_group_name_H-M_alt    "P 1"
_space_group_IT_number       1

loop_
  _space_group_symop_operation_xyz
  'x, y, z'

loop_
  _atom_site_type_symbol
  _atom_site_label
  _atom_site_symmetry_multiplicity
  _atom_site_fract_x
  _atom_site_fract_y
  _atom_site_fract_z
  _atom_site_occupancy
  B   B1        1.0  0.75400  0.75000  0.04920  1.0000
  B   B2        1.0  0.40700  0.75000  0.30000  1.0000
  B   B3        1.0  0.59300  0.25000  0.70000  1.0000
  B   B4        1.0  0.24600  0.25000  0.95100  1.0000
  F   F1        1.0  0.94200  0.75000  0.01920  1.0000
  F   F2        1.0  0.41800  0.25000  0.10600  1.0000
  F   F3        1.0  0.33700  0.75000  0.12800  1.0000
  F   F4        1.0  0.74700  0.55100  0.14200  1.0000
  F   F5        1.0  0.74700  0.94900  0.14200  1.0000
  F   F6        1.0  0.08340  0.25000  0.26900  1.0000
  F   F7        1.0  0.24300  0.75000  0.36400  1.0000
  F   F8        1.0  0.53800  0.55200  0.37000  1.0000
  F   F9        1.0  0.53800  0.94800  0.37000  1.0000
  F   F10       1.0  0.00000  0.00000  0.50000  1.0000
  F   F11       1.0  0.00000  0.50000  0.50000  1.0000
  F   F12       1.0  0.46200  0.05230  0.63000  1.0000
  F   F13       1.0  0.46200  0.44800  0.63000  1.0000
  F   F14       1.0  0.75700  0.25000  0.63600  1.0000
  F   F15       1.0  0.91700  0.75000  0.73100  1.0000
  F   F16       1.0  0.25300  0.05130  0.85800  1.0000
  F   F17       1.0  0.25300  0.44900  0.85800  1.0000
  F   F18       1.0  0.66300  0.25000  0.87200  1.0000
  F   F19       1.0  0.58200  0.75000  0.89400  1.0000
  F   F20       1.0  0.05790  0.25000  0.98100  1.0000
  H   H1        1.0  0.07100  0.25000  0.15000  1.0000
  H   H2        1.0  0.92900  0.75000  0.85000  1.0000
  Pr  Pr1       1.0  0.75900  0.25000  0.34000  1.0000
  Pr  Pr2       1.0  0.24100  0.75000  0.66000  1.0000
