data_image0
_chemical_formula_structural       CuH12N4O8Re2
_chemical_formula_sum              "Cu1 H12 N4 O8 Re2"
_cell_length_a       6.33113
_cell_length_b       6.58732
_cell_length_c       7.32219
_cell_angle_alpha    67.2624
_cell_angle_beta     80.1333
_cell_angle_gamma    70.6405

_space_group_name_H-M_alt    "P 1"
_space_group_IT_number       1

loop_
  _space_group_symop_operation_xyz
  'x, y, z'

loop_
  _atom_site_type_symbol
  _atom_site_label
  _atom_site_symmetry_multiplicity
  _atom_site_fract_x
  _atom_site_fract_y
  _atom_site_fract_z
  _atom_site_occupancy
  Cu  Cu1       1.0  0.00000  0.00000  0.00000  1.0000
  H   H1        1.0  0.70400  0.80700  0.00206  1.0000
  H   H2        1.0  0.35000  0.92600  0.16200  1.0000
  H   H3        1.0  0.16600  0.13500  0.22200  1.0000
  H   H4        1.0  0.08820  0.61600  0.28300  1.0000
  H   H5        1.0  0.81500  0.73600  0.30100  1.0000
  H   H6        1.0  0.99000  0.81900  0.38200  1.0000
  H   H7        1.0  0.00982  0.18100  0.61800  1.0000
  H   H8        1.0  0.18500  0.26400  0.69900  1.0000
  H   H9        1.0  0.91200  0.38400  0.71700  1.0000
  H   H10       1.0  0.83400  0.86500  0.77800  1.0000
  H   H11       1.0  0.65000  0.07450  0.83800  1.0000
  H   H12       1.0  0.29600  0.19300  0.99800  1.0000
  N   N1        1.0  0.22500  0.07660  0.10600  1.0000
  N   N2        1.0  0.96700  0.77000  0.27200  1.0000
  N   N3        1.0  0.03290  0.23000  0.72800  1.0000
  N   N4        1.0  0.77500  0.92300  0.89400  1.0000
  O   O1        1.0  0.69300  0.30400  0.06070  1.0000
  O   O2        1.0  0.58200  0.63400  0.25900  1.0000
  O   O3        1.0  0.32300  0.31500  0.35000  1.0000
  O   O4        1.0  0.77800  0.15600  0.46300  1.0000
  O   O5        1.0  0.22200  0.84400  0.53700  1.0000
  O   O6        1.0  0.67700  0.68500  0.65000  1.0000
  O   O7        1.0  0.41800  0.36600  0.74100  1.0000
  O   O8        1.0  0.30700  0.69600  0.93900  1.0000
  Re  Re1       1.0  0.59000  0.35400  0.28300  1.0000
  Re  Re2       1.0  0.41000  0.64600  0.71700  1.0000
