data_image0
_chemical_formula_structural       As5Cs3O9
_chemical_formula_sum              "As5 Cs3 O9"
_cell_length_a       8.41591
_cell_length_b       8.41591
_cell_length_c       5.98878
_cell_angle_alpha    90.0007
_cell_angle_beta     89.9996
_cell_angle_gamma    120

_space_group_name_H-M_alt    "P 1"
_space_group_IT_number       1

loop_
  _space_group_symop_operation_xyz
  'x, y, z'

loop_
  _atom_site_type_symbol
  _atom_site_label
  _atom_site_symmetry_multiplicity
  _atom_site_fract_x
  _atom_site_fract_y
  _atom_site_fract_z
  _atom_site_occupancy
  As  As1       1.0  0.33300  0.66700  0.46800  1.0000
  As  As2       1.0  0.66700  0.33300  0.46800  1.0000
  As  As3       1.0  0.00000  0.75300  0.49700  1.0000
  As  As4       1.0  0.24700  0.24700  0.49700  1.0000
  As  As5       1.0  0.75300  0.00001  0.49700  1.0000
  Cs  Cs1       1.0  0.00000  0.37100  0.00386  1.0000
  Cs  Cs2       1.0  0.37100  0.00000  0.00386  1.0000
  Cs  Cs3       1.0  0.62900  0.62900  0.00386  1.0000
  O   O1        1.0  0.00000  0.68900  0.22600  1.0000
  O   O2        1.0  0.31100  0.31100  0.22600  1.0000
  O   O3        1.0  0.68900  0.00000  0.22600  1.0000
  O   O4        1.0  0.81000  0.53900  0.62900  1.0000
  O   O5        1.0  0.19000  0.72900  0.62900  1.0000
  O   O6        1.0  0.27100  0.46100  0.62900  1.0000
  O   O7        1.0  0.53900  0.81000  0.62900  1.0000
  O   O8        1.0  0.72900  0.19000  0.62900  1.0000
  O   O9        1.0  0.46100  0.27100  0.62900  1.0000
