data_image0
_chemical_formula_structural       Cu8K3Se6
_chemical_formula_sum              "Cu8 K3 Se6"
_cell_length_a       3.97576
_cell_length_b       9.21111
_cell_length_c       10.0342
_cell_angle_alpha    103.957
_cell_angle_beta     90
_cell_angle_gamma    102.463

_space_group_name_H-M_alt    "P 1"
_space_group_IT_number       1

loop_
  _space_group_symop_operation_xyz
  'x, y, z'

loop_
  _atom_site_type_symbol
  _atom_site_label
  _atom_site_symmetry_multiplicity
  _atom_site_fract_x
  _atom_site_fract_y
  _atom_site_fract_z
  _atom_site_occupancy
  Cu  Cu1       1.0  0.30000  0.60000  0.08480  1.0000
  Cu  Cu2       1.0  0.89000  0.78100  0.21900  1.0000
  Cu  Cu3       1.0  0.48100  0.96100  0.36200  1.0000
  Cu  Cu4       1.0  0.92000  0.84000  0.47400  1.0000
  Cu  Cu5       1.0  0.08010  0.16000  0.52600  1.0000
  Cu  Cu6       1.0  0.51900  0.03880  0.63800  1.0000
  Cu  Cu7       1.0  0.11000  0.21900  0.78100  1.0000
  Cu  Cu8       1.0  0.70000  0.40000  0.91500  1.0000
  K   K1        1.0  0.50000  0.00000  0.00000  1.0000
  K   K2        1.0  0.68800  0.37600  0.30400  1.0000
  K   K3        1.0  0.31200  0.62400  0.69600  1.0000
  Se  Se1       1.0  0.15800  0.31500  0.02510  1.0000
  Se  Se2       1.0  0.03590  0.07190  0.28300  1.0000
  Se  Se3       1.0  0.34100  0.68200  0.35600  1.0000
  Se  Se4       1.0  0.65900  0.31800  0.64400  1.0000
  Se  Se5       1.0  0.96400  0.92800  0.71700  1.0000
  Se  Se6       1.0  0.84200  0.68500  0.97500  1.0000
