data_image0
_chemical_formula_structural       AuF12Sb2Xe2
_chemical_formula_sum              "Au1 F12 Sb2 Xe2"
_cell_length_a       5.21742
_cell_length_b       6.94236
_cell_length_c       7.58902
_cell_angle_alpha    90.8844
_cell_angle_beta     89.3119
_cell_angle_gamma    99.1314

_space_group_name_H-M_alt    "P 1"
_space_group_IT_number       1

loop_
  _space_group_symop_operation_xyz
  'x, y, z'

loop_
  _atom_site_type_symbol
  _atom_site_label
  _atom_site_symmetry_multiplicity
  _atom_site_fract_x
  _atom_site_fract_y
  _atom_site_fract_z
  _atom_site_occupancy
  Au  Au1       1.0  0.00000  0.00000  0.00000  1.0000
  F   F1        1.0  0.39400  0.16600  0.03480  1.0000
  F   F2        1.0  0.86200  0.34200  0.12300  1.0000
  F   F3        1.0  0.45700  0.53400  0.17900  1.0000
  F   F4        1.0  0.62100  0.04600  0.32000  1.0000
  F   F5        1.0  0.20900  0.22900  0.36000  1.0000
  F   F6        1.0  0.70900  0.41200  0.46000  1.0000
  F   F7        1.0  0.29100  0.58800  0.54000  1.0000
  F   F8        1.0  0.79100  0.77100  0.64000  1.0000
  F   F9        1.0  0.37900  0.95400  0.68000  1.0000
  F   F10       1.0  0.54300  0.46600  0.82100  1.0000
  F   F11       1.0  0.13800  0.65800  0.87700  1.0000
  F   F12       1.0  0.60600  0.83400  0.96500  1.0000
  Sb  Sb1       1.0  0.54300  0.29400  0.25500  1.0000
  Sb  Sb2       1.0  0.45700  0.70600  0.74500  1.0000
  Xe  Xe1       1.0  0.04220  0.78100  0.28200  1.0000
  Xe  Xe2       1.0  0.95800  0.21900  0.71800  1.0000
