data_image0
_chemical_formula_structural       F6H12MnO6Ti
_chemical_formula_sum              "F6 H12 Mn1 O6 Ti1"
_cell_length_a       6.07914
_cell_length_b       6.07914
_cell_length_c       6.07914
_cell_angle_alpha    97.2883
_cell_angle_beta     97.2882
_cell_angle_gamma    97.2883

_space_group_name_H-M_alt    "P 1"
_space_group_IT_number       1

loop_
  _space_group_symop_operation_xyz
  'x, y, z'

loop_
  _atom_site_type_symbol
  _atom_site_label
  _atom_site_symmetry_multiplicity
  _atom_site_fract_x
  _atom_site_fract_y
  _atom_site_fract_z
  _atom_site_occupancy
  F   F1        1.0  0.37700  0.54300  0.21000  1.0000
  F   F2        1.0  0.54300  0.21000  0.37700  1.0000
  F   F3        1.0  0.79000  0.62300  0.45700  1.0000
  F   F4        1.0  0.21000  0.37700  0.54300  1.0000
  F   F5        1.0  0.45700  0.79000  0.62300  1.0000
  F   F6        1.0  0.62300  0.45700  0.79000  1.0000
  H   H1        1.0  0.61100  0.71800  0.99700  1.0000
  H   H2        1.0  0.38900  0.28200  0.00289  1.0000
  H   H3        1.0  0.76700  0.24600  0.23200  1.0000
  H   H4        1.0  0.75400  0.76800  0.23300  1.0000
  H   H5        1.0  0.23200  0.76700  0.24600  1.0000
  H   H6        1.0  0.00289  0.38900  0.28200  1.0000
  H   H7        1.0  0.28200  0.00289  0.38900  1.0000
  H   H8        1.0  0.71800  0.99700  0.61100  1.0000
  H   H9        1.0  0.99700  0.61100  0.71800  1.0000
  H   H10       1.0  0.76800  0.23300  0.75400  1.0000
  H   H11       1.0  0.24600  0.23200  0.76700  1.0000
  H   H12       1.0  0.23300  0.75400  0.76800  1.0000
  Mn  Mn1       1.0  0.00000  0.00000  0.00000  1.0000
  O   O1        1.0  0.70100  0.84000  0.10400  1.0000
  O   O2        1.0  0.89600  0.29900  0.16000  1.0000
  O   O3        1.0  0.16000  0.89600  0.29900  1.0000
  O   O4        1.0  0.84000  0.10400  0.70100  1.0000
  O   O5        1.0  0.10400  0.70100  0.84000  1.0000
  O   O6        1.0  0.29900  0.16000  0.89600  1.0000
  Ti  Ti1       1.0  0.50000  0.50000  0.50000  1.0000
