data_image0
_chemical_formula_structural       Bi2O11Ti4
_chemical_formula_sum              "Bi2 O11 Ti4"
_cell_length_a       3.80385
_cell_length_b       7.5696
_cell_length_c       7.68501
_cell_angle_alpha    90.4234
_cell_angle_beta     104.329
_cell_angle_gamma    75.448

_space_group_name_H-M_alt    "P 1"
_space_group_IT_number       1

loop_
  _space_group_symop_operation_xyz
  'x, y, z'

loop_
  _atom_site_type_symbol
  _atom_site_label
  _atom_site_symmetry_multiplicity
  _atom_site_fract_x
  _atom_site_fract_y
  _atom_site_fract_z
  _atom_site_occupancy
  Bi  Bi1       1.0  0.24700  0.64500  0.14000  1.0000
  Bi  Bi2       1.0  0.75300  0.35500  0.86000  1.0000
  O   O1        1.0  0.50000  0.00000  0.00000  1.0000
  O   O2        1.0  0.34100  0.36800  0.04950  1.0000
  O   O3        1.0  0.03520  0.16500  0.23500  1.0000
  O   O4        1.0  0.89300  0.54300  0.32800  1.0000
  O   O5        1.0  0.72900  0.89800  0.35600  1.0000
  O   O6        1.0  0.57400  0.28400  0.43200  1.0000
  O   O7        1.0  0.42600  0.71600  0.56800  1.0000
  O   O8        1.0  0.27100  0.10200  0.64400  1.0000
  O   O9        1.0  0.10700  0.45700  0.67200  1.0000
  O   O10       1.0  0.96500  0.83500  0.76500  1.0000
  O   O11       1.0  0.65900  0.63200  0.95000  1.0000
  Ti  Ti1       1.0  0.55200  0.11300  0.21700  1.0000
  Ti  Ti2       1.0  0.08610  0.29600  0.46800  1.0000
  Ti  Ti3       1.0  0.91400  0.70400  0.53200  1.0000
  Ti  Ti4       1.0  0.44800  0.88700  0.78300  1.0000
