data_image0
_chemical_formula_structural       F12H8O4PtSb2
_chemical_formula_sum              "F12 H8 O4 Pt1 Sb2"
_cell_length_a       4.76684
_cell_length_b       7.43605
_cell_length_c       8.24037
_cell_angle_alpha    69.6753
_cell_angle_beta     83.3453
_cell_angle_gamma    75.4702

_space_group_name_H-M_alt    "P 1"
_space_group_IT_number       1

loop_
  _space_group_symop_operation_xyz
  'x, y, z'

loop_
  _atom_site_type_symbol
  _atom_site_label
  _atom_site_symmetry_multiplicity
  _atom_site_fract_x
  _atom_site_fract_y
  _atom_site_fract_z
  _atom_site_occupancy
  F   F1        1.0  0.21600  0.38500  0.10900  1.0000
  F   F2        1.0  0.64700  0.46500  0.22700  1.0000
  F   F3        1.0  0.59000  0.09230  0.32900  1.0000
  F   F4        1.0  0.09760  0.58500  0.33200  1.0000
  F   F5        1.0  0.52700  0.70200  0.44000  1.0000
  F   F6        1.0  0.04760  0.20200  0.44300  1.0000
  F   F7        1.0  0.95200  0.79800  0.55700  1.0000
  F   F8        1.0  0.47300  0.29800  0.56000  1.0000
  F   F9        1.0  0.90200  0.41500  0.66800  1.0000
  F   F10       1.0  0.41000  0.90800  0.67100  1.0000
  F   F11       1.0  0.35300  0.53500  0.77300  1.0000
  F   F12       1.0  0.78400  0.61500  0.89100  1.0000
  H   H1        1.0  0.71300  0.75400  0.01140  1.0000
  H   H2        1.0  0.78800  0.71800  0.20200  1.0000
  H   H3        1.0  0.24500  0.85700  0.29800  1.0000
  H   H4        1.0  0.94900  0.01470  0.30300  1.0000
  H   H5        1.0  0.05110  0.98500  0.69700  1.0000
  H   H6        1.0  0.75500  0.14300  0.70200  1.0000
  H   H7        1.0  0.21200  0.28200  0.79800  1.0000
  H   H8        1.0  0.28700  0.24600  0.98900  1.0000
  O   O1        1.0  0.71500  0.82400  0.09470  1.0000
  O   O2        1.0  0.12300  0.98400  0.23100  1.0000
  O   O3        1.0  0.87700  0.01570  0.76900  1.0000
  O   O4        1.0  0.28500  0.17600  0.90500  1.0000
  Pt  Pt1       1.0  0.00000  0.00000  0.00000  1.0000
  Sb  Sb1       1.0  0.34500  0.33700  0.33500  1.0000
  Sb  Sb2       1.0  0.65500  0.66300  0.66500  1.0000
