data_image0
_chemical_formula_structural       Al2C6Cl4H16N2
_chemical_formula_sum              "Al2 C6 Cl4 H16 N2"
_cell_length_a       7.00981
_cell_length_b       7.24927
_cell_length_c       8.13274
_cell_angle_alpha    88.7863
_cell_angle_beta     66.8662
_cell_angle_gamma    68.8928

_space_group_name_H-M_alt    "P 1"
_space_group_IT_number       1

loop_
  _space_group_symop_operation_xyz
  'x, y, z'

loop_
  _atom_site_type_symbol
  _atom_site_label
  _atom_site_symmetry_multiplicity
  _atom_site_fract_x
  _atom_site_fract_y
  _atom_site_fract_z
  _atom_site_occupancy
  Al  Al1       1.0  0.44000  0.85900  0.10100  1.0000
  Al  Al2       1.0  0.56000  0.14100  0.89900  1.0000
  C   C1        1.0  0.11800  0.27300  0.19500  1.0000
  C   C2        1.0  0.43400  0.20100  0.28200  1.0000
  C   C3        1.0  0.95700  0.26000  0.38200  1.0000
  C   C4        1.0  0.04330  0.74000  0.61800  1.0000
  C   C5        1.0  0.56600  0.79900  0.71800  1.0000
  C   C6        1.0  0.88200  0.72700  0.80500  1.0000
  Cl  Cl1       1.0  0.17100  0.77800  0.11400  1.0000
  Cl  Cl2       1.0  0.60800  0.69600  0.25800  1.0000
  Cl  Cl3       1.0  0.39200  0.30400  0.74200  1.0000
  Cl  Cl4       1.0  0.82900  0.22200  0.88600  1.0000
  H   H1        1.0  0.07350  0.22600  0.09190  1.0000
  H   H2        1.0  0.10400  0.42800  0.18200  1.0000
  H   H3        1.0  0.61400  0.11400  0.24300  1.0000
  H   H4        1.0  0.40700  0.36100  0.28900  1.0000
  H   H5        1.0  0.97100  0.10600  0.39900  1.0000
  H   H6        1.0  0.78400  0.34800  0.40000  1.0000
  H   H7        1.0  0.34200  0.17100  0.41700  1.0000
  H   H8        1.0  0.98200  0.32100  0.49100  1.0000
  H   H9        1.0  0.01780  0.67900  0.50900  1.0000
  H   H10       1.0  0.65800  0.82900  0.58300  1.0000
  H   H11       1.0  0.21600  0.65200  0.60000  1.0000
  H   H12       1.0  0.02920  0.89400  0.60100  1.0000
  H   H13       1.0  0.59300  0.63900  0.71100  1.0000
  H   H14       1.0  0.38600  0.88600  0.75700  1.0000
  H   H15       1.0  0.89600  0.57200  0.81800  1.0000
  H   H16       1.0  0.92600  0.77400  0.90800  1.0000
  N   N1        1.0  0.36100  0.14500  0.14900  1.0000
  N   N2        1.0  0.63900  0.85500  0.85100  1.0000
