data_image0
_chemical_formula_structural       Cl4Fe2H16O8
_chemical_formula_sum              "Cl4 Fe2 H16 O8"
_cell_length_a       5.76371
_cell_length_b       6.97096
_cell_length_c       8.38672
_cell_angle_alpha    90
_cell_angle_beta     111.211
_cell_angle_gamma    90

_space_group_name_H-M_alt    "P 1"
_space_group_IT_number       1

loop_
  _space_group_symop_operation_xyz
  'x, y, z'

loop_
  _atom_site_type_symbol
  _atom_site_label
  _atom_site_symmetry_multiplicity
  _atom_site_fract_x
  _atom_site_fract_y
  _atom_site_fract_z
  _atom_site_occupancy
  Cl  Cl1       1.0  0.31800  0.26900  0.07840  1.0000
  Cl  Cl2       1.0  0.68200  0.76900  0.42200  1.0000
  Cl  Cl3       1.0  0.31800  0.23100  0.57800  1.0000
  Cl  Cl4       1.0  0.68200  0.73100  0.92200  1.0000
  Fe  Fe1       1.0  0.00000  0.00000  0.00000  1.0000
  Fe  Fe2       1.0  0.00000  0.50000  0.50000  1.0000
  H   H1        1.0  0.38600  0.78000  0.00207  1.0000
  H   H2        1.0  0.88800  0.57500  0.15000  1.0000
  H   H3        1.0  0.38600  0.78500  0.18900  1.0000
  H   H4        1.0  0.10600  0.42400  0.20400  1.0000
  H   H5        1.0  0.89400  0.92400  0.29600  1.0000
  H   H6        1.0  0.61400  0.28500  0.31100  1.0000
  H   H7        1.0  0.11200  0.07460  0.35000  1.0000
  H   H8        1.0  0.61400  0.28000  0.49800  1.0000
  H   H9        1.0  0.38600  0.72000  0.50200  1.0000
  H   H10       1.0  0.88800  0.92500  0.65000  1.0000
  H   H11       1.0  0.38600  0.71500  0.68900  1.0000
  H   H12       1.0  0.10600  0.07630  0.70400  1.0000
  H   H13       1.0  0.89400  0.57600  0.79600  1.0000
  H   H14       1.0  0.61400  0.21500  0.81100  1.0000
  H   H15       1.0  0.11200  0.42500  0.85000  1.0000
  H   H16       1.0  0.61400  0.22000  0.99800  1.0000
  O   O1        1.0  0.27400  0.79100  0.06760  1.0000
  O   O2        1.0  0.99800  0.49900  0.24800  1.0000
  O   O3        1.0  0.00179  0.99900  0.25200  1.0000
  O   O4        1.0  0.72600  0.29100  0.43200  1.0000
  O   O5        1.0  0.27400  0.70900  0.56800  1.0000
  O   O6        1.0  0.99800  0.00075  0.74800  1.0000
  O   O7        1.0  0.00179  0.50100  0.75200  1.0000
  O   O8        1.0  0.72600  0.20900  0.93200  1.0000
