data_image0
_chemical_formula_structural       As4H4K2O16Sc2
_chemical_formula_sum              "As4 H4 K2 O16 Sc2"
_cell_length_a       6.71362
_cell_length_b       6.71362
_cell_length_c       9.13456
_cell_angle_alpha    102.047
_cell_angle_beta     102.047
_cell_angle_gamma    104.356

_space_group_name_H-M_alt    "P 1"
_space_group_IT_number       1

loop_
  _space_group_symop_operation_xyz
  'x, y, z'

loop_
  _atom_site_type_symbol
  _atom_site_label
  _atom_site_symmetry_multiplicity
  _atom_site_fract_x
  _atom_site_fract_y
  _atom_site_fract_z
  _atom_site_occupancy
  As  As1       1.0  0.32500  0.13000  0.14300  1.0000
  As  As2       1.0  0.87000  0.67500  0.35700  1.0000
  As  As3       1.0  0.13000  0.32500  0.64300  1.0000
  As  As4       1.0  0.67500  0.87000  0.85700  1.0000
  H   H1        1.0  0.66100  0.68900  0.04250  1.0000
  H   H2        1.0  0.31100  0.33900  0.45700  1.0000
  H   H3        1.0  0.68900  0.66100  0.54300  1.0000
  H   H4        1.0  0.33900  0.31100  0.95800  1.0000
  K   K1        1.0  0.00000  0.50000  0.00000  1.0000
  K   K2        1.0  0.50000  1.00000  0.50000  1.0000
  O   O1        1.0  0.82100  0.08670  0.00921  1.0000
  O   O2        1.0  0.39100  0.35900  0.07580  1.0000
  O   O3        1.0  0.81400  0.80500  0.21900  1.0000
  O   O4        1.0  0.54500  0.08060  0.23500  1.0000
  O   O5        1.0  0.91900  0.45500  0.26500  1.0000
  O   O6        1.0  0.19500  0.18600  0.28100  1.0000
  O   O7        1.0  0.64100  0.60900  0.42400  1.0000
  O   O8        1.0  0.91300  0.17900  0.49100  1.0000
  O   O9        1.0  0.08670  0.82100  0.50900  1.0000
  O   O10       1.0  0.35900  0.39100  0.57600  1.0000
  O   O11       1.0  0.80500  0.81400  0.71900  1.0000
  O   O12       1.0  0.08060  0.54500  0.73500  1.0000
  O   O13       1.0  0.45500  0.91900  0.76500  1.0000
  O   O14       1.0  0.18600  0.19500  0.78100  1.0000
  O   O15       1.0  0.60900  0.64100  0.92400  1.0000
  O   O16       1.0  0.17900  0.91300  0.99100  1.0000
  Sc  Sc1       1.0  0.86400  0.13600  0.25000  1.0000
  Sc  Sc2       1.0  0.13600  0.86400  0.75000  1.0000
