data_image0
_chemical_formula_structural       Ga2In6O8Pt
_chemical_formula_sum              "Ga2 In6 O8 Pt1"
_cell_length_a       7.12181
_cell_length_b       7.12181
_cell_length_c       7.12181
_cell_angle_alpha    120
_cell_angle_beta     90
_cell_angle_gamma    120

_space_group_name_H-M_alt    "P 1"
_space_group_IT_number       1

loop_
  _space_group_symop_operation_xyz
  'x, y, z'

loop_
  _atom_site_type_symbol
  _atom_site_label
  _atom_site_symmetry_multiplicity
  _atom_site_fract_x
  _atom_site_fract_y
  _atom_site_fract_z
  _atom_site_occupancy
  Ga  Ga1       1.0  0.75000  0.50000  0.25000  1.0000
  Ga  Ga2       1.0  0.25000  0.50000  0.75000  1.0000
  In  In1       1.0  0.74700  0.00000  0.25300  1.0000
  In  In2       1.0  0.25300  0.00000  0.25300  1.0000
  In  In3       1.0  0.25300  0.50600  0.25300  1.0000
  In  In4       1.0  0.25300  0.00000  0.74700  1.0000
  In  In5       1.0  0.74700  0.00000  0.74700  1.0000
  In  In6       1.0  0.74700  0.49400  0.74700  1.0000
  O   O1        1.0  0.35900  0.71800  0.07670  1.0000
  O   O2        1.0  0.64100  0.28200  0.35900  1.0000
  O   O3        1.0  0.07670  0.71800  0.35900  1.0000
  O   O4        1.0  0.64100  0.71800  0.35900  1.0000
  O   O5        1.0  0.92300  0.28200  0.64100  1.0000
  O   O6        1.0  0.35900  0.28200  0.64100  1.0000
  O   O7        1.0  0.35900  0.71800  0.64100  1.0000
  O   O8        1.0  0.64100  0.28200  0.92300  1.0000
  Pt  Pt1       1.0  0.00000  0.00000  0.00000  1.0000
