data_image0
_chemical_formula_structural       B3La2Na3O9
_chemical_formula_sum              "B3 La2 Na3 O9"
_cell_length_a       5.12679
_cell_length_b       6.70137
_cell_length_c       6.70137
_cell_angle_alpha    65.1762
_cell_angle_beta     90
_cell_angle_gamma    90

_space_group_name_H-M_alt    "P 1"
_space_group_IT_number       1

loop_
  _space_group_symop_operation_xyz
  'x, y, z'

loop_
  _atom_site_type_symbol
  _atom_site_label
  _atom_site_symmetry_multiplicity
  _atom_site_fract_x
  _atom_site_fract_y
  _atom_site_fract_z
  _atom_site_occupancy
  B   B1        1.0  0.50000  0.29200  0.27700  1.0000
  B   B2        1.0  0.50000  0.72300  0.70800  1.0000
  B   B3        1.0  0.00000  0.05630  0.94400  1.0000
  La  La1       1.0  0.00000  0.04110  0.38400  1.0000
  La  La2       1.0  0.00000  0.61600  0.95900  1.0000
  Na  Na1       1.0  0.50000  0.70900  0.29100  1.0000
  Na  Na2       1.0  0.00000  0.45800  0.54200  1.0000
  Na  Na3       1.0  0.50000  0.13400  0.86600  1.0000
  O   O1        1.0  0.00000  0.86300  0.13700  1.0000
  O   O2        1.0  0.50000  0.10200  0.24300  1.0000
  O   O3        1.0  0.26600  0.38300  0.30200  1.0000
  O   O4        1.0  0.73400  0.38300  0.30200  1.0000
  O   O5        1.0  0.26600  0.69800  0.61700  1.0000
  O   O6        1.0  0.73400  0.69800  0.61700  1.0000
  O   O7        1.0  0.00000  0.04510  0.74400  1.0000
  O   O8        1.0  0.50000  0.75700  0.89800  1.0000
  O   O9        1.0  0.00000  0.25600  0.95500  1.0000
