data_image0
_chemical_formula_structural       B6Eu3Rh8
_chemical_formula_sum              "B6 Eu3 Rh8"
_cell_length_a       5.55513
_cell_length_b       5.6522
_cell_length_c       8.99551
_cell_angle_alpha    98.7275
_cell_angle_beta     107.985
_cell_angle_gamma    60.5665

_space_group_name_H-M_alt    "P 1"
_space_group_IT_number       1

loop_
  _space_group_symop_operation_xyz
  'x, y, z'

loop_
  _atom_site_type_symbol
  _atom_site_label
  _atom_site_symmetry_multiplicity
  _atom_site_fract_x
  _atom_site_fract_y
  _atom_site_fract_z
  _atom_site_occupancy
  B   B1        1.0  0.83400  0.33100  0.00000  1.0000
  B   B2        1.0  0.16600  0.66900  0.00000  1.0000
  B   B3        1.0  0.00947  0.32200  0.34100  1.0000
  B   B4        1.0  0.33200  0.67800  0.34100  1.0000
  B   B5        1.0  0.66800  0.32200  0.65900  1.0000
  B   B6        1.0  0.99100  0.67800  0.65900  1.0000
  Eu  Eu1       1.0  0.50000  0.00000  0.00000  1.0000
  Eu  Eu2       1.0  0.68100  0.00000  0.36200  1.0000
  Eu  Eu3       1.0  0.31900  0.00000  0.63800  1.0000
  Rh  Rh1       1.0  0.08470  0.50000  0.16900  1.0000
  Rh  Rh2       1.0  0.58500  0.50000  0.16900  1.0000
  Rh  Rh3       1.0  0.08670  0.00000  0.17300  1.0000
  Rh  Rh4       1.0  0.25000  0.50000  0.50000  1.0000
  Rh  Rh5       1.0  0.75000  0.50000  0.50000  1.0000
  Rh  Rh6       1.0  0.91300  0.00000  0.82700  1.0000
  Rh  Rh7       1.0  0.41500  0.50000  0.83100  1.0000
  Rh  Rh8       1.0  0.91500  0.50000  0.83100  1.0000
