data_image0
_chemical_formula_structural       C4Cl6H16N2Pd2
_chemical_formula_sum              "C4 Cl6 H16 N2 Pd2"
_cell_length_a       7.12919
_cell_length_b       7.65687
_cell_length_c       7.65687
_cell_angle_alpha    118.506
_cell_angle_beta     89.9321
_cell_angle_gamma    89.9321

_space_group_name_H-M_alt    "P 1"
_space_group_IT_number       1

loop_
  _space_group_symop_operation_xyz
  'x, y, z'

loop_
  _atom_site_type_symbol
  _atom_site_label
  _atom_site_symmetry_multiplicity
  _atom_site_fract_x
  _atom_site_fract_y
  _atom_site_fract_z
  _atom_site_occupancy
  C   C1        1.0  0.10200  0.60800  0.23100  1.0000
  C   C2        1.0  0.39800  0.76900  0.39200  1.0000
  C   C3        1.0  0.60200  0.23100  0.60800  1.0000
  C   C4        1.0  0.89800  0.39200  0.76900  1.0000
  Cl  Cl1       1.0  0.75000  0.88700  0.11300  1.0000
  Cl  Cl2       1.0  0.60700  0.32700  0.18100  1.0000
  Cl  Cl3       1.0  0.10700  0.18100  0.32700  1.0000
  Cl  Cl4       1.0  0.89300  0.81900  0.67300  1.0000
  Cl  Cl5       1.0  0.39300  0.67300  0.81900  1.0000
  Cl  Cl6       1.0  0.25000  0.11300  0.88700  1.0000
  H   H1        1.0  0.16800  0.56000  0.08590  1.0000
  H   H2        1.0  0.99800  0.49900  0.22300  1.0000
  H   H3        1.0  0.46400  0.71600  0.24600  1.0000
  H   H4        1.0  0.03640  0.75400  0.28400  1.0000
  H   H5        1.0  0.31200  0.48800  0.32900  1.0000
  H   H6        1.0  0.33200  0.91400  0.44000  1.0000
  H   H7        1.0  0.81200  0.32900  0.48800  1.0000
  H   H8        1.0  0.49800  0.22300  0.49900  1.0000
  H   H9        1.0  0.50200  0.77700  0.50100  1.0000
  H   H10       1.0  0.18800  0.67100  0.51200  1.0000
  H   H11       1.0  0.66800  0.08590  0.56000  1.0000
  H   H12       1.0  0.68800  0.51200  0.67100  1.0000
  H   H13       1.0  0.96400  0.24600  0.71600  1.0000
  H   H14       1.0  0.53600  0.28400  0.75400  1.0000
  H   H15       1.0  0.00233  0.50100  0.77700  1.0000
  H   H16       1.0  0.83200  0.44000  0.91400  1.0000
  N   N1        1.0  0.25000  0.62600  0.37400  1.0000
  N   N2        1.0  0.75000  0.37400  0.62600  1.0000
  Pd  Pd1       1.0  0.50000  0.00000  0.00000  1.0000
  Pd  Pd2       1.0  0.00000  0.00000  0.00000  1.0000
