data_image0
_chemical_formula_structural       Al10Ba7
_chemical_formula_sum              "Al10 Ba7"
_cell_length_a       6.07817
_cell_length_b       6.07817
_cell_length_c       16.7804
_cell_angle_alpha    100.434
_cell_angle_beta     79.5657
_cell_angle_gamma    120

_space_group_name_H-M_alt    "P 1"
_space_group_IT_number       1

loop_
  _space_group_symop_operation_xyz
  'x, y, z'

loop_
  _atom_site_type_symbol
  _atom_site_label
  _atom_site_symmetry_multiplicity
  _atom_site_fract_x
  _atom_site_fract_y
  _atom_site_fract_z
  _atom_site_occupancy
  Al  Al1       1.0  0.28400  0.71600  0.14800  1.0000
  Al  Al2       1.0  0.89100  0.58200  0.27400  1.0000
  Al  Al3       1.0  0.41800  0.10900  0.27400  1.0000
  Al  Al4       1.0  0.41800  0.58200  0.27400  1.0000
  Al  Al5       1.0  0.20100  0.79900  0.39700  1.0000
  Al  Al6       1.0  0.79900  0.20100  0.60300  1.0000
  Al  Al7       1.0  0.58200  0.41800  0.72600  1.0000
  Al  Al8       1.0  0.58200  0.89100  0.72600  1.0000
  Al  Al9       1.0  0.10900  0.41800  0.72600  1.0000
  Al  Al10      1.0  0.71600  0.28400  0.85200  1.0000
  Ba  Ba1       1.0  0.64000  0.36000  0.07920  1.0000
  Ba  Ba2       1.0  0.94800  0.05240  0.15700  1.0000
  Ba  Ba3       1.0  0.87100  0.12900  0.38700  1.0000
  Ba  Ba4       1.0  0.50000  0.50000  0.50000  1.0000
  Ba  Ba5       1.0  0.12900  0.87100  0.61300  1.0000
  Ba  Ba6       1.0  0.05240  0.94800  0.84300  1.0000
  Ba  Ba7       1.0  0.36000  0.64000  0.92100  1.0000
