data_image0
_chemical_formula_structural       H2O16P4Rb2Zn4
_chemical_formula_sum              "H2 O16 P4 Rb2 Zn4"
_cell_length_a       5.20281
_cell_length_b       8.78645
_cell_length_c       9.67563
_cell_angle_alpha    75.6991
_cell_angle_beta     77.4564
_cell_angle_gamma    73.2706

_space_group_name_H-M_alt    "P 1"
_space_group_IT_number       1

loop_
  _space_group_symop_operation_xyz
  'x, y, z'

loop_
  _atom_site_type_symbol
  _atom_site_label
  _atom_site_symmetry_multiplicity
  _atom_site_fract_x
  _atom_site_fract_y
  _atom_site_fract_z
  _atom_site_occupancy
  H   H1        1.0  0.94600  0.07130  0.10500  1.0000
  H   H2        1.0  0.05420  0.92900  0.89500  1.0000
  O   O1        1.0  0.93600  0.19100  0.05670  1.0000
  O   O2        1.0  0.42300  0.70700  0.10200  1.0000
  O   O3        1.0  0.99500  0.60700  0.17400  1.0000
  O   O4        1.0  0.96900  0.89900  0.18300  1.0000
  O   O5        1.0  0.54900  0.40900  0.35500  1.0000
  O   O6        1.0  0.64700  0.11200  0.38000  1.0000
  O   O7        1.0  0.52000  0.77200  0.39800  1.0000
  O   O8        1.0  0.95900  0.23600  0.46800  1.0000
  O   O9        1.0  0.04070  0.76400  0.53200  1.0000
  O   O10       1.0  0.48000  0.22800  0.60200  1.0000
  O   O11       1.0  0.35300  0.88800  0.62000  1.0000
  O   O12       1.0  0.45100  0.59100  0.64500  1.0000
  O   O13       1.0  0.03070  0.10100  0.81700  1.0000
  O   O14       1.0  0.00527  0.39300  0.82600  1.0000
  O   O15       1.0  0.57700  0.29300  0.89800  1.0000
  O   O16       1.0  0.06450  0.80900  0.94300  1.0000
  P   P1        1.0  0.11500  0.75300  0.10600  1.0000
  P   P2        1.0  0.66800  0.24700  0.45000  1.0000
  P   P3        1.0  0.33200  0.75300  0.55000  1.0000
  P   P4        1.0  0.88500  0.24700  0.89400  1.0000
  Rb  Rb1       1.0  0.29200  0.28800  0.18000  1.0000
  Rb  Rb2       1.0  0.70800  0.71200  0.82000  1.0000
  Zn  Zn1       1.0  0.61900  0.61600  0.26600  1.0000
  Zn  Zn2       1.0  0.81200  0.88400  0.39000  1.0000
  Zn  Zn3       1.0  0.18800  0.11600  0.61000  1.0000
  Zn  Zn4       1.0  0.38100  0.38400  0.73400  1.0000
