data_image0
_chemical_formula_structural       C4FeH12O6S4
_chemical_formula_sum              "C4 Fe1 H12 O6 S4"
_cell_length_a       6.30406
_cell_length_b       6.95827
_cell_length_c       7.57951
_cell_angle_alpha    70.0326
_cell_angle_beta     71.4421
_cell_angle_gamma    79.5669

_space_group_name_H-M_alt    "P 1"
_space_group_IT_number       1

loop_
  _space_group_symop_operation_xyz
  'x, y, z'

loop_
  _atom_site_type_symbol
  _atom_site_label
  _atom_site_symmetry_multiplicity
  _atom_site_fract_x
  _atom_site_fract_y
  _atom_site_fract_z
  _atom_site_occupancy
  C   C1        1.0  0.11100  0.94500  0.39200  1.0000
  C   C2        1.0  0.89000  0.05740  0.41500  1.0000
  C   C3        1.0  0.11000  0.94300  0.58500  1.0000
  C   C4        1.0  0.88900  0.05470  0.60800  1.0000
  Fe  Fe1       1.0  0.00000  0.00000  0.00000  1.0000
  H   H1        1.0  0.80100  0.66800  0.04610  1.0000
  H   H2        1.0  0.11500  0.53400  0.11800  1.0000
  H   H3        1.0  0.26800  0.36300  0.22600  1.0000
  H   H4        1.0  0.78400  0.67400  0.27100  1.0000
  H   H5        1.0  0.32600  0.53200  0.41000  1.0000
  H   H6        1.0  0.45000  0.30900  0.43700  1.0000
  H   H7        1.0  0.55000  0.69100  0.56300  1.0000
  H   H8        1.0  0.67400  0.46800  0.59000  1.0000
  H   H9        1.0  0.21600  0.32600  0.72900  1.0000
  H   H10       1.0  0.73200  0.63700  0.77400  1.0000
  H   H11       1.0  0.88500  0.46600  0.88200  1.0000
  H   H12       1.0  0.19900  0.33200  0.95400  1.0000
  O   O1        1.0  0.24400  0.43100  0.09740  1.0000
  O   O2        1.0  0.87200  0.71000  0.12900  1.0000
  O   O3        1.0  0.30600  0.38500  0.48300  1.0000
  O   O4        1.0  0.69400  0.61500  0.51700  1.0000
  O   O5        1.0  0.12800  0.29000  0.87100  1.0000
  O   O6        1.0  0.75600  0.56900  0.90300  1.0000
  S   S1        1.0  0.28100  0.86500  0.20900  1.0000
  S   S2        1.0  0.72600  0.14200  0.26800  1.0000
  S   S3        1.0  0.27400  0.85800  0.73200  1.0000
  S   S4        1.0  0.71900  0.13500  0.79100  1.0000
