data_image0
_chemical_formula_structural       F12P4Pt
_chemical_formula_sum              "F12 P4 Pt1"
_cell_length_a       6.63869
_cell_length_b       6.63869
_cell_length_c       6.63869
_cell_angle_alpha    109.471
_cell_angle_beta     109.471
_cell_angle_gamma    109.471

_space_group_name_H-M_alt    "P 1"
_space_group_IT_number       1

loop_
  _space_group_symop_operation_xyz
  'x, y, z'

loop_
  _atom_site_type_symbol
  _atom_site_label
  _atom_site_symmetry_multiplicity
  _atom_site_fract_x
  _atom_site_fract_y
  _atom_site_fract_z
  _atom_site_occupancy
  F   F1        1.0  0.78000  0.48000  0.00000  1.0000
  F   F2        1.0  0.48000  0.78000  0.00000  1.0000
  F   F3        1.0  0.70000  0.22000  0.22000  1.0000
  F   F4        1.0  0.22000  0.70000  0.22000  1.0000
  F   F5        1.0  0.52000  0.52000  0.30000  1.0000
  F   F6        1.0  0.78000  0.00000  0.48000  1.0000
  F   F7        1.0  0.00000  0.78000  0.48000  1.0000
  F   F8        1.0  0.52000  0.30000  0.52000  1.0000
  F   F9        1.0  0.30000  0.52000  0.52000  1.0000
  F   F10       1.0  0.22000  0.22000  0.70000  1.0000
  F   F11       1.0  0.48000  0.00000  0.78000  1.0000
  F   F12       1.0  0.00000  0.48000  0.78000  1.0000
  P   P1        1.0  0.66800  0.00000  0.00000  1.0000
  P   P2        1.0  0.00000  0.66800  0.00000  1.0000
  P   P3        1.0  0.33200  0.33200  0.33200  1.0000
  P   P4        1.0  0.00000  0.00000  0.66800  1.0000
  Pt  Pt1       1.0  0.00000  0.00000  0.00000  1.0000
