data_image0
_chemical_formula_structural       CeOs4P12
_chemical_formula_sum              "Ce1 Os4 P12"
_cell_length_a       7.0385
_cell_length_b       7.0385
_cell_length_c       7.0385
_cell_angle_alpha    109.471
_cell_angle_beta     109.471
_cell_angle_gamma    109.471

_space_group_name_H-M_alt    "P 1"
_space_group_IT_number       1

loop_
  _space_group_symop_operation_xyz
  'x, y, z'

loop_
  _atom_site_type_symbol
  _atom_site_label
  _atom_site_symmetry_multiplicity
  _atom_site_fract_x
  _atom_site_fract_y
  _atom_site_fract_z
  _atom_site_occupancy
  Ce  Ce1       1.0  0.00000  0.00000  0.00000  1.0000
  Os  Os1       1.0  0.50000  0.00000  0.00000  1.0000
  Os  Os2       1.0  0.00000  0.50000  0.00000  1.0000
  Os  Os3       1.0  0.00000  0.00000  0.50000  1.0000
  Os  Os4       1.0  0.50000  0.50000  0.50000  1.0000
  P   P1        1.0  0.35700  0.50100  0.14400  1.0000
  P   P2        1.0  0.64300  0.78600  0.14400  1.0000
  P   P3        1.0  0.85600  0.35700  0.21400  1.0000
  P   P4        1.0  0.50100  0.14400  0.35700  1.0000
  P   P5        1.0  0.21400  0.85600  0.35700  1.0000
  P   P6        1.0  0.85600  0.64300  0.49900  1.0000
  P   P7        1.0  0.14400  0.35700  0.50100  1.0000
  P   P8        1.0  0.78600  0.14400  0.64300  1.0000
  P   P9        1.0  0.49900  0.85600  0.64300  1.0000
  P   P10       1.0  0.14400  0.64300  0.78600  1.0000
  P   P11       1.0  0.35700  0.21400  0.85600  1.0000
  P   P12       1.0  0.64300  0.49900  0.85600  1.0000
