data_image0
_chemical_formula_structural       Br2H12Li2O14
_chemical_formula_sum              "Br2 H12 Li2 O14"
_cell_length_a       7.62464
_cell_length_b       7.6246
_cell_length_c       5.24026
_cell_angle_alpha    90
_cell_angle_beta     90
_cell_angle_gamma    120

_space_group_name_H-M_alt    "P 1"
_space_group_IT_number       1

loop_
  _space_group_symop_operation_xyz
  'x, y, z'

loop_
  _atom_site_type_symbol
  _atom_site_label
  _atom_site_symmetry_multiplicity
  _atom_site_fract_x
  _atom_site_fract_y
  _atom_site_fract_z
  _atom_site_occupancy
  Br  Br1       1.0  0.33300  0.66700  0.00004  1.0000
  Br  Br2       1.0  0.66700  0.33300  0.50000  1.0000
  H   H1        1.0  0.06350  0.33300  0.45000  1.0000
  H   H2        1.0  0.26900  0.33300  0.45000  1.0000
  H   H3        1.0  0.06350  0.73100  0.45000  1.0000
  H   H4        1.0  0.66700  0.73100  0.45000  1.0000
  H   H5        1.0  0.26900  0.93700  0.45000  1.0000
  H   H6        1.0  0.66700  0.93700  0.45000  1.0000
  H   H7        1.0  0.73100  0.66700  0.95000  1.0000
  H   H8        1.0  0.93700  0.66700  0.95000  1.0000
  H   H9        1.0  0.33300  0.26900  0.95000  1.0000
  H   H10       1.0  0.93700  0.26900  0.95000  1.0000
  H   H11       1.0  0.33300  0.06340  0.95000  1.0000
  H   H12       1.0  0.73100  0.06340  0.95000  1.0000
  Li  Li1       1.0  0.00000  0.00000  0.20600  1.0000
  Li  Li2       1.0  0.00000  0.00000  0.70600  1.0000
  O   O1        1.0  0.33300  0.66700  0.31300  1.0000
  O   O2        1.0  0.54900  0.45100  0.39100  1.0000
  O   O3        1.0  0.90100  0.45100  0.39100  1.0000
  O   O4        1.0  0.54900  0.09870  0.39100  1.0000
  O   O5        1.0  0.12200  0.24300  0.45600  1.0000
  O   O6        1.0  0.12200  0.87800  0.45600  1.0000
  O   O7        1.0  0.75700  0.87800  0.45600  1.0000
  O   O8        1.0  0.66700  0.33300  0.81300  1.0000
  O   O9        1.0  0.09860  0.54900  0.89100  1.0000
  O   O10       1.0  0.45100  0.54900  0.89100  1.0000
  O   O11       1.0  0.45100  0.90100  0.89100  1.0000
  O   O12       1.0  0.87800  0.75700  0.95600  1.0000
  O   O13       1.0  0.24300  0.12200  0.95600  1.0000
  O   O14       1.0  0.87800  0.12200  0.95600  1.0000
