data_image0
_chemical_formula_structural       Cu2H12O12Sr4
_chemical_formula_sum              "Cu2 H12 O12 Sr4"
_cell_length_a       5.70411
_cell_length_b       6.15259
_cell_length_c       7.95196
_cell_angle_alpha    90
_cell_angle_beta     91.7913
_cell_angle_gamma    90

_space_group_name_H-M_alt    "P 1"
_space_group_IT_number       1

loop_
  _space_group_symop_operation_xyz
  'x, y, z'

loop_
  _atom_site_type_symbol
  _atom_site_label
  _atom_site_symmetry_multiplicity
  _atom_site_fract_x
  _atom_site_fract_y
  _atom_site_fract_z
  _atom_site_occupancy
  Cu  Cu1       1.0  0.50000  0.50000  0.00000  1.0000
  Cu  Cu2       1.0  0.00000  0.00000  0.50000  1.0000
  H   H1        1.0  0.19300  0.77600  0.98400  1.0000
  H   H2        1.0  0.80700  0.22400  0.01590  1.0000
  H   H3        1.0  0.83900  0.83800  0.02740  1.0000
  H   H4        1.0  0.97200  0.08050  0.19600  1.0000
  H   H5        1.0  0.52800  0.58000  0.30400  1.0000
  H   H6        1.0  0.66100  0.33800  0.47300  1.0000
  H   H7        1.0  0.69300  0.72400  0.48400  1.0000
  H   H8        1.0  0.30700  0.27600  0.51600  1.0000
  H   H9        1.0  0.33900  0.66200  0.52700  1.0000
  H   H10       1.0  0.47200  0.42000  0.69600  1.0000
  H   H11       1.0  0.02770  0.92000  0.80400  1.0000
  H   H12       1.0  0.16100  0.16200  0.97300  1.0000
  O   O1        1.0  0.34800  0.78000  0.04460  1.0000
  O   O2        1.0  0.11500  0.25800  0.06440  1.0000
  O   O3        1.0  0.61000  0.46800  0.23700  1.0000
  O   O4        1.0  0.89000  0.96800  0.26300  1.0000
  O   O5        1.0  0.38500  0.75800  0.43600  1.0000
  O   O6        1.0  0.15200  0.28000  0.45500  1.0000
  O   O7        1.0  0.84800  0.72000  0.54500  1.0000
  O   O8        1.0  0.61500  0.24200  0.56400  1.0000
  O   O9        1.0  0.11000  0.03240  0.73700  1.0000
  O   O10       1.0  0.39000  0.53200  0.76300  1.0000
  O   O11       1.0  0.88500  0.74200  0.93600  1.0000
  O   O12       1.0  0.65200  0.22000  0.95500  1.0000
  Sr  Sr1       1.0  0.45900  0.07700  0.24900  1.0000
  Sr  Sr2       1.0  0.04090  0.57700  0.25100  1.0000
  Sr  Sr3       1.0  0.95900  0.42300  0.74900  1.0000
  Sr  Sr4       1.0  0.54100  0.92300  0.75100  1.0000
