data_image0
_chemical_formula_structural       H16N4O8Se2
_chemical_formula_sum              "H16 N4 O8 Se2"
_cell_length_a       6.26194
_cell_length_b       6.71173
_cell_length_c       7.5537
_cell_angle_alpha    112.287
_cell_angle_beta     90
_cell_angle_gamma    117.807

_space_group_name_H-M_alt    "P 1"
_space_group_IT_number       1

loop_
  _space_group_symop_operation_xyz
  'x, y, z'

loop_
  _atom_site_type_symbol
  _atom_site_label
  _atom_site_symmetry_multiplicity
  _atom_site_fract_x
  _atom_site_fract_y
  _atom_site_fract_z
  _atom_site_occupancy
  H   H1        1.0  0.65900  0.05030  0.17400  1.0000
  H   H2        1.0  0.39200  0.05030  0.17400  1.0000
  H   H3        1.0  0.92000  0.57500  0.18800  1.0000
  H   H4        1.0  0.65600  0.57500  0.18800  1.0000
  H   H5        1.0  0.92700  0.85400  0.25600  1.0000
  H   H6        1.0  0.43500  0.86900  0.26400  1.0000
  H   H7        1.0  0.59100  0.18300  0.39100  1.0000
  H   H8        1.0  0.85400  0.70800  0.40700  1.0000
  H   H9        1.0  0.14600  0.29200  0.59300  1.0000
  H   H10       1.0  0.40900  0.81700  0.60900  1.0000
  H   H11       1.0  0.56500  0.13100  0.73600  1.0000
  H   H12       1.0  0.07290  0.14600  0.74400  1.0000
  H   H13       1.0  0.34400  0.42500  0.81200  1.0000
  H   H14       1.0  0.08030  0.42500  0.81200  1.0000
  H   H15       1.0  0.60800  0.95000  0.82600  1.0000
  H   H16       1.0  0.34100  0.95000  0.82600  1.0000
  N   N1        1.0  0.51800  0.03650  0.24900  1.0000
  N   N2        1.0  0.84000  0.68100  0.26000  1.0000
  N   N3        1.0  0.16000  0.31900  0.74000  1.0000
  N   N4        1.0  0.48200  0.96400  0.75100  1.0000
  O   O1        1.0  0.92000  0.28100  0.07660  1.0000
  O   O2        1.0  0.36100  0.28100  0.07660  1.0000
  O   O3        1.0  0.09070  0.18100  0.34700  1.0000
  O   O4        1.0  0.32600  0.65200  0.36200  1.0000
  O   O5        1.0  0.67400  0.34800  0.63800  1.0000
  O   O6        1.0  0.90900  0.81900  0.65300  1.0000
  O   O7        1.0  0.63900  0.71900  0.92300  1.0000
  O   O8        1.0  0.07980  0.71900  0.92300  1.0000
  Se  Se1       1.0  0.17300  0.34500  0.21400  1.0000
  Se  Se2       1.0  0.82700  0.65500  0.78600  1.0000
