data_image0
_chemical_formula_structural       H6O16P2Rb4Se2
_chemical_formula_sum              "H6 O16 P2 Rb4 Se2"
_cell_length_a       7.38111
_cell_length_b       7.62861
_cell_length_c       7.6238
_cell_angle_alpha    90
_cell_angle_beta     101.162
_cell_angle_gamma    90

_space_group_name_H-M_alt    "P 1"
_space_group_IT_number       1

loop_
  _space_group_symop_operation_xyz
  'x, y, z'

loop_
  _atom_site_type_symbol
  _atom_site_label
  _atom_site_symmetry_multiplicity
  _atom_site_fract_x
  _atom_site_fract_y
  _atom_site_fract_z
  _atom_site_occupancy
  H   H1        1.0  0.94800  0.72300  0.06180  1.0000
  H   H2        1.0  0.17900  0.24000  0.20000  1.0000
  H   H3        1.0  0.40100  0.84100  0.28000  1.0000
  H   H4        1.0  0.44800  0.27700  0.56200  1.0000
  H   H5        1.0  0.67900  0.76000  0.70000  1.0000
  H   H6        1.0  0.90100  0.15900  0.78000  1.0000
  O   O1        1.0  0.67200  0.07640  0.00712  1.0000
  O   O2        1.0  0.21400  0.27900  0.02210  1.0000
  O   O3        1.0  0.96200  0.53000  0.06060  1.0000
  O   O4        1.0  0.93100  0.85700  0.07820  1.0000
  O   O5        1.0  0.42000  0.65800  0.25000  1.0000
  O   O6        1.0  0.38700  0.97900  0.28300  1.0000
  O   O7        1.0  0.69800  0.41900  0.32600  1.0000
  O   O8        1.0  0.15800  0.20900  0.32900  1.0000
  O   O9        1.0  0.17200  0.92400  0.50700  1.0000
  O   O10       1.0  0.71400  0.72100  0.52200  1.0000
  O   O11       1.0  0.46200  0.47000  0.56100  1.0000
  O   O12       1.0  0.43100  0.14300  0.57800  1.0000
  O   O13       1.0  0.92000  0.34200  0.75000  1.0000
  O   O14       1.0  0.88700  0.02110  0.78300  1.0000
  O   O15       1.0  0.19800  0.58100  0.82600  1.0000
  O   O16       1.0  0.65800  0.79100  0.82900  1.0000
  P   P1        1.0  0.28100  0.05540  0.42600  1.0000
  P   P2        1.0  0.78100  0.94500  0.92600  1.0000
  Rb  Rb1       1.0  0.79100  0.06260  0.38800  1.0000
  Rb  Rb2       1.0  0.07230  0.57100  0.44500  1.0000
  Rb  Rb3       1.0  0.29100  0.93700  0.88800  1.0000
  Rb  Rb4       1.0  0.57200  0.42900  0.94500  1.0000
  Se  Se1       1.0  0.57600  0.56300  0.41500  1.0000
  Se  Se2       1.0  0.07580  0.43700  0.91500  1.0000
