data_image0
_chemical_formula_structural       Al2Ca4F14H4O2
_chemical_formula_sum              "Al2 Ca4 F14 H4 O2"
_cell_length_a       5.68692
_cell_length_b       5.68534
_cell_length_c       9.08301
_cell_angle_alpha    79.1878
_cell_angle_beta     103.111
_cell_angle_gamma    106.551

_space_group_name_H-M_alt    "P 1"
_space_group_IT_number       1

loop_
  _space_group_symop_operation_xyz
  'x, y, z'

loop_
  _atom_site_type_symbol
  _atom_site_label
  _atom_site_symmetry_multiplicity
  _atom_site_fract_x
  _atom_site_fract_y
  _atom_site_fract_z
  _atom_site_occupancy
  Al  Al1       1.0  0.00000  0.00000  0.50000  1.0000
  Al  Al2       1.0  0.50000  0.50000  0.00000  1.0000
  Ca  Ca1       1.0  0.16000  0.84700  0.20100  1.0000
  Ca  Ca2       1.0  0.58500  0.41500  0.35600  1.0000
  Ca  Ca3       1.0  0.41500  0.58500  0.64400  1.0000
  Ca  Ca4       1.0  0.84000  0.15300  0.79900  1.0000
  F   F1        1.0  0.82400  0.54500  0.10200  1.0000
  F   F2        1.0  0.45100  0.68000  0.13000  1.0000
  F   F3        1.0  0.42000  0.22200  0.13100  1.0000
  F   F4        1.0  0.83500  0.18700  0.35900  1.0000
  F   F5        1.0  0.88500  0.75800  0.37500  1.0000
  F   F6        1.0  0.33000  0.62200  0.39600  1.0000
  F   F7        1.0  0.26000  0.10000  0.39800  1.0000
  F   F8        1.0  0.74000  0.90000  0.60200  1.0000
  F   F9        1.0  0.67000  0.37800  0.60400  1.0000
  F   F10       1.0  0.11500  0.24200  0.62500  1.0000
  F   F11       1.0  0.16500  0.81300  0.64100  1.0000
  F   F12       1.0  0.58000  0.77800  0.86900  1.0000
  F   F13       1.0  0.54900  0.32000  0.87000  1.0000
  F   F14       1.0  0.17600  0.45500  0.89800  1.0000
  H   H1        1.0  0.71300  0.99600  0.11700  1.0000
  H   H2        1.0  0.89600  0.25500  0.11800  1.0000
  H   H3        1.0  0.10400  0.74500  0.88200  1.0000
  H   H4        1.0  0.28700  0.00359  0.88300  1.0000
  O   O1        1.0  0.86900  0.09310  0.08430  1.0000
  O   O2        1.0  0.13100  0.90700  0.91600  1.0000
