data_image0
_chemical_formula_structural       Cl10Sc7
_chemical_formula_sum              "Cl10 Sc7"
_cell_length_a       3.54589
_cell_length_b       9.58819
_cell_length_c       12.3071
_cell_angle_alpha    91.489
_cell_angle_beta     90
_cell_angle_gamma    100.656

_space_group_name_H-M_alt    "P 1"
_space_group_IT_number       1

loop_
  _space_group_symop_operation_xyz
  'x, y, z'

loop_
  _atom_site_type_symbol
  _atom_site_label
  _atom_site_symmetry_multiplicity
  _atom_site_fract_x
  _atom_site_fract_y
  _atom_site_fract_z
  _atom_site_occupancy
  Cl  Cl1       1.0  0.55600  0.11200  0.11900  1.0000
  Cl  Cl2       1.0  0.89000  0.78000  0.12100  1.0000
  Cl  Cl3       1.0  0.21600  0.43300  0.14400  1.0000
  Cl  Cl4       1.0  0.10000  0.20100  0.35700  1.0000
  Cl  Cl5       1.0  0.41400  0.82800  0.40400  1.0000
  Cl  Cl6       1.0  0.58600  0.17200  0.59600  1.0000
  Cl  Cl7       1.0  0.90000  0.79900  0.64300  1.0000
  Cl  Cl8       1.0  0.78400  0.56700  0.85600  1.0000
  Cl  Cl9       1.0  0.11000  0.22000  0.87900  1.0000
  Cl  Cl10      1.0  0.44400  0.88800  0.88100  1.0000
  Sc  Sc1       1.0  0.00000  0.00000  0.00000  1.0000
  Sc  Sc2       1.0  0.33200  0.66300  0.24800  1.0000
  Sc  Sc3       1.0  0.68900  0.37900  0.29500  1.0000
  Sc  Sc4       1.0  0.81500  0.63000  0.46900  1.0000
  Sc  Sc5       1.0  0.18500  0.37000  0.53100  1.0000
  Sc  Sc6       1.0  0.31100  0.62100  0.70500  1.0000
  Sc  Sc7       1.0  0.66800  0.33700  0.75200  1.0000
