data_image0
_chemical_formula_structural       Cu8Rb3Se6
_chemical_formula_sum              "Cu8 Rb3 Se6"
_cell_length_a       4.01501
_cell_length_b       9.43143
_cell_length_c       10.2093
_cell_angle_alpha    105.108
_cell_angle_beta     90
_cell_angle_gamma    102.29

_space_group_name_H-M_alt    "P 1"
_space_group_IT_number       1

loop_
  _space_group_symop_operation_xyz
  'x, y, z'

loop_
  _atom_site_type_symbol
  _atom_site_label
  _atom_site_symmetry_multiplicity
  _atom_site_fract_x
  _atom_site_fract_y
  _atom_site_fract_z
  _atom_site_occupancy
  Cu  Cu1       1.0  0.30200  0.60500  0.09010  1.0000
  Cu  Cu2       1.0  0.89400  0.78800  0.21800  1.0000
  Cu  Cu3       1.0  0.48200  0.96300  0.36300  1.0000
  Cu  Cu4       1.0  0.92200  0.84400  0.47000  1.0000
  Cu  Cu5       1.0  0.07810  0.15600  0.53000  1.0000
  Cu  Cu6       1.0  0.51800  0.03660  0.63700  1.0000
  Cu  Cu7       1.0  0.10600  0.21200  0.78200  1.0000
  Cu  Cu8       1.0  0.69800  0.39500  0.91000  1.0000
  Rb  Rb1       1.0  0.50000  0.00000  0.00000  1.0000
  Rb  Rb2       1.0  0.69000  0.38000  0.30500  1.0000
  Rb  Rb3       1.0  0.31000  0.62000  0.69500  1.0000
  Se  Se1       1.0  0.16100  0.32200  0.02150  1.0000
  Se  Se2       1.0  0.03520  0.07030  0.28800  1.0000
  Se  Se3       1.0  0.34600  0.69200  0.35300  1.0000
  Se  Se4       1.0  0.65400  0.30800  0.64700  1.0000
  Se  Se5       1.0  0.96500  0.93000  0.71200  1.0000
  Se  Se6       1.0  0.83900  0.67800  0.97900  1.0000
