data_image0
_chemical_formula_structural       Eu2Na2O10Ti3
_chemical_formula_sum              "Eu2 Na2 O10 Ti3"
_cell_length_a       3.83573
_cell_length_b       3.83573
_cell_length_c       14.1395
_cell_angle_alpha    97.7956
_cell_angle_beta     97.7956
_cell_angle_gamma    90

_space_group_name_H-M_alt    "P 1"
_space_group_IT_number       1

loop_
  _space_group_symop_operation_xyz
  'x, y, z'

loop_
  _atom_site_type_symbol
  _atom_site_label
  _atom_site_symmetry_multiplicity
  _atom_site_fract_x
  _atom_site_fract_y
  _atom_site_fract_z
  _atom_site_occupancy
  Eu  Eu1       1.0  0.57300  0.57300  0.14600  1.0000
  Eu  Eu2       1.0  0.42700  0.42700  0.85400  1.0000
  Na  Na1       1.0  0.70800  0.70800  0.41600  1.0000
  Na  Na2       1.0  0.29200  0.29200  0.58400  1.0000
  O   O1        1.0  0.50000  0.00000  0.00000  1.0000
  O   O2        1.0  0.00000  0.50000  0.00000  1.0000
  O   O3        1.0  0.06910  0.06910  0.13800  1.0000
  O   O4        1.0  0.63500  0.13500  0.26900  1.0000
  O   O5        1.0  0.13500  0.63500  0.26900  1.0000
  O   O6        1.0  0.21100  0.21100  0.42200  1.0000
  O   O7        1.0  0.78900  0.78900  0.57800  1.0000
  O   O8        1.0  0.86500  0.36500  0.73100  1.0000
  O   O9        1.0  0.36500  0.86500  0.73100  1.0000
  O   O10       1.0  0.93100  0.93100  0.86200  1.0000
  Ti  Ti1       1.0  0.00000  0.00000  0.00000  1.0000
  Ti  Ti2       1.0  0.14600  0.14600  0.29200  1.0000
  Ti  Ti3       1.0  0.85400  0.85400  0.70800  1.0000
