data_image0
_chemical_formula_structural       Cr4H4K2O16Zn
_chemical_formula_sum              "Cr4 H4 K2 O16 Zn1"
_cell_length_a       6.65575
_cell_length_b       7.62863
_cell_length_c       7.70673
_cell_angle_alpha    88.5971
_cell_angle_beta     81.013
_cell_angle_gamma    64.7662

_space_group_name_H-M_alt    "P 1"
_space_group_IT_number       1

loop_
  _space_group_symop_operation_xyz
  'x, y, z'

loop_
  _atom_site_type_symbol
  _atom_site_label
  _atom_site_symmetry_multiplicity
  _atom_site_fract_x
  _atom_site_fract_y
  _atom_site_fract_z
  _atom_site_occupancy
  Cr  Cr1       1.0  0.74100  0.20400  0.15400  1.0000
  Cr  Cr2       1.0  0.27600  0.49200  0.33200  1.0000
  Cr  Cr3       1.0  0.72400  0.50800  0.66800  1.0000
  Cr  Cr4       1.0  0.25900  0.79600  0.84600  1.0000
  H   H1        1.0  0.18500  0.09550  0.22100  1.0000
  H   H2        1.0  0.26600  0.15000  0.38700  1.0000
  H   H3        1.0  0.73400  0.85000  0.61300  1.0000
  H   H4        1.0  0.81500  0.90400  0.77900  1.0000
  K   K1        1.0  0.70600  0.74100  0.17700  1.0000
  K   K2        1.0  0.29400  0.25900  0.82300  1.0000
  O   O1        1.0  0.62500  0.13800  0.01540  1.0000
  O   O2        1.0  0.97600  0.20800  0.06410  1.0000
  O   O3        1.0  0.14800  0.46300  0.18100  1.0000
  O   O4        1.0  0.55700  0.44500  0.23600  1.0000
  O   O5        1.0  0.78500  0.05140  0.31600  1.0000
  O   O6        1.0  0.24800  0.04270  0.32900  1.0000
  O   O7        1.0  0.15300  0.71300  0.41900  1.0000
  O   O8        1.0  0.28900  0.33200  0.48100  1.0000
  O   O9        1.0  0.71100  0.66800  0.51900  1.0000
  O   O10       1.0  0.84700  0.28700  0.58100  1.0000
  O   O11       1.0  0.75200  0.95700  0.67100  1.0000
  O   O12       1.0  0.21500  0.94900  0.68400  1.0000
  O   O13       1.0  0.44300  0.55500  0.76400  1.0000
  O   O14       1.0  0.85200  0.53700  0.81900  1.0000
  O   O15       1.0  0.02370  0.79200  0.93600  1.0000
  O   O16       1.0  0.37500  0.86200  0.98500  1.0000
  Zn  Zn1       1.0  0.00000  0.00000  0.50000  1.0000
