data_image0
_chemical_formula_structural       C2CuF6O6S2
_chemical_formula_sum              "C2 Cu1 F6 O6 S2"
_cell_length_a       4.7186
_cell_length_b       10.2976
_cell_length_c       4.60523
_cell_angle_alpha    103.234
_cell_angle_beta     118.581
_cell_angle_gamma    79.655

_space_group_name_H-M_alt    "P 1"
_space_group_IT_number       1

loop_
  _space_group_symop_operation_xyz
  'x, y, z'

loop_
  _atom_site_type_symbol
  _atom_site_label
  _atom_site_symmetry_multiplicity
  _atom_site_fract_x
  _atom_site_fract_y
  _atom_site_fract_z
  _atom_site_occupancy
  C   C1        1.0  0.71300  0.34300  0.28200  1.0000
  C   C2        1.0  0.28700  0.65700  0.71800  1.0000
  Cu  Cu1       1.0  0.50000  0.00000  0.50000  1.0000
  F   F1        1.0  0.71600  0.38900  0.03260  1.0000
  F   F2        1.0  0.42800  0.38200  0.28900  1.0000
  F   F3        1.0  0.04150  0.61100  0.42300  1.0000
  F   F4        1.0  0.95800  0.38900  0.57700  1.0000
  F   F5        1.0  0.57200  0.61800  0.71100  1.0000
  F   F6        1.0  0.28400  0.61100  0.96700  1.0000
  O   O1        1.0  0.51500  0.87900  0.10700  1.0000
  O   O2        1.0  0.07850  0.13200  0.20000  1.0000
  O   O3        1.0  0.22600  0.87600  0.49800  1.0000
  O   O4        1.0  0.77400  0.12400  0.50200  1.0000
  O   O5        1.0  0.92200  0.86800  0.80000  1.0000
  O   O6        1.0  0.48500  0.12100  0.89300  1.0000
  S   S1        1.0  0.77300  0.16000  0.21000  1.0000
  S   S2        1.0  0.22700  0.84000  0.79000  1.0000
