data_image0
_chemical_formula_structural       As2Fe4O11
_chemical_formula_sum              "As2 Fe4 O11"
_cell_length_a       6.48843
_cell_length_b       6.58004
_cell_length_c       5.04378
_cell_angle_alpha    106.223
_cell_angle_beta     98.0699
_cell_angle_gamma    108.821

_space_group_name_H-M_alt    "P 1"
_space_group_IT_number       1

loop_
  _space_group_symop_operation_xyz
  'x, y, z'

loop_
  _atom_site_type_symbol
  _atom_site_label
  _atom_site_symmetry_multiplicity
  _atom_site_fract_x
  _atom_site_fract_y
  _atom_site_fract_z
  _atom_site_occupancy
  As  As1       1.0  0.81600  0.60900  0.33900  1.0000
  As  As2       1.0  0.18400  0.39100  0.66100  1.0000
  Fe  Fe1       1.0  0.75300  0.03270  0.10300  1.0000
  Fe  Fe2       1.0  0.37200  0.74800  0.33900  1.0000
  Fe  Fe3       1.0  0.62800  0.25200  0.66100  1.0000
  Fe  Fe4       1.0  0.24700  0.96700  0.89700  1.0000
  O   O1        1.0  0.00000  0.00000  0.00000  1.0000
  O   O2        1.0  0.79900  0.36600  0.07670  1.0000
  O   O3        1.0  0.65100  0.73400  0.20300  1.0000
  O   O4        1.0  0.47300  0.04990  0.26400  1.0000
  O   O5        1.0  0.27600  0.45300  0.38300  1.0000
  O   O6        1.0  0.09360  0.79500  0.46100  1.0000
  O   O7        1.0  0.90600  0.20500  0.53900  1.0000
  O   O8        1.0  0.72400  0.54700  0.61700  1.0000
  O   O9        1.0  0.52700  0.95000  0.73600  1.0000
  O   O10       1.0  0.34900  0.26600  0.79700  1.0000
  O   O11       1.0  0.20100  0.63400  0.92300  1.0000
