data_image0
_chemical_formula_structural       F14N2Ni
_chemical_formula_sum              "F14 N2 Ni1"
_cell_length_a       6.17004
_cell_length_b       6.17004
_cell_length_c       6.17004
_cell_angle_alpha    92.3871
_cell_angle_beta     118.632
_cell_angle_gamma    118.632

_space_group_name_H-M_alt    "P 1"
_space_group_IT_number       1

loop_
  _space_group_symop_operation_xyz
  'x, y, z'

loop_
  _atom_site_type_symbol
  _atom_site_label
  _atom_site_symmetry_multiplicity
  _atom_site_fract_x
  _atom_site_fract_y
  _atom_site_fract_z
  _atom_site_occupancy
  F   F1        1.0  0.42500  0.74200  0.00682  1.0000
  F   F2        1.0  0.88400  0.74900  0.13600  1.0000
  F   F3        1.0  0.00000  0.20900  0.20900  1.0000
  F   F4        1.0  0.38700  0.13600  0.25100  1.0000
  F   F5        1.0  0.26500  0.68300  0.25800  1.0000
  F   F6        1.0  0.57500  0.58200  0.31700  1.0000
  F   F7        1.0  0.73500  0.99300  0.41800  1.0000
  F   F8        1.0  0.26500  0.00682  0.58200  1.0000
  F   F9        1.0  0.42500  0.41800  0.68300  1.0000
  F   F10       1.0  0.73500  0.31700  0.74200  1.0000
  F   F11       1.0  0.61300  0.86400  0.74900  1.0000
  F   F12       1.0  0.00000  0.79100  0.79100  1.0000
  F   F13       1.0  0.11600  0.25100  0.86400  1.0000
  F   F14       1.0  0.57500  0.25800  0.99300  1.0000
  N   N1        1.0  0.50000  0.75000  0.25000  1.0000
  N   N2        1.0  0.50000  0.25000  0.75000  1.0000
  Ni  Ni1       1.0  0.00000  0.00000  0.00000  1.0000
