data_image0
_chemical_formula_structural       Cl12H10O4Sb2
_chemical_formula_sum              "Cl12 H10 O4 Sb2"
_cell_length_a       6.8959
_cell_length_b       6.90271
_cell_length_c       12.5729
_cell_angle_alpha    97.4458
_cell_angle_beta     105.917
_cell_angle_gamma    60.0326

_space_group_name_H-M_alt    "P 1"
_space_group_IT_number       1

loop_
  _space_group_symop_operation_xyz
  'x, y, z'

loop_
  _atom_site_type_symbol
  _atom_site_label
  _atom_site_symmetry_multiplicity
  _atom_site_fract_x
  _atom_site_fract_y
  _atom_site_fract_z
  _atom_site_occupancy
  Cl  Cl1       1.0  0.79300  0.86800  0.06950  1.0000
  Cl  Cl2       1.0  0.83300  0.34200  0.09600  1.0000
  Cl  Cl3       1.0  0.32300  0.83900  0.16100  1.0000
  Cl  Cl4       1.0  0.00095  0.66100  0.33900  1.0000
  Cl  Cl5       1.0  0.07960  0.15800  0.40400  1.0000
  Cl  Cl6       1.0  0.59100  0.63200  0.43000  1.0000
  Cl  Cl7       1.0  0.40900  0.36800  0.57000  1.0000
  Cl  Cl8       1.0  0.92000  0.84200  0.59600  1.0000
  Cl  Cl9       1.0  0.99900  0.33900  0.66100  1.0000
  Cl  Cl10      1.0  0.67700  0.16100  0.83900  1.0000
  Cl  Cl11      1.0  0.16700  0.65800  0.90400  1.0000
  Cl  Cl12      1.0  0.20700  0.13200  0.93000  1.0000
  H   H1        1.0  0.37200  0.29300  0.09730  1.0000
  H   H2        1.0  0.36300  0.50900  0.16800  1.0000
  H   H3        1.0  0.46800  0.25000  0.25000  1.0000
  H   H4        1.0  0.70400  0.99100  0.33200  1.0000
  H   H5        1.0  0.56800  0.20700  0.40300  1.0000
  H   H6        1.0  0.43200  0.79300  0.59700  1.0000
  H   H7        1.0  0.29600  0.00855  0.66800  1.0000
  H   H8        1.0  0.53200  0.75000  0.75000  1.0000
  H   H9        1.0  0.63700  0.49100  0.83200  1.0000
  H   H10       1.0  0.62800  0.70700  0.90300  1.0000
  O   O1        1.0  0.35700  0.36800  0.16900  1.0000
  O   O2        1.0  0.55600  0.13200  0.33100  1.0000
  O   O3        1.0  0.44400  0.86800  0.66900  1.0000
  O   O4        1.0  0.64300  0.63200  0.83100  1.0000
  Sb  Sb1       1.0  0.00000  0.00000  0.00000  1.0000
  Sb  Sb2       1.0  0.00000  0.50000  0.50000  1.0000
