data_image0
_chemical_formula_structural       B2H2In2O18P4Rb2
_chemical_formula_sum              "B2 H2 In2 O18 P4 Rb2"
_cell_length_a       5.29149
_cell_length_b       8.27464
_cell_length_c       8.44372
_cell_angle_alpha    87.9855
_cell_angle_beta     80.0506
_cell_angle_gamma    87.1321

_space_group_name_H-M_alt    "P 1"
_space_group_IT_number       1

loop_
  _space_group_symop_operation_xyz
  'x, y, z'

loop_
  _atom_site_type_symbol
  _atom_site_label
  _atom_site_symmetry_multiplicity
  _atom_site_fract_x
  _atom_site_fract_y
  _atom_site_fract_z
  _atom_site_occupancy
  B   B1        1.0  0.89700  0.23500  0.05980  1.0000
  B   B2        1.0  0.10300  0.76500  0.94000  1.0000
  H   H1        1.0  0.41700  0.62500  0.97000  1.0000
  H   H2        1.0  0.58300  0.37500  0.03030  1.0000
  In  In1       1.0  0.27700  0.68900  0.29500  1.0000
  In  In2       1.0  0.72300  0.31100  0.70500  1.0000
  O   O1        1.0  0.86300  0.82400  0.03740  1.0000
  O   O2        1.0  0.27600  0.68200  0.03940  1.0000
  O   O3        1.0  0.74800  0.10300  0.15100  1.0000
  O   O4        1.0  0.97100  0.34800  0.17100  1.0000
  O   O5        1.0  0.52600  0.47700  0.24800  1.0000
  O   O6        1.0  0.02920  0.90800  0.28800  1.0000
  O   O7        1.0  0.55500  0.86800  0.29600  1.0000
  O   O8        1.0  0.90900  0.58300  0.35500  1.0000
  O   O9        1.0  0.73000  0.31000  0.45100  1.0000
  O   O10       1.0  0.27000  0.69000  0.54900  1.0000
  O   O11       1.0  0.09100  0.41700  0.64500  1.0000
  O   O12       1.0  0.44500  0.13200  0.70400  1.0000
  O   O13       1.0  0.97100  0.09200  0.71200  1.0000
  O   O14       1.0  0.47400  0.52300  0.75200  1.0000
  O   O15       1.0  0.02870  0.65200  0.82900  1.0000
  O   O16       1.0  0.25200  0.89700  0.84900  1.0000
  O   O17       1.0  0.72400  0.31800  0.96100  1.0000
  O   O18       1.0  0.13700  0.17600  0.96300  1.0000
  P   P1        1.0  0.80400  0.92200  0.19500  1.0000
  P   P2        1.0  0.78100  0.43400  0.31100  1.0000
  P   P3        1.0  0.21900  0.56600  0.68900  1.0000
  P   P4        1.0  0.19600  0.07770  0.80500  1.0000
  Rb  Rb1       1.0  0.27400  0.17100  0.38500  1.0000
  Rb  Rb2       1.0  0.72600  0.82900  0.61500  1.0000
