data_image0
_chemical_formula_structural       Fe9Se8
_chemical_formula_sum              "Fe9 Se8"
_cell_length_a       7.10301
_cell_length_b       7.10301
_cell_length_c       5.9473
_cell_angle_alpha    90
_cell_angle_beta     90
_cell_angle_gamma    90

_space_group_name_H-M_alt    "P 1"
_space_group_IT_number       1

loop_
  _space_group_symop_operation_xyz
  'x, y, z'

loop_
  _atom_site_type_symbol
  _atom_site_label
  _atom_site_symmetry_multiplicity
  _atom_site_fract_x
  _atom_site_fract_y
  _atom_site_fract_z
  _atom_site_occupancy
  Fe  Fe1       1.0  0.24900  0.00000  0.23700  1.0000
  Fe  Fe2       1.0  0.75100  0.00000  0.23700  1.0000
  Fe  Fe3       1.0  0.00000  0.24900  0.23700  1.0000
  Fe  Fe4       1.0  0.00000  0.75100  0.23700  1.0000
  Fe  Fe5       1.0  0.50000  0.25200  0.24200  1.0000
  Fe  Fe6       1.0  0.25200  0.50000  0.24200  1.0000
  Fe  Fe7       1.0  0.74800  0.50000  0.24200  1.0000
  Fe  Fe8       1.0  0.50000  0.74800  0.24200  1.0000
  Fe  Fe9       1.0  0.00000  0.00000  0.56200  1.0000
  Se  Se1       1.0  0.25000  0.25000  0.51900  1.0000
  Se  Se2       1.0  0.75000  0.25000  0.51900  1.0000
  Se  Se3       1.0  0.25000  0.75000  0.51900  1.0000
  Se  Se4       1.0  0.75000  0.75000  0.51900  1.0000
  Se  Se5       1.0  0.00000  0.00000  0.96200  1.0000
  Se  Se6       1.0  0.50000  0.00000  0.97100  1.0000
  Se  Se7       1.0  0.00000  0.50000  0.97100  1.0000
  Se  Se8       1.0  0.50000  0.50000  0.97100  1.0000
