data_image0
_chemical_formula_structural       F10Ga2H8Mn2O4
_chemical_formula_sum              "F10 Ga2 H8 Mn2 O4"
_cell_length_a       6.39427
_cell_length_b       7.16772
_cell_length_c       7.16772
_cell_angle_alpha    92.964
_cell_angle_beta     116.49
_cell_angle_gamma    116.49

_space_group_name_H-M_alt    "P 1"
_space_group_IT_number       1

loop_
  _space_group_symop_operation_xyz
  'x, y, z'

loop_
  _atom_site_type_symbol
  _atom_site_label
  _atom_site_symmetry_multiplicity
  _atom_site_fract_x
  _atom_site_fract_y
  _atom_site_fract_z
  _atom_site_occupancy
  F   F1        1.0  0.76600  0.34600  0.09890  1.0000
  F   F2        1.0  0.23400  0.40100  0.15400  1.0000
  F   F3        1.0  0.19200  0.75000  0.25000  1.0000
  F   F4        1.0  0.67900  0.09890  0.34600  1.0000
  F   F5        1.0  0.32100  0.15400  0.40100  1.0000
  F   F6        1.0  0.67900  0.84600  0.59900  1.0000
  F   F7        1.0  0.32100  0.90100  0.65400  1.0000
  F   F8        1.0  0.80800  0.25000  0.75000  1.0000
  F   F9        1.0  0.76600  0.59900  0.84600  1.0000
  F   F10       1.0  0.23400  0.65400  0.90100  1.0000
  Ga  Ga1       1.0  0.00000  0.50000  0.00000  1.0000
  Ga  Ga2       1.0  0.50000  0.00000  0.50000  1.0000
  H   H1        1.0  0.22000  0.20400  0.00667  1.0000
  H   H2        1.0  0.99100  0.00667  0.20400  1.0000
  H   H3        1.0  0.78000  0.49300  0.29600  1.0000
  H   H4        1.0  0.00901  0.29600  0.49300  1.0000
  H   H5        1.0  0.99100  0.70400  0.50700  1.0000
  H   H6        1.0  0.22000  0.50700  0.70400  1.0000
  H   H7        1.0  0.00901  0.99300  0.79600  1.0000
  H   H8        1.0  0.78000  0.79600  0.99300  1.0000
  Mn  Mn1       1.0  0.50000  0.00000  0.00000  1.0000
  Mn  Mn2       1.0  0.50000  0.50000  0.50000  1.0000
  O   O1        1.0  0.79800  0.91800  0.08160  1.0000
  O   O2        1.0  0.79800  0.58200  0.41800  1.0000
  O   O3        1.0  0.20200  0.41800  0.58200  1.0000
  O   O4        1.0  0.20200  0.08160  0.91800  1.0000
