data_image0
_chemical_formula_structural       H8N4O16Zn2
_chemical_formula_sum              "H8 N4 O16 Zn2"
_cell_length_a       5.5115
_cell_length_b       5.75105
_cell_length_c       8.3786
_cell_angle_alpha    90
_cell_angle_beta     89.6752
_cell_angle_gamma    90

_space_group_name_H-M_alt    "P 1"
_space_group_IT_number       1

loop_
  _space_group_symop_operation_xyz
  'x, y, z'

loop_
  _atom_site_type_symbol
  _atom_site_label
  _atom_site_symmetry_multiplicity
  _atom_site_fract_x
  _atom_site_fract_y
  _atom_site_fract_z
  _atom_site_occupancy
  H   H1        1.0  0.08240  0.72600  0.01720  1.0000
  H   H2        1.0  0.29800  0.84000  0.11100  1.0000
  H   H3        1.0  0.70200  0.34000  0.38900  1.0000
  H   H4        1.0  0.91800  0.22600  0.48300  1.0000
  H   H5        1.0  0.08240  0.77400  0.51700  1.0000
  H   H6        1.0  0.29800  0.66000  0.61100  1.0000
  H   H7        1.0  0.70200  0.16000  0.88900  1.0000
  H   H8        1.0  0.91800  0.27400  0.98300  1.0000
  N   N1        1.0  0.75900  0.85400  0.19700  1.0000
  N   N2        1.0  0.24100  0.35400  0.30300  1.0000
  N   N3        1.0  0.75900  0.64600  0.69700  1.0000
  N   N4        1.0  0.24100  0.14600  0.80300  1.0000
  O   O1        1.0  0.25700  0.76500  0.00840  1.0000
  O   O2        1.0  0.77500  0.73800  0.06570  1.0000
  O   O3        1.0  0.05620  0.42900  0.23800  1.0000
  O   O4        1.0  0.45200  0.38500  0.24300  1.0000
  O   O5        1.0  0.54800  0.88500  0.25700  1.0000
  O   O6        1.0  0.94400  0.92900  0.26200  1.0000
  O   O7        1.0  0.22500  0.23800  0.43400  1.0000
  O   O8        1.0  0.74300  0.26500  0.49200  1.0000
  O   O9        1.0  0.25700  0.73500  0.50800  1.0000
  O   O10       1.0  0.77500  0.76200  0.56600  1.0000
  O   O11       1.0  0.05620  0.07110  0.73800  1.0000
  O   O12       1.0  0.45200  0.11500  0.74300  1.0000
  O   O13       1.0  0.54800  0.61500  0.75700  1.0000
  O   O14       1.0  0.94400  0.57100  0.76200  1.0000
  O   O15       1.0  0.22500  0.26200  0.93400  1.0000
  O   O16       1.0  0.74300  0.23500  0.99200  1.0000
  Zn  Zn1       1.0  0.50000  0.50000  0.00000  1.0000
  Zn  Zn2       1.0  0.50000  0.00000  0.50000  1.0000
