data_image0
_chemical_formula_structural       C4Cu6H4O16
_chemical_formula_sum              "C4 Cu6 H4 O16"
_cell_length_a       4.96618
_cell_length_b       5.80046
_cell_length_c       10.3172
_cell_angle_alpha    90
_cell_angle_beta     92.3099
_cell_angle_gamma    90

_space_group_name_H-M_alt    "P 1"
_space_group_IT_number       1

loop_
  _space_group_symop_operation_xyz
  'x, y, z'

loop_
  _atom_site_type_symbol
  _atom_site_label
  _atom_site_symmetry_multiplicity
  _atom_site_fract_x
  _atom_site_fract_y
  _atom_site_fract_z
  _atom_site_occupancy
  C   C1        1.0  0.67100  0.80100  0.18100  1.0000
  C   C2        1.0  0.32900  0.30100  0.31900  1.0000
  C   C3        1.0  0.67100  0.69900  0.68100  1.0000
  C   C4        1.0  0.32900  0.19900  0.81900  1.0000
  Cu  Cu1       1.0  0.00000  0.00000  0.00000  1.0000
  Cu  Cu2       1.0  0.25400  0.49900  0.08430  1.0000
  Cu  Cu3       1.0  0.74600  0.99900  0.41600  1.0000
  Cu  Cu4       1.0  0.00000  0.50000  0.50000  1.0000
  Cu  Cu5       1.0  0.25400  0.00145  0.58400  1.0000
  Cu  Cu6       1.0  0.74600  0.50100  0.91600  1.0000
  H   H1        1.0  0.81800  0.30100  0.13100  1.0000
  H   H2        1.0  0.18200  0.80100  0.36900  1.0000
  H   H3        1.0  0.81800  0.19900  0.63100  1.0000
  H   H4        1.0  0.18200  0.69900  0.86900  1.0000
  O   O1        1.0  0.92900  0.31200  0.05320  1.0000
  O   O2        1.0  0.55000  0.70900  0.08080  1.0000
  O   O3        1.0  0.90100  0.90200  0.17000  1.0000
  O   O4        1.0  0.43400  0.29400  0.20700  1.0000
  O   O5        1.0  0.56600  0.79400  0.29300  1.0000
  O   O6        1.0  0.09940  0.40200  0.33000  1.0000
  O   O7        1.0  0.45000  0.20900  0.41900  1.0000
  O   O8        1.0  0.07120  0.81200  0.44700  1.0000
  O   O9        1.0  0.92900  0.18800  0.55300  1.0000
  O   O10       1.0  0.55000  0.79100  0.58100  1.0000
  O   O11       1.0  0.90100  0.59800  0.67000  1.0000
  O   O12       1.0  0.43400  0.20600  0.70700  1.0000
  O   O13       1.0  0.56600  0.70600  0.79300  1.0000
  O   O14       1.0  0.09940  0.09770  0.83000  1.0000
  O   O15       1.0  0.45000  0.29100  0.91900  1.0000
  O   O16       1.0  0.07120  0.68800  0.94700  1.0000
