data_image0
_chemical_formula_structural       B4F20H2Nd2
_chemical_formula_sum              "B4 F20 H2 Nd2"
_cell_length_a       6.84391
_cell_length_b       5.68254
_cell_length_c       8.49701
_cell_angle_alpha    90
_cell_angle_beta     112.67
_cell_angle_gamma    90

_space_group_name_H-M_alt    "P 1"
_space_group_IT_number       1

loop_
  _space_group_symop_operation_xyz
  'x, y, z'

loop_
  _atom_site_type_symbol
  _atom_site_label
  _atom_site_symmetry_multiplicity
  _atom_site_fract_x
  _atom_site_fract_y
  _atom_site_fract_z
  _atom_site_occupancy
  B   B1        1.0  0.75100  0.75000  0.04990  1.0000
  B   B2        1.0  0.40900  0.75000  0.30300  1.0000
  B   B3        1.0  0.59100  0.25000  0.69700  1.0000
  B   B4        1.0  0.24900  0.25000  0.95000  1.0000
  F   F1        1.0  0.93600  0.75000  0.01730  1.0000
  F   F2        1.0  0.42400  0.25000  0.10500  1.0000
  F   F3        1.0  0.33200  0.75000  0.12800  1.0000
  F   F4        1.0  0.74700  0.55000  0.14400  1.0000
  F   F5        1.0  0.74700  0.95000  0.14400  1.0000
  F   F6        1.0  0.07930  0.25000  0.26900  1.0000
  F   F7        1.0  0.24900  0.75000  0.36800  1.0000
  F   F8        1.0  0.53900  0.55000  0.36900  1.0000
  F   F9        1.0  0.53900  0.95000  0.36900  1.0000
  F   F10       1.0  0.00000  0.00000  0.50000  1.0000
  F   F11       1.0  0.00000  0.50000  0.50000  1.0000
  F   F12       1.0  0.46100  0.05000  0.63100  1.0000
  F   F13       1.0  0.46100  0.45000  0.63100  1.0000
  F   F14       1.0  0.75100  0.25000  0.63200  1.0000
  F   F15       1.0  0.92100  0.75000  0.73100  1.0000
  F   F16       1.0  0.25300  0.04990  0.85600  1.0000
  F   F17       1.0  0.25300  0.45000  0.85600  1.0000
  F   F18       1.0  0.66800  0.25000  0.87200  1.0000
  F   F19       1.0  0.57600  0.75000  0.89500  1.0000
  F   F20       1.0  0.06400  0.25000  0.98300  1.0000
  H   H1        1.0  0.07220  0.25000  0.15100  1.0000
  H   H2        1.0  0.92800  0.75000  0.84900  1.0000
  Nd  Nd1       1.0  0.76200  0.25000  0.34200  1.0000
  Nd  Nd2       1.0  0.23800  0.75000  0.65800  1.0000
