data_image0
_chemical_formula_structural       Br10Pr6Ru
_chemical_formula_sum              "Br10 Pr6 Ru1"
_cell_length_a       9.32541
_cell_length_b       9.60241
_cell_length_c       7.66209
_cell_angle_alpha    97.0367
_cell_angle_beta     107.466
_cell_angle_gamma    109.633

_space_group_name_H-M_alt    "P 1"
_space_group_IT_number       1

loop_
  _space_group_symop_operation_xyz
  'x, y, z'

loop_
  _atom_site_type_symbol
  _atom_site_label
  _atom_site_symmetry_multiplicity
  _atom_site_fract_x
  _atom_site_fract_y
  _atom_site_fract_z
  _atom_site_occupancy
  Br  Br1       1.0  0.37000  0.82600  0.09140  1.0000
  Br  Br2       1.0  0.73000  0.64000  0.18700  1.0000
  Br  Br3       1.0  0.08370  0.45500  0.26000  1.0000
  Br  Br4       1.0  0.48100  0.28200  0.37100  1.0000
  Br  Br5       1.0  0.82300  0.08100  0.44300  1.0000
  Br  Br6       1.0  0.17700  0.91900  0.55700  1.0000
  Br  Br7       1.0  0.51900  0.71800  0.62900  1.0000
  Br  Br8       1.0  0.91600  0.54500  0.74000  1.0000
  Br  Br9       1.0  0.27000  0.36000  0.81300  1.0000
  Br  Br10      1.0  0.63000  0.17400  0.90900  1.0000
  Pr  Pr1       1.0  0.70600  0.90800  0.02260  1.0000
  Pr  Pr2       1.0  0.04910  0.74700  0.13400  1.0000
  Pr  Pr3       1.0  0.15800  0.19500  0.38300  1.0000
  Pr  Pr4       1.0  0.84200  0.80500  0.61700  1.0000
  Pr  Pr5       1.0  0.95100  0.25300  0.86600  1.0000
  Pr  Pr6       1.0  0.29400  0.09230  0.97700  1.0000
  Ru  Ru1       1.0  0.00000  0.00000  0.00000  1.0000
