data_image0
_chemical_formula_structural       I10RuY6
_chemical_formula_sum              "I10 Ru1 Y6"
_cell_length_a       9.62913
_cell_length_b       9.776
_cell_length_c       7.72098
_cell_angle_alpha    97.1078
_cell_angle_beta     104.841
_cell_angle_gamma    107.562

_space_group_name_H-M_alt    "P 1"
_space_group_IT_number       1

loop_
  _space_group_symop_operation_xyz
  'x, y, z'

loop_
  _atom_site_type_symbol
  _atom_site_label
  _atom_site_symmetry_multiplicity
  _atom_site_fract_x
  _atom_site_fract_y
  _atom_site_fract_z
  _atom_site_occupancy
  I   I1        1.0  0.37100  0.82100  0.08670  1.0000
  I   I2        1.0  0.73700  0.65100  0.21100  1.0000
  I   I3        1.0  0.09030  0.46500  0.26500  1.0000
  I   I4        1.0  0.45600  0.27500  0.35400  1.0000
  I   I5        1.0  0.81400  0.09040  0.45000  1.0000
  I   I6        1.0  0.18600  0.91000  0.55000  1.0000
  I   I7        1.0  0.54400  0.72500  0.64600  1.0000
  I   I8        1.0  0.91000  0.53500  0.73500  1.0000
  I   I9        1.0  0.26300  0.34900  0.78900  1.0000
  I   I10       1.0  0.62900  0.17900  0.91300  1.0000
  Ru  Ru1       1.0  0.00000  0.00000  0.00000  1.0000
  Y   Y1        1.0  0.72700  0.92000  0.02870  1.0000
  Y   Y2        1.0  0.04150  0.75400  0.11500  1.0000
  Y   Y3        1.0  0.13000  0.16900  0.35600  1.0000
  Y   Y4        1.0  0.87000  0.83100  0.64400  1.0000
  Y   Y5        1.0  0.95800  0.24600  0.88500  1.0000
  Y   Y6        1.0  0.27300  0.08020  0.97100  1.0000
