data_image0
_chemical_formula_structural       B6La3Ru8
_chemical_formula_sum              "B6 La3 Ru8"
_cell_length_a       5.58005
_cell_length_b       5.65203
_cell_length_c       9.23576
_cell_angle_alpha    98.576
_cell_angle_beta     107.583
_cell_angle_gamma    60.4204

_space_group_name_H-M_alt    "P 1"
_space_group_IT_number       1

loop_
  _space_group_symop_operation_xyz
  'x, y, z'

loop_
  _atom_site_type_symbol
  _atom_site_label
  _atom_site_symmetry_multiplicity
  _atom_site_fract_x
  _atom_site_fract_y
  _atom_site_fract_z
  _atom_site_occupancy
  B   B1        1.0  0.33100  0.33800  0.00000  1.0000
  B   B2        1.0  0.66900  0.66200  0.00000  1.0000
  B   B3        1.0  0.50800  0.32700  0.34200  1.0000
  B   B4        1.0  0.83400  0.67300  0.34200  1.0000
  B   B5        1.0  0.16600  0.32700  0.65800  1.0000
  B   B6        1.0  0.49200  0.67300  0.65800  1.0000
  La  La1       1.0  0.00000  0.00000  0.00000  1.0000
  La  La2       1.0  0.18200  0.00000  0.36400  1.0000
  La  La3       1.0  0.81800  0.00000  0.63600  1.0000
  Ru  Ru1       1.0  0.08590  0.50000  0.17200  1.0000
  Ru  Ru2       1.0  0.58600  0.50000  0.17200  1.0000
  Ru  Ru3       1.0  0.58600  0.00000  0.17300  1.0000
  Ru  Ru4       1.0  0.25000  0.50000  0.50000  1.0000
  Ru  Ru5       1.0  0.75000  0.50000  0.50000  1.0000
  Ru  Ru6       1.0  0.41400  0.00000  0.82700  1.0000
  Ru  Ru7       1.0  0.41400  0.50000  0.82800  1.0000
  Ru  Ru8       1.0  0.91400  0.50000  0.82800  1.0000
