data_image0
_chemical_formula_structural       Ga2O11Te4
_chemical_formula_sum              "Ga2 O11 Te4"
_cell_length_a       5.06349
_cell_length_b       6.50386
_cell_length_c       8.03152
_cell_angle_alpha    74.1761
_cell_angle_beta     89.8329
_cell_angle_gamma    69.9549

_space_group_name_H-M_alt    "P 1"
_space_group_IT_number       1

loop_
  _space_group_symop_operation_xyz
  'x, y, z'

loop_
  _atom_site_type_symbol
  _atom_site_label
  _atom_site_symmetry_multiplicity
  _atom_site_fract_x
  _atom_site_fract_y
  _atom_site_fract_z
  _atom_site_occupancy
  Ga  Ga1       1.0  0.92600  0.95900  0.02700  1.0000
  Ga  Ga2       1.0  0.60200  0.58400  0.38600  1.0000
  O   O1        1.0  0.85600  0.68300  0.05040  1.0000
  O   O2        1.0  0.94400  0.13300  0.17900  1.0000
  O   O3        1.0  0.28500  0.67800  0.21900  1.0000
  O   O4        1.0  0.64000  0.87500  0.32300  1.0000
  O   O5        1.0  0.98700  0.39400  0.39200  1.0000
  O   O6        1.0  0.54900  0.27000  0.40800  1.0000
  O   O7        1.0  0.49000  0.55800  0.61200  1.0000
  O   O8        1.0  0.65400  0.89300  0.69000  1.0000
  O   O9        1.0  0.01850  0.43400  0.82300  1.0000
  O   O10       1.0  0.17700  0.96300  0.85400  1.0000
  O   O11       1.0  0.56900  0.18100  0.91800  1.0000
  Te  Te1       1.0  0.18700  0.42300  0.18800  1.0000
  Te  Te2       1.0  0.86600  0.00242  0.41600  1.0000
  Te  Te3       1.0  0.32100  0.19800  0.73300  1.0000
  Te  Te4       1.0  0.62500  0.60600  0.82100  1.0000
