data_image0
_chemical_formula_structural       Cs2Gd6N2Te7
_chemical_formula_sum              "Cs2 Gd6 N2 Te7"
_cell_length_a       4.25193
_cell_length_b       11.5263
_cell_length_c       12.3196
_cell_angle_alpha    103.495
_cell_angle_beta     99.9371
_cell_angle_gamma    90

_space_group_name_H-M_alt    "P 1"
_space_group_IT_number       1

loop_
  _space_group_symop_operation_xyz
  'x, y, z'

loop_
  _atom_site_type_symbol
  _atom_site_label
  _atom_site_symmetry_multiplicity
  _atom_site_fract_x
  _atom_site_fract_y
  _atom_site_fract_z
  _atom_site_occupancy
  Cs  Cs1       1.0  0.06620  0.69900  0.13200  1.0000
  Cs  Cs2       1.0  0.93400  0.30100  0.86800  1.0000
  Gd  Gd1       1.0  0.59100  0.13700  0.18100  1.0000
  Gd  Gd2       1.0  0.16500  0.38900  0.32900  1.0000
  Gd  Gd3       1.0  0.21500  0.13000  0.43000  1.0000
  Gd  Gd4       1.0  0.78500  0.87000  0.57000  1.0000
  Gd  Gd5       1.0  0.83500  0.61100  0.67100  1.0000
  Gd  Gd6       1.0  0.40900  0.86300  0.81900  1.0000
  N   N1        1.0  0.13700  0.19400  0.27400  1.0000
  N   N2        1.0  0.86300  0.80600  0.72600  1.0000
  Te  Te1       1.0  0.00000  0.00000  0.00000  1.0000
  Te  Te2       1.0  0.57500  0.40400  0.15100  1.0000
  Te  Te3       1.0  0.66400  0.94300  0.32800  1.0000
  Te  Te4       1.0  0.24100  0.66200  0.48200  1.0000
  Te  Te5       1.0  0.75900  0.33800  0.51800  1.0000
  Te  Te6       1.0  0.33600  0.05720  0.67200  1.0000
  Te  Te7       1.0  0.42500  0.59600  0.84900  1.0000
