data_image0
_chemical_formula_structural       EuP12Ru4
_chemical_formula_sum              "Eu1 P12 Ru4"
_cell_length_a       7.005
_cell_length_b       7.005
_cell_length_c       7.005
_cell_angle_alpha    109.471
_cell_angle_beta     109.471
_cell_angle_gamma    109.471

_space_group_name_H-M_alt    "P 1"
_space_group_IT_number       1

loop_
  _space_group_symop_operation_xyz
  'x, y, z'

loop_
  _atom_site_type_symbol
  _atom_site_label
  _atom_site_symmetry_multiplicity
  _atom_site_fract_x
  _atom_site_fract_y
  _atom_site_fract_z
  _atom_site_occupancy
  Eu  Eu1       1.0  0.00000  0.00000  0.00000  1.0000
  P   P1        1.0  0.35900  0.50200  0.14300  1.0000
  P   P2        1.0  0.64100  0.78400  0.14300  1.0000
  P   P3        1.0  0.85700  0.35900  0.21600  1.0000
  P   P4        1.0  0.50200  0.14300  0.35900  1.0000
  P   P5        1.0  0.21600  0.85700  0.35900  1.0000
  P   P6        1.0  0.85700  0.64100  0.49800  1.0000
  P   P7        1.0  0.14300  0.35900  0.50200  1.0000
  P   P8        1.0  0.78400  0.14300  0.64100  1.0000
  P   P9        1.0  0.49800  0.85700  0.64100  1.0000
  P   P10       1.0  0.14300  0.64100  0.78400  1.0000
  P   P11       1.0  0.35900  0.21600  0.85700  1.0000
  P   P12       1.0  0.64100  0.49800  0.85700  1.0000
  Ru  Ru1       1.0  0.50000  0.00000  0.00000  1.0000
  Ru  Ru2       1.0  0.00000  0.50000  0.00000  1.0000
  Ru  Ru3       1.0  0.00000  0.00000  0.50000  1.0000
  Ru  Ru4       1.0  0.50000  0.50000  0.50000  1.0000
