data_image0
_chemical_formula_structural       C2Cl2H10N4O8S2
_chemical_formula_sum              "C2 Cl2 H10 N4 O8 S2"
_cell_length_a       5.0212
_cell_length_b       8.36274
_cell_length_c       7.34633
_cell_angle_alpha    104.381
_cell_angle_beta     94.5214
_cell_angle_gamma    105.01

_space_group_name_H-M_alt    "P 1"
_space_group_IT_number       1

loop_
  _space_group_symop_operation_xyz
  'x, y, z'

loop_
  _atom_site_type_symbol
  _atom_site_label
  _atom_site_symmetry_multiplicity
  _atom_site_fract_x
  _atom_site_fract_y
  _atom_site_fract_z
  _atom_site_occupancy
  C   C1        1.0  0.61700  0.73800  0.17100  1.0000
  C   C2        1.0  0.38300  0.26200  0.82900  1.0000
  Cl  Cl1       1.0  0.99400  0.23100  0.27000  1.0000
  Cl  Cl2       1.0  0.00575  0.76900  0.73000  1.0000
  H   H1        1.0  0.52500  0.22000  0.07780  1.0000
  H   H2        1.0  0.25800  0.91000  0.17900  1.0000
  H   H3        1.0  0.77000  0.57800  0.35400  1.0000
  H   H4        1.0  0.21000  0.91200  0.40300  1.0000
  H   H5        1.0  0.45300  0.73300  0.41500  1.0000
  H   H6        1.0  0.54700  0.26700  0.58500  1.0000
  H   H7        1.0  0.79000  0.08790  0.59700  1.0000
  H   H8        1.0  0.23000  0.42200  0.64600  1.0000
  H   H9        1.0  0.74200  0.08990  0.82100  1.0000
  H   H10       1.0  0.47500  0.78000  0.92200  1.0000
  N   N1        1.0  0.46600  0.78400  0.30200  1.0000
  N   N2        1.0  0.35400  0.91900  0.31100  1.0000
  N   N3        1.0  0.64600  0.08070  0.68900  1.0000
  N   N4        1.0  0.53400  0.21600  0.69800  1.0000
  O   O1        1.0  0.64400  0.81400  0.03240  1.0000
  O   O2        1.0  0.70500  0.26000  0.26200  1.0000
  O   O3        1.0  0.19800  0.40200  0.37100  1.0000
  O   O4        1.0  0.99500  0.11500  0.39500  1.0000
  O   O5        1.0  0.00465  0.88500  0.60500  1.0000
  O   O6        1.0  0.80200  0.59800  0.62900  1.0000
  O   O7        1.0  0.29500  0.74000  0.73800  1.0000
  O   O8        1.0  0.35600  0.18600  0.96800  1.0000
  S   S1        1.0  0.79300  0.58700  0.17200  1.0000
  S   S2        1.0  0.20700  0.41300  0.82800  1.0000
