data_image0
_chemical_formula_structural       Cl10Fe2Tl6
_chemical_formula_sum              "Cl10 Fe2 Tl6"
_cell_length_a       8.42845
_cell_length_b       8.42845
_cell_length_c       9.48216
_cell_angle_alpha    116.387
_cell_angle_beta     116.387
_cell_angle_gamma    90

_space_group_name_H-M_alt    "P 1"
_space_group_IT_number       1

loop_
  _space_group_symop_operation_xyz
  'x, y, z'

loop_
  _atom_site_type_symbol
  _atom_site_label
  _atom_site_symmetry_multiplicity
  _atom_site_fract_x
  _atom_site_fract_y
  _atom_site_fract_z
  _atom_site_occupancy
  Cl  Cl1       1.0  0.00000  0.00000  0.00000  1.0000
  Cl  Cl2       1.0  0.50000  0.50000  0.00000  1.0000
  Cl  Cl3       1.0  0.80400  0.00311  0.30800  1.0000
  Cl  Cl4       1.0  0.50300  0.30400  0.30800  1.0000
  Cl  Cl5       1.0  0.00311  0.50300  0.30800  1.0000
  Cl  Cl6       1.0  0.30400  0.80400  0.30800  1.0000
  Cl  Cl7       1.0  0.69600  0.19600  0.69200  1.0000
  Cl  Cl8       1.0  0.99700  0.49700  0.69200  1.0000
  Cl  Cl9       1.0  0.49700  0.69600  0.69200  1.0000
  Cl  Cl10      1.0  0.19600  0.99700  0.69200  1.0000
  Fe  Fe1       1.0  0.75000  0.25000  0.50000  1.0000
  Fe  Fe2       1.0  0.25000  0.75000  0.50000  1.0000
  Tl  Tl1       1.0  0.66200  0.16200  0.00000  1.0000
  Tl  Tl2       1.0  0.16200  0.33800  0.00000  1.0000
  Tl  Tl3       1.0  0.83800  0.66200  0.00000  1.0000
  Tl  Tl4       1.0  0.33800  0.83800  0.00000  1.0000
  Tl  Tl5       1.0  0.25000  0.25000  0.50000  1.0000
  Tl  Tl6       1.0  0.75000  0.75000  0.50000  1.0000
