data_image0
_chemical_formula_structural       ClFNa6O8S2
_chemical_formula_sum              "Cl1 F1 Na6 O8 S2"
_cell_length_a       7.05442
_cell_length_b       7.05442
_cell_length_c       7.05442
_cell_angle_alpha    120
_cell_angle_beta     90
_cell_angle_gamma    120

_space_group_name_H-M_alt    "P 1"
_space_group_IT_number       1

loop_
  _space_group_symop_operation_xyz
  'x, y, z'

loop_
  _atom_site_type_symbol
  _atom_site_label
  _atom_site_symmetry_multiplicity
  _atom_site_fract_x
  _atom_site_fract_y
  _atom_site_fract_z
  _atom_site_occupancy
  Cl  Cl1       1.0  0.50000  0.00000  0.50000  1.0000
  F   F1        1.0  0.00000  0.00000  0.00000  1.0000
  Na  Na1       1.0  0.77600  0.00000  0.22400  1.0000
  Na  Na2       1.0  0.22400  0.00000  0.22400  1.0000
  Na  Na3       1.0  0.22400  0.44700  0.22400  1.0000
  Na  Na4       1.0  0.22400  0.00000  0.77600  1.0000
  Na  Na5       1.0  0.77600  0.55300  0.77600  1.0000
  Na  Na6       1.0  0.77600  0.00000  0.77600  1.0000
  O   O1        1.0  0.49100  0.32800  0.16400  1.0000
  O   O2        1.0  0.83600  0.32800  0.16400  1.0000
  O   O3        1.0  0.83600  0.67200  0.16400  1.0000
  O   O4        1.0  0.16400  0.32800  0.49100  1.0000
  O   O5        1.0  0.83600  0.67200  0.50900  1.0000
  O   O6        1.0  0.16400  0.67200  0.83600  1.0000
  O   O7        1.0  0.50900  0.67200  0.83600  1.0000
  O   O8        1.0  0.16400  0.32800  0.83600  1.0000
  S   S1        1.0  0.75000  0.50000  0.25000  1.0000
  S   S2        1.0  0.25000  0.50000  0.75000  1.0000
