data_image0
_chemical_formula_structural       H12O12Sr4Zn2
_chemical_formula_sum              "H12 O12 Sr4 Zn2"
_cell_length_a       5.9386
_cell_length_b       6.97838
_cell_length_c       7.43262
_cell_angle_alpha    90
_cell_angle_beta     104.866
_cell_angle_gamma    90

_space_group_name_H-M_alt    "P 1"
_space_group_IT_number       1

loop_
  _space_group_symop_operation_xyz
  'x, y, z'

loop_
  _atom_site_type_symbol
  _atom_site_label
  _atom_site_symmetry_multiplicity
  _atom_site_fract_x
  _atom_site_fract_y
  _atom_site_fract_z
  _atom_site_occupancy
  H   H1        1.0  0.92100  0.10600  0.05720  1.0000
  H   H2        1.0  0.01550  0.18300  0.07130  1.0000
  H   H3        1.0  0.83400  0.28300  0.18200  1.0000
  H   H4        1.0  0.66600  0.78300  0.31800  1.0000
  H   H5        1.0  0.48500  0.68300  0.42900  1.0000
  H   H6        1.0  0.57900  0.60600  0.44300  1.0000
  H   H7        1.0  0.42100  0.39400  0.55700  1.0000
  H   H8        1.0  0.51500  0.31700  0.57100  1.0000
  H   H9        1.0  0.33400  0.21700  0.68200  1.0000
  H   H10       1.0  0.16600  0.71700  0.81800  1.0000
  H   H11       1.0  0.98500  0.81700  0.92900  1.0000
  H   H12       1.0  0.07900  0.89400  0.94300  1.0000
  O   O1        1.0  0.24800  0.41100  0.07410  1.0000
  O   O2        1.0  0.43700  0.81900  0.08150  1.0000
  O   O3        1.0  0.67800  0.85100  0.20400  1.0000
  O   O4        1.0  0.82200  0.35100  0.29600  1.0000
  O   O5        1.0  0.06270  0.31900  0.41800  1.0000
  O   O6        1.0  0.25200  0.91100  0.42600  1.0000
  O   O7        1.0  0.74800  0.08930  0.57400  1.0000
  O   O8        1.0  0.93700  0.68100  0.58200  1.0000
  O   O9        1.0  0.17800  0.64900  0.70400  1.0000
  O   O10       1.0  0.32200  0.14900  0.79600  1.0000
  O   O11       1.0  0.56300  0.18100  0.91800  1.0000
  O   O12       1.0  0.75200  0.58900  0.92600  1.0000
  Sr  Sr1       1.0  0.06750  0.63400  0.23600  1.0000
  Sr  Sr2       1.0  0.43300  0.13400  0.26400  1.0000
  Sr  Sr3       1.0  0.56700  0.86600  0.73600  1.0000
  Sr  Sr4       1.0  0.93300  0.36600  0.76400  1.0000
  Zn  Zn1       1.0  0.50000  0.50000  0.00000  1.0000
  Zn  Zn2       1.0  0.00000  0.00000  0.50000  1.0000
