data_image0
_chemical_formula_structural       Br10OTa2Te4
_chemical_formula_sum              "Br10 O1 Ta2 Te4"
_cell_length_a       7.37217
_cell_length_b       8.85543
_cell_length_c       9.56843
_cell_angle_alpha    83.4804
_cell_angle_beta     91.4095
_cell_angle_gamma    74.2345

_space_group_name_H-M_alt    "P 1"
_space_group_IT_number       1

loop_
  _space_group_symop_operation_xyz
  'x, y, z'

loop_
  _atom_site_type_symbol
  _atom_site_label
  _atom_site_symmetry_multiplicity
  _atom_site_fract_x
  _atom_site_fract_y
  _atom_site_fract_z
  _atom_site_occupancy
  Br  Br1       1.0  0.46300  0.16400  0.17600  1.0000
  Br  Br2       1.0  0.60500  0.52900  0.17700  1.0000
  Br  Br3       1.0  0.14600  0.53300  0.27700  1.0000
  Br  Br4       1.0  0.81300  0.19400  0.43000  1.0000
  Br  Br5       1.0  0.66300  0.79500  0.46400  1.0000
  Br  Br6       1.0  0.33700  0.20500  0.53600  1.0000
  Br  Br7       1.0  0.18700  0.80600  0.57000  1.0000
  Br  Br8       1.0  0.85400  0.46700  0.72300  1.0000
  Br  Br9       1.0  0.39500  0.47100  0.82300  1.0000
  Br  Br10      1.0  0.53700  0.83600  0.82400  1.0000
  O   O1        1.0  0.50000  0.50000  0.50000  1.0000
  Ta  Ta1       1.0  0.48500  0.36100  0.36500  1.0000
  Ta  Ta2       1.0  0.51500  0.63900  0.63500  1.0000
  Te  Te1       1.0  0.91500  0.81300  0.99900  1.0000
  Te  Te2       1.0  0.08490  0.18700  0.00070  1.0000
  Te  Te3       1.0  0.18700  0.89300  0.15100  1.0000
  Te  Te4       1.0  0.81300  0.10700  0.84900  1.0000
