data_image0
_chemical_formula_structural       Cl4H16N4O4Pt2
_chemical_formula_sum              "Cl4 H16 N4 O4 Pt2"
_cell_length_a       5.91552
_cell_length_b       6.7489
_cell_length_c       8.11399
_cell_angle_alpha    90
_cell_angle_beta     106.569
_cell_angle_gamma    90

_space_group_name_H-M_alt    "P 1"
_space_group_IT_number       1

loop_
  _space_group_symop_operation_xyz
  'x, y, z'

loop_
  _atom_site_type_symbol
  _atom_site_label
  _atom_site_symmetry_multiplicity
  _atom_site_fract_x
  _atom_site_fract_y
  _atom_site_fract_z
  _atom_site_occupancy
  Cl  Cl1       1.0  0.35300  0.16700  0.12100  1.0000
  Cl  Cl2       1.0  0.64700  0.66700  0.37900  1.0000
  Cl  Cl3       1.0  0.35300  0.33300  0.62100  1.0000
  Cl  Cl4       1.0  0.64700  0.83300  0.87900  1.0000
  H   H1        1.0  0.35700  0.75800  0.06920  1.0000
  H   H2        1.0  0.87200  0.34700  0.07950  1.0000
  H   H3        1.0  0.13600  0.65200  0.13200  1.0000
  H   H4        1.0  0.81400  0.88400  0.22200  1.0000
  H   H5        1.0  0.18600  0.38400  0.27800  1.0000
  H   H6        1.0  0.86400  0.15200  0.36800  1.0000
  H   H7        1.0  0.12800  0.84700  0.42100  1.0000
  H   H8        1.0  0.64300  0.25800  0.43100  1.0000
  H   H9        1.0  0.35700  0.74200  0.56900  1.0000
  H   H10       1.0  0.87200  0.15300  0.57900  1.0000
  H   H11       1.0  0.13600  0.84800  0.63200  1.0000
  H   H12       1.0  0.81400  0.61600  0.72200  1.0000
  H   H13       1.0  0.18600  0.11600  0.77800  1.0000
  H   H14       1.0  0.86400  0.34800  0.86800  1.0000
  H   H15       1.0  0.12800  0.65300  0.92100  1.0000
  H   H16       1.0  0.64300  0.24200  0.93100  1.0000
  N   N1        1.0  0.17900  0.73400  0.03560  1.0000
  N   N2        1.0  0.82100  0.23400  0.46400  1.0000
  N   N3        1.0  0.17900  0.76600  0.53600  1.0000
  N   N4        1.0  0.82100  0.26600  0.96400  1.0000
  O   O1        1.0  0.94900  0.97400  0.23600  1.0000
  O   O2        1.0  0.05130  0.47400  0.26400  1.0000
  O   O3        1.0  0.94900  0.52600  0.73600  1.0000
  O   O4        1.0  0.05130  0.02570  0.76400  1.0000
  Pt  Pt1       1.0  0.00000  0.00000  0.00000  1.0000
  Pt  Pt2       1.0  0.00000  0.50000  0.50000  1.0000
