data_image0
_chemical_formula_structural       O12V4W2
_chemical_formula_sum              "O12 V4 W2"
_cell_length_a       4.64098
_cell_length_b       4.64098
_cell_length_c       9.03402
_cell_angle_alpha    90
_cell_angle_beta     90
_cell_angle_gamma    90

_space_group_name_H-M_alt    "P 1"
_space_group_IT_number       1

loop_
  _space_group_symop_operation_xyz
  'x, y, z'

loop_
  _atom_site_type_symbol
  _atom_site_label
  _atom_site_symmetry_multiplicity
  _atom_site_fract_x
  _atom_site_fract_y
  _atom_site_fract_z
  _atom_site_occupancy
  O   O1        1.0  0.29400  0.29400  0.00000  1.0000
  O   O2        1.0  0.70600  0.70600  0.00000  1.0000
  O   O3        1.0  0.80200  0.19800  0.15800  1.0000
  O   O4        1.0  0.19800  0.80200  0.15800  1.0000
  O   O5        1.0  0.30200  0.30200  0.34200  1.0000
  O   O6        1.0  0.69800  0.69800  0.34200  1.0000
  O   O7        1.0  0.79400  0.20600  0.50000  1.0000
  O   O8        1.0  0.20600  0.79400  0.50000  1.0000
  O   O9        1.0  0.30200  0.30200  0.65800  1.0000
  O   O10       1.0  0.69800  0.69800  0.65800  1.0000
  O   O11       1.0  0.80200  0.19800  0.84200  1.0000
  O   O12       1.0  0.19800  0.80200  0.84200  1.0000
  V   V1        1.0  0.50000  0.50000  0.16700  1.0000
  V   V2        1.0  0.00000  0.00000  0.33300  1.0000
  V   V3        1.0  0.00000  0.00000  0.66700  1.0000
  V   V4        1.0  0.50000  0.50000  0.83300  1.0000
  W   W1        1.0  0.00000  0.00000  0.00000  1.0000
  W   W2        1.0  0.50000  0.50000  0.50000  1.0000
