data_image0
_chemical_formula_structural       AlAsO4
_chemical_formula_sum              "Al1 As1 O4"
_cell_length_a       4.89228
_cell_length_b       4.89228
_cell_length_c       4.89228
_cell_angle_alpha    90.928
_cell_angle_beta     119.466
_cell_angle_gamma    119.466

_space_group_name_H-M_alt    "P 1"
_space_group_IT_number       1

loop_
  _space_group_symop_operation_xyz
  'x, y, z'

loop_
  _atom_site_type_symbol
  _atom_site_label
  _atom_site_symmetry_multiplicity
  _atom_site_fract_x
  _atom_site_fract_y
  _atom_site_fract_z
  _atom_site_occupancy
  Al  Al1       1.0  0.00000  0.00000  0.00000  1.0000
  As  As1       1.0  0.50000  0.25000  0.75000  1.0000
  O   O1        1.0  0.43400  0.13900  0.05170  1.0000
  O   O2        1.0  0.08680  0.94800  0.38200  1.0000
  O   O3        1.0  0.56600  0.61800  0.70400  1.0000
  O   O4        1.0  0.91300  0.29600  0.86100  1.0000
