data_image0
_chemical_formula_structural       C2Er2H10O14P2
_chemical_formula_sum              "C2 Er2 H10 O14 P2"
_cell_length_a       6.31676
_cell_length_b       6.72667
_cell_length_c       7.38655
_cell_angle_alpha    110.392
_cell_angle_beta     94.3968
_cell_angle_gamma    91.7329

_space_group_name_H-M_alt    "P 1"
_space_group_IT_number       1

loop_
  _space_group_symop_operation_xyz
  'x, y, z'

loop_
  _atom_site_type_symbol
  _atom_site_label
  _atom_site_symmetry_multiplicity
  _atom_site_fract_x
  _atom_site_fract_y
  _atom_site_fract_z
  _atom_site_occupancy
  C   C1        1.0  0.94200  0.09650  0.49600  1.0000
  C   C2        1.0  0.05760  0.90400  0.50400  1.0000
  Er  Er1       1.0  0.87600  0.77600  0.06230  1.0000
  Er  Er2       1.0  0.12400  0.22400  0.93800  1.0000
  H   H1        1.0  0.59000  0.27200  0.19200  1.0000
  H   H2        1.0  0.16900  0.52700  0.32100  1.0000
  H   H3        1.0  0.29000  0.32800  0.35700  1.0000
  H   H4        1.0  0.54300  0.76200  0.38000  1.0000
  H   H5        1.0  0.53000  0.12700  0.41200  1.0000
  H   H6        1.0  0.47000  0.87300  0.58800  1.0000
  H   H7        1.0  0.45700  0.23800  0.62000  1.0000
  H   H8        1.0  0.71000  0.67200  0.64300  1.0000
  H   H9        1.0  0.83100  0.47300  0.67900  1.0000
  H   H10       1.0  0.41000  0.72800  0.80800  1.0000
  O   O1        1.0  0.82300  0.43000  0.03600  1.0000
  O   O2        1.0  0.20600  0.95400  0.05040  1.0000
  O   O3        1.0  0.53400  0.77100  0.12900  1.0000
  O   O4        1.0  0.22400  0.38500  0.25800  1.0000
  O   O5        1.0  0.84900  0.08600  0.33600  1.0000
  O   O6        1.0  0.04910  0.74700  0.34600  1.0000
  O   O7        1.0  0.41200  0.19900  0.48100  1.0000
  O   O8        1.0  0.58800  0.80100  0.51900  1.0000
  O   O9        1.0  0.95100  0.25300  0.65400  1.0000
  O   O10       1.0  0.15100  0.91400  0.66400  1.0000
  O   O11       1.0  0.77600  0.61500  0.74200  1.0000
  O   O12       1.0  0.46600  0.22900  0.87100  1.0000
  O   O13       1.0  0.79400  0.04610  0.95000  1.0000
  O   O14       1.0  0.17700  0.57000  0.96400  1.0000
  P   P1        1.0  0.66100  0.24500  0.01170  1.0000
  P   P2        1.0  0.33900  0.75500  0.98800  1.0000
