data_image0
_chemical_formula_structural       Cu2F12Sr4
_chemical_formula_sum              "Cu2 F12 Sr4"
_cell_length_a       8.59912
_cell_length_b       5.62562
_cell_length_c       5.62672
_cell_angle_alpha    90
_cell_angle_beta     90
_cell_angle_gamma    109.093

_space_group_name_H-M_alt    "P 1"
_space_group_IT_number       1

loop_
  _space_group_symop_operation_xyz
  'x, y, z'

loop_
  _atom_site_type_symbol
  _atom_site_label
  _atom_site_symmetry_multiplicity
  _atom_site_fract_x
  _atom_site_fract_y
  _atom_site_fract_z
  _atom_site_occupancy
  Cu  Cu1       1.0  0.00000  0.50000  0.00000  1.0000
  Cu  Cu2       1.0  0.00000  0.00000  0.50000  1.0000
  F   F1        1.0  0.83800  0.59000  0.17200  1.0000
  F   F2        1.0  0.16200  0.75200  0.17200  1.0000
  F   F3        1.0  0.50000  0.00508  0.25000  1.0000
  F   F4        1.0  0.50000  0.50500  0.25000  1.0000
  F   F5        1.0  0.83800  0.09030  0.32800  1.0000
  F   F6        1.0  0.16200  0.25200  0.32800  1.0000
  F   F7        1.0  0.83800  0.74800  0.67200  1.0000
  F   F8        1.0  0.16200  0.91000  0.67200  1.0000
  F   F9        1.0  0.50000  0.99500  0.75000  1.0000
  F   F10       1.0  0.50000  0.49500  0.75000  1.0000
  F   F11       1.0  0.83800  0.24800  0.82800  1.0000
  F   F12       1.0  0.16200  0.41000  0.82800  1.0000
  Sr  Sr1       1.0  0.32300  0.16100  0.00000  1.0000
  Sr  Sr2       1.0  0.67700  0.83900  0.00000  1.0000
  Sr  Sr3       1.0  0.67700  0.33900  0.50000  1.0000
  Sr  Sr4       1.0  0.32300  0.66100  0.50000  1.0000
