data_image0
_chemical_formula_structural       H2Na4O18P6
_chemical_formula_sum              "H2 Na4 O18 P6"
_cell_length_a       7.60564
_cell_length_b       6.69543
_cell_length_c       6.97395
_cell_angle_alpha    91.0392
_cell_angle_beta     92.5389
_cell_angle_gamma    102.613

_space_group_name_H-M_alt    "P 1"
_space_group_IT_number       1

loop_
  _space_group_symop_operation_xyz
  'x, y, z'

loop_
  _atom_site_type_symbol
  _atom_site_label
  _atom_site_symmetry_multiplicity
  _atom_site_fract_x
  _atom_site_fract_y
  _atom_site_fract_z
  _atom_site_occupancy
  H   H1        1.0  0.80700  0.82700  0.96600  1.0000
  H   H2        1.0  0.19300  0.17300  0.03380  1.0000
  Na  Na1       1.0  0.13500  0.90600  0.35000  1.0000
  Na  Na2       1.0  0.14900  0.41200  0.35800  1.0000
  Na  Na3       1.0  0.85100  0.58800  0.64200  1.0000
  Na  Na4       1.0  0.86500  0.09390  0.65000  1.0000
  O   O1        1.0  0.18600  0.35800  0.03350  1.0000
  O   O2        1.0  0.20000  0.00096  0.03430  1.0000
  O   O3        1.0  0.70800  0.30000  0.10200  1.0000
  O   O4        1.0  0.58600  0.58500  0.22300  1.0000
  O   O5        1.0  0.58200  0.96300  0.23000  1.0000
  O   O6        1.0  0.91600  0.12000  0.31000  1.0000
  O   O7        1.0  0.91800  0.58500  0.31100  1.0000
  O   O8        1.0  0.34500  0.71300  0.38800  1.0000
  O   O9        1.0  0.32800  0.20300  0.46400  1.0000
  O   O10       1.0  0.67200  0.79700  0.53600  1.0000
  O   O11       1.0  0.65500  0.28700  0.61200  1.0000
  O   O12       1.0  0.08190  0.41500  0.68900  1.0000
  O   O13       1.0  0.08400  0.88000  0.69000  1.0000
  O   O14       1.0  0.41800  0.03690  0.77000  1.0000
  O   O15       1.0  0.41400  0.41500  0.77700  1.0000
  O   O16       1.0  0.29200  0.70000  0.89800  1.0000
  O   O17       1.0  0.80000  0.99900  0.96600  1.0000
  O   O18       1.0  0.81400  0.64200  0.96600  1.0000
  P   P1        1.0  0.77200  0.53900  0.15700  1.0000
  P   P2        1.0  0.76700  0.09310  0.15900  1.0000
  P   P3        1.0  0.54300  0.76300  0.36700  1.0000
  P   P4        1.0  0.45700  0.23700  0.63300  1.0000
  P   P5        1.0  0.23300  0.90700  0.84100  1.0000
  P   P6        1.0  0.22800  0.46100  0.84300  1.0000
