data_image0
_chemical_formula_structural       I10OsY6
_chemical_formula_sum              "I10 Os1 Y6"
_cell_length_a       9.69137
_cell_length_b       9.74256
_cell_length_c       7.71787
_cell_angle_alpha    96.9722
_cell_angle_beta     104.848
_cell_angle_gamma    107.366

_space_group_name_H-M_alt    "P 1"
_space_group_IT_number       1

loop_
  _space_group_symop_operation_xyz
  'x, y, z'

loop_
  _atom_site_type_symbol
  _atom_site_label
  _atom_site_symmetry_multiplicity
  _atom_site_fract_x
  _atom_site_fract_y
  _atom_site_fract_z
  _atom_site_occupancy
  I   I1        1.0  0.37200  0.82000  0.08700  1.0000
  I   I2        1.0  0.73800  0.65100  0.21400  1.0000
  I   I3        1.0  0.08880  0.46300  0.26200  1.0000
  I   I4        1.0  0.45400  0.27400  0.35500  1.0000
  I   I5        1.0  0.81600  0.09200  0.45400  1.0000
  I   I6        1.0  0.18400  0.90800  0.54600  1.0000
  I   I7        1.0  0.54600  0.72600  0.64500  1.0000
  I   I8        1.0  0.91100  0.53700  0.73800  1.0000
  I   I9        1.0  0.26200  0.34900  0.78600  1.0000
  I   I10       1.0  0.62800  0.18000  0.91300  1.0000
  Os  Os1       1.0  0.00000  0.00000  0.00000  1.0000
  Y   Y1        1.0  0.71700  0.91600  0.02930  1.0000
  Y   Y2        1.0  0.04120  0.75800  0.11400  1.0000
  Y   Y3        1.0  0.12700  0.16800  0.35200  1.0000
  Y   Y4        1.0  0.87300  0.83200  0.64800  1.0000
  Y   Y5        1.0  0.95900  0.24200  0.88600  1.0000
  Y   Y6        1.0  0.28300  0.08390  0.97100  1.0000
