data_image0
_chemical_formula_structural       Cu2H12O14S2
_chemical_formula_sum              "Cu2 H12 O14 S2"
_cell_length_a       5.4436
_cell_length_b       6.98235
_cell_length_c       7.15577
_cell_angle_alpha    93.3213
_cell_angle_beta     98.5472
_cell_angle_gamma    67.0572

_space_group_name_H-M_alt    "P 1"
_space_group_IT_number       1

loop_
  _space_group_symop_operation_xyz
  'x, y, z'

loop_
  _atom_site_type_symbol
  _atom_site_label
  _atom_site_symmetry_multiplicity
  _atom_site_fract_x
  _atom_site_fract_y
  _atom_site_fract_z
  _atom_site_occupancy
  Cu  Cu1       1.0  0.13200  0.71300  0.49700  1.0000
  Cu  Cu2       1.0  0.84600  0.28700  0.99700  1.0000
  H   H1        1.0  0.02060  0.81900  0.14100  1.0000
  H   H2        1.0  0.85700  0.67800  0.17700  1.0000
  H   H3        1.0  0.55900  0.17600  0.20800  1.0000
  H   H4        1.0  0.48700  0.60400  0.27700  1.0000
  H   H5        1.0  0.61000  0.63700  0.48700  1.0000
  H   H6        1.0  0.64500  0.91500  0.49800  1.0000
  H   H7        1.0  0.84000  0.18100  0.64100  1.0000
  H   H8        1.0  0.53500  0.32200  0.67700  1.0000
  H   H9        1.0  0.73500  0.82400  0.70800  1.0000
  H   H10       1.0  0.09090  0.39600  0.77700  1.0000
  H   H11       1.0  0.24700  0.36300  0.98700  1.0000
  H   H12       1.0  0.56000  0.08520  0.99800  1.0000
  O   O1        1.0  0.54700  0.63600  0.07030  1.0000
  O   O2        1.0  0.56400  0.21100  0.07570  1.0000
  O   O3        1.0  0.94100  0.77200  0.23800  1.0000
  O   O4        1.0  0.98900  0.33800  0.25500  1.0000
  O   O5        1.0  0.43400  0.08580  0.36800  1.0000
  O   O6        1.0  0.48400  0.57800  0.41300  1.0000
  O   O7        1.0  0.04620  0.07430  0.48900  1.0000
  O   O8        1.0  0.18300  0.36400  0.57000  1.0000
  O   O9        1.0  0.77500  0.78900  0.57600  1.0000
  O   O10       1.0  0.71300  0.22800  0.73800  1.0000
  O   O11       1.0  0.32700  0.66200  0.75500  1.0000
  O   O12       1.0  0.52000  0.91400  0.86800  1.0000
  O   O13       1.0  0.06230  0.42200  0.91300  1.0000
  O   O14       1.0  0.12100  0.92600  0.98900  1.0000
  S   S1        1.0  0.16300  0.21200  0.42100  1.0000
  S   S2        1.0  0.37500  0.78800  0.92100  1.0000
