data_image0
_chemical_formula_structural       Cl2H12Li2O14
_chemical_formula_sum              "Cl2 H12 Li2 O14"
_cell_length_a       8.37643
_cell_length_b       8.43813
_cell_length_c       5.64137
_cell_angle_alpha    90
_cell_angle_beta     90
_cell_angle_gamma    119.758

_space_group_name_H-M_alt    "P 1"
_space_group_IT_number       1

loop_
  _space_group_symop_operation_xyz
  'x, y, z'

loop_
  _atom_site_type_symbol
  _atom_site_label
  _atom_site_symmetry_multiplicity
  _atom_site_fract_x
  _atom_site_fract_y
  _atom_site_fract_z
  _atom_site_occupancy
  Cl  Cl1       1.0  0.66700  0.33500  0.24900  1.0000
  Cl  Cl2       1.0  0.33300  0.66500  0.74900  1.0000
  H   H1        1.0  0.80800  0.70700  0.05950  1.0000
  H   H2        1.0  0.89900  0.70700  0.05950  1.0000
  H   H3        1.0  0.29400  0.19100  0.06120  1.0000
  H   H4        1.0  0.89800  0.19100  0.06120  1.0000
  H   H5        1.0  0.29500  0.10200  0.06230  1.0000
  H   H6        1.0  0.80700  0.10200  0.06230  1.0000
  H   H7        1.0  0.10100  0.29300  0.55900  1.0000
  H   H8        1.0  0.19200  0.29300  0.55900  1.0000
  H   H9        1.0  0.10200  0.80900  0.56100  1.0000
  H   H10       1.0  0.70600  0.80900  0.56100  1.0000
  H   H11       1.0  0.19300  0.89800  0.56200  1.0000
  H   H12       1.0  0.70500  0.89800  0.56200  1.0000
  Li  Li1       1.0  0.00004  0.00008  0.19100  1.0000
  Li  Li2       1.0  0.00000  0.00000  0.69100  1.0000
  O   O1        1.0  0.15700  0.31300  0.08210  1.0000
  O   O2        1.0  0.15900  0.84500  0.08660  1.0000
  O   O3        1.0  0.68600  0.84500  0.08660  1.0000
  O   O4        1.0  0.23900  0.47700  0.15600  1.0000
  O   O5        1.0  0.23900  0.76000  0.15800  1.0000
  O   O6        1.0  0.52100  0.76000  0.15800  1.0000
  O   O7        1.0  0.33200  0.66400  0.46600  1.0000
  O   O8        1.0  0.84300  0.68700  0.58200  1.0000
  O   O9        1.0  0.31400  0.15500  0.58700  1.0000
  O   O10       1.0  0.84100  0.15500  0.58700  1.0000
  O   O11       1.0  0.76100  0.52300  0.65600  1.0000
  O   O12       1.0  0.47900  0.24000  0.65800  1.0000
  O   O13       1.0  0.76100  0.24000  0.65800  1.0000
  O   O14       1.0  0.66800  0.33600  0.96600  1.0000
