data_image0
_chemical_formula_structural       Br4Fe2H16O8
_chemical_formula_sum              "Br4 Fe2 H16 O8"
_cell_length_a       8.61826
_cell_length_b       7.09112
_cell_length_c       6.07193
_cell_angle_alpha    90
_cell_angle_beta     110.961
_cell_angle_gamma    90

_space_group_name_H-M_alt    "P 1"
_space_group_IT_number       1

loop_
  _space_group_symop_operation_xyz
  'x, y, z'

loop_
  _atom_site_type_symbol
  _atom_site_label
  _atom_site_symmetry_multiplicity
  _atom_site_fract_x
  _atom_site_fract_y
  _atom_site_fract_z
  _atom_site_occupancy
  Br  Br1       1.0  0.58500  0.78100  0.32500  1.0000
  Br  Br2       1.0  0.08490  0.71900  0.32500  1.0000
  Br  Br3       1.0  0.91500  0.28100  0.67500  1.0000
  Br  Br4       1.0  0.41500  0.21900  0.67500  1.0000
  Fe  Fe1       1.0  0.50000  0.50000  0.00000  1.0000
  Fe  Fe2       1.0  0.00000  0.00000  0.00000  1.0000
  H   H1        1.0  0.21300  0.56600  0.10700  1.0000
  H   H2        1.0  0.71300  0.93400  0.10700  1.0000
  H   H3        1.0  0.84200  0.56500  0.11800  1.0000
  H   H4        1.0  0.34200  0.93500  0.11800  1.0000
  H   H5        1.0  0.98300  0.22500  0.35000  1.0000
  H   H6        1.0  0.48300  0.27500  0.35000  1.0000
  H   H7        1.0  0.17100  0.20100  0.38500  1.0000
  H   H8        1.0  0.67100  0.29900  0.38500  1.0000
  H   H9        1.0  0.32900  0.70100  0.61500  1.0000
  H   H10       1.0  0.82900  0.79900  0.61500  1.0000
  H   H11       1.0  0.51700  0.72500  0.65000  1.0000
  H   H12       1.0  0.01720  0.77500  0.65000  1.0000
  H   H13       1.0  0.65800  0.06540  0.88200  1.0000
  H   H14       1.0  0.15800  0.43500  0.88200  1.0000
  H   H15       1.0  0.78700  0.43400  0.89300  1.0000
  H   H16       1.0  0.28700  0.06610  0.89300  1.0000
  O   O1        1.0  0.75300  0.99400  0.99000  1.0000
  O   O2        1.0  0.25300  0.50600  0.99000  1.0000
  O   O3        1.0  0.74700  0.49400  0.00966  1.0000
  O   O4        1.0  0.24700  0.00582  0.00966  1.0000
  O   O5        1.0  0.05790  0.20300  0.26200  1.0000
  O   O6        1.0  0.55800  0.29700  0.26200  1.0000
  O   O7        1.0  0.94200  0.79700  0.73800  1.0000
  O   O8        1.0  0.44200  0.70300  0.73800  1.0000
