data_image0
_chemical_formula_structural       As6H4Na2O18
_chemical_formula_sum              "As6 H4 Na2 O18"
_cell_length_a       7.18546
_cell_length_b       7.49532
_cell_length_c       7.78008
_cell_angle_alpha    110.224
_cell_angle_beta     107.532
_cell_angle_gamma    106.344

_space_group_name_H-M_alt    "P 1"
_space_group_IT_number       1

loop_
  _space_group_symop_operation_xyz
  'x, y, z'

loop_
  _atom_site_type_symbol
  _atom_site_label
  _atom_site_symmetry_multiplicity
  _atom_site_fract_x
  _atom_site_fract_y
  _atom_site_fract_z
  _atom_site_occupancy
  As  As1       1.0  0.36200  0.34400  0.15600  1.0000
  As  As2       1.0  0.19600  0.84400  0.45900  1.0000
  As  As3       1.0  0.15200  0.43000  0.47300  1.0000
  As  As4       1.0  0.84800  0.57000  0.52700  1.0000
  As  As5       1.0  0.80400  0.15600  0.54100  1.0000
  As  As6       1.0  0.63800  0.65600  0.84400  1.0000
  H   H1        1.0  0.89300  0.64600  0.09110  1.0000
  H   H2        1.0  0.61700  0.79100  0.37500  1.0000
  H   H3        1.0  0.38300  0.20900  0.62500  1.0000
  H   H4        1.0  0.10700  0.35400  0.90900  1.0000
  Na  Na1       1.0  0.31000  0.81800  0.03830  1.0000
  Na  Na2       1.0  0.69000  0.18200  0.96200  1.0000
  O   O1        1.0  0.27000  0.46500  0.01880  1.0000
  O   O2        1.0  0.39200  0.13400  0.03180  1.0000
  O   O3        1.0  0.10600  0.80400  0.21800  1.0000
  O   O4        1.0  0.17700  0.27000  0.25000  1.0000
  O   O5        1.0  0.90900  0.43600  0.31400  1.0000
  O   O6        1.0  0.60300  0.56500  0.35100  1.0000
  O   O7        1.0  0.59000  0.91200  0.36500  1.0000
  O   O8        1.0  0.00008  0.16900  0.45000  1.0000
  O   O9        1.0  0.67300  0.31200  0.49500  1.0000
  O   O10       1.0  0.32700  0.68800  0.50500  1.0000
  O   O11       1.0  0.00000  0.83100  0.55000  1.0000
  O   O12       1.0  0.41000  0.08780  0.63500  1.0000
  O   O13       1.0  0.39700  0.43500  0.64900  1.0000
  O   O14       1.0  0.09110  0.56400  0.68600  1.0000
  O   O15       1.0  0.82300  0.73000  0.75000  1.0000
  O   O16       1.0  0.89400  0.19600  0.78200  1.0000
  O   O17       1.0  0.60800  0.86600  0.96800  1.0000
  O   O18       1.0  0.73000  0.53500  0.98100  1.0000
