data_image0
_chemical_formula_structural       Ca4Ga4H4O16Si2
_chemical_formula_sum              "Ca4 Ga4 H4 O16 Si2"
_cell_length_a       7.70416
_cell_length_b       7.70416
_cell_length_c       7.70416
_cell_angle_alpha    109.345
_cell_angle_beta     109.723
_cell_angle_gamma    109.345

_space_group_name_H-M_alt    "P 1"
_space_group_IT_number       1

loop_
  _space_group_symop_operation_xyz
  'x, y, z'

loop_
  _atom_site_type_symbol
  _atom_site_label
  _atom_site_symmetry_multiplicity
  _atom_site_fract_x
  _atom_site_fract_y
  _atom_site_fract_z
  _atom_site_occupancy
  Ca  Ca1       1.0  0.71700  0.99400  0.99600  1.0000
  Ca  Ca2       1.0  0.00399  0.72100  0.99800  1.0000
  Ca  Ca3       1.0  0.27700  0.27900  0.28300  1.0000
  Ca  Ca4       1.0  0.00246  0.00645  0.72300  1.0000
  Ga  Ga1       1.0  0.49800  0.74200  0.24600  1.0000
  Ga  Ga2       1.0  0.75400  0.25300  0.49600  1.0000
  Ga  Ga3       1.0  0.24400  0.74700  0.50200  1.0000
  Ga  Ga4       1.0  0.50400  0.25800  0.75600  1.0000
  H   H1        1.0  0.35900  0.01670  0.99000  1.0000
  H   H2        1.0  0.00959  0.36800  0.02620  1.0000
  H   H3        1.0  0.97400  0.98300  0.34200  1.0000
  H   H4        1.0  0.65800  0.63200  0.64100  1.0000
  O   O1        1.0  0.99300  0.22900  0.99800  1.0000
  O   O2        1.0  0.23700  0.00516  0.00746  1.0000
  O   O3        1.0  0.73900  0.47100  0.02420  1.0000
  O   O4        1.0  0.00230  0.99500  0.23200  1.0000
  O   O5        1.0  0.25500  0.70000  0.25800  1.0000
  O   O6        1.0  0.73200  0.28600  0.26100  1.0000
  O   O7        1.0  0.55400  0.52900  0.26800  1.0000
  O   O8        1.0  0.74200  0.99800  0.44200  1.0000
  O   O9        1.0  0.97600  0.71400  0.44600  1.0000
  O   O10       1.0  0.55800  0.30000  0.55600  1.0000
  O   O11       1.0  0.27000  0.53700  0.55800  1.0000
  O   O12       1.0  0.26600  0.28700  0.73000  1.0000
  O   O13       1.0  0.02130  0.46300  0.73400  1.0000
  O   O14       1.0  0.44400  0.00243  0.74500  1.0000
  O   O15       1.0  0.76800  0.77100  0.76300  1.0000
  O   O16       1.0  0.44200  0.71300  0.97900  1.0000
  Si  Si1       1.0  0.75000  0.50000  0.25000  1.0000
  Si  Si2       1.0  0.25000  0.50000  0.75000  1.0000
