data_image0
_chemical_formula_structural       As6Ni10Sr2
_chemical_formula_sum              "As6 Ni10 Sr2"
_cell_length_a       3.76135
_cell_length_b       6.39441
_cell_length_c       11.9039
_cell_angle_alpha    90
_cell_angle_beta     90
_cell_angle_gamma    72.8957

_space_group_name_H-M_alt    "P 1"
_space_group_IT_number       1

loop_
  _space_group_symop_operation_xyz
  'x, y, z'

loop_
  _atom_site_type_symbol
  _atom_site_label
  _atom_site_symmetry_multiplicity
  _atom_site_fract_x
  _atom_site_fract_y
  _atom_site_fract_z
  _atom_site_occupancy
  As  As1       1.0  0.37900  0.24200  0.04100  1.0000
  As  As2       1.0  0.11300  0.77400  0.25000  1.0000
  As  As3       1.0  0.37900  0.24200  0.45900  1.0000
  As  As4       1.0  0.62100  0.75800  0.54100  1.0000
  As  As5       1.0  0.88700  0.22600  0.75000  1.0000
  As  As6       1.0  0.62100  0.75800  0.95900  1.0000
  Ni  Ni1       1.0  0.00000  0.00000  0.00000  1.0000
  Ni  Ni2       1.0  0.19300  0.61400  0.06650  1.0000
  Ni  Ni3       1.0  0.54800  0.90300  0.14500  1.0000
  Ni  Ni4       1.0  0.54800  0.90300  0.35500  1.0000
  Ni  Ni5       1.0  0.19300  0.61400  0.43300  1.0000
  Ni  Ni6       1.0  0.00000  0.00000  0.50000  1.0000
  Ni  Ni7       1.0  0.80700  0.38600  0.56700  1.0000
  Ni  Ni8       1.0  0.45200  0.09680  0.64500  1.0000
  Ni  Ni9       1.0  0.45200  0.09680  0.85500  1.0000
  Ni  Ni10      1.0  0.80700  0.38600  0.93300  1.0000
  Sr  Sr1       1.0  0.83500  0.33000  0.25000  1.0000
  Sr  Sr2       1.0  0.16500  0.67000  0.75000  1.0000
