data_image0
_chemical_formula_structural       F6H12NiO6Sn2
_chemical_formula_sum              "F6 H12 Ni1 O6 Sn2"
_cell_length_a       6.38047
_cell_length_b       6.5638
_cell_length_c       6.61739
_cell_angle_alpha    76.1304
_cell_angle_beta     70.2411
_cell_angle_gamma    76.9851

_space_group_name_H-M_alt    "P 1"
_space_group_IT_number       1

loop_
  _space_group_symop_operation_xyz
  'x, y, z'

loop_
  _atom_site_type_symbol
  _atom_site_label
  _atom_site_symmetry_multiplicity
  _atom_site_fract_x
  _atom_site_fract_y
  _atom_site_fract_z
  _atom_site_occupancy
  F   F1        1.0  0.42000  0.32500  0.02350  1.0000
  F   F2        1.0  0.01970  0.42000  0.31600  1.0000
  F   F3        1.0  0.31500  0.05960  0.41100  1.0000
  F   F4        1.0  0.68500  0.94000  0.58900  1.0000
  F   F5        1.0  0.98000  0.58000  0.68400  1.0000
  F   F6        1.0  0.58000  0.67500  0.97600  1.0000
  H   H1        1.0  0.35400  0.80400  0.08610  1.0000
  H   H2        1.0  0.72400  0.73400  0.08890  1.0000
  H   H3        1.0  0.91300  0.63900  0.20900  1.0000
  H   H4        1.0  0.89200  0.27400  0.26000  1.0000
  H   H5        1.0  0.24200  0.94600  0.27100  1.0000
  H   H6        1.0  0.75900  0.07690  0.36600  1.0000
  H   H7        1.0  0.24100  0.92300  0.63400  1.0000
  H   H8        1.0  0.75800  0.05360  0.72900  1.0000
  H   H9        1.0  0.10800  0.72600  0.74000  1.0000
  H   H10       1.0  0.08660  0.36100  0.79100  1.0000
  H   H11       1.0  0.27600  0.26600  0.91100  1.0000
  H   H12       1.0  0.64600  0.19600  0.91400  1.0000
  Ni  Ni1       1.0  0.00000  0.00000  0.00000  1.0000
  O   O1        1.0  0.81000  0.77100  0.17300  1.0000
  O   O2        1.0  0.20600  0.85900  0.18600  1.0000
  O   O3        1.0  0.80000  0.18600  0.22900  1.0000
  O   O4        1.0  0.20000  0.81400  0.77100  1.0000
  O   O5        1.0  0.79400  0.14100  0.81400  1.0000
  O   O6        1.0  0.19000  0.22900  0.82700  1.0000
  Sn  Sn1       1.0  0.35500  0.38400  0.34800  1.0000
  Sn  Sn2       1.0  0.64500  0.61600  0.65200  1.0000
