data_image0
_chemical_formula_structural       O12P4Zn2
_chemical_formula_sum              "O12 P4 Zn2"
_cell_length_a       4.95781
_cell_length_b       6.56147
_cell_length_c       6.56147
_cell_angle_alpha    95.3929
_cell_angle_beta     103.514
_cell_angle_gamma    76.4862

_space_group_name_H-M_alt    "P 1"
_space_group_IT_number       1

loop_
  _space_group_symop_operation_xyz
  'x, y, z'

loop_
  _atom_site_type_symbol
  _atom_site_label
  _atom_site_symmetry_multiplicity
  _atom_site_fract_x
  _atom_site_fract_y
  _atom_site_fract_z
  _atom_site_occupancy
  O   O1        1.0  0.16300  0.80100  0.05040  1.0000
  O   O2        1.0  0.31500  0.40400  0.10400  1.0000
  O   O3        1.0  0.66300  0.95000  0.19900  1.0000
  O   O4        1.0  0.04710  0.63700  0.34900  1.0000
  O   O5        1.0  0.54700  0.65100  0.36300  1.0000
  O   O6        1.0  0.18500  0.10400  0.40400  1.0000
  O   O7        1.0  0.81500  0.89600  0.59600  1.0000
  O   O8        1.0  0.45300  0.34900  0.63700  1.0000
  O   O9        1.0  0.95300  0.36300  0.65100  1.0000
  O   O10       1.0  0.33700  0.05040  0.80100  1.0000
  O   O11       1.0  0.68500  0.59600  0.89600  1.0000
  O   O12       1.0  0.83700  0.19900  0.95000  1.0000
  P   P1        1.0  0.26400  0.62100  0.19700  1.0000
  P   P2        1.0  0.76400  0.80300  0.37900  1.0000
  P   P3        1.0  0.23600  0.19700  0.62100  1.0000
  P   P4        1.0  0.73600  0.37900  0.80300  1.0000
  Zn  Zn1       1.0  0.25000  0.11700  0.11700  1.0000
  Zn  Zn2       1.0  0.75000  0.88300  0.88300  1.0000
