data_image0
_chemical_formula_structural       Fe2H4K2O18S4
_chemical_formula_sum              "Fe2 H4 K2 O18 S4"
_cell_length_a       7.77589
_cell_length_b       5.11719
_cell_length_c       8.85014
_cell_angle_alpha    90
_cell_angle_beta     102.145
_cell_angle_gamma    90

_space_group_name_H-M_alt    "P 1"
_space_group_IT_number       1

loop_
  _space_group_symop_operation_xyz
  'x, y, z'

loop_
  _atom_site_type_symbol
  _atom_site_label
  _atom_site_symmetry_multiplicity
  _atom_site_fract_x
  _atom_site_fract_y
  _atom_site_fract_z
  _atom_site_occupancy
  Fe  Fe1       1.0  0.08660  0.25000  0.23000  1.0000
  Fe  Fe2       1.0  0.91300  0.75000  0.77000  1.0000
  H   H1        1.0  0.82900  0.90800  0.49100  1.0000
  H   H2        1.0  0.82900  0.59200  0.49100  1.0000
  H   H3        1.0  0.17100  0.09200  0.50900  1.0000
  H   H4        1.0  0.17100  0.40800  0.50900  1.0000
  K   K1        1.0  0.57400  0.25000  0.21300  1.0000
  K   K2        1.0  0.42600  0.75000  0.78700  1.0000
  O   O1        1.0  0.05870  0.25000  0.00313  1.0000
  O   O2        1.0  0.64900  0.75000  0.06370  1.0000
  O   O3        1.0  0.89100  0.51400  0.22000  1.0000
  O   O4        1.0  0.89100  0.98600  0.22000  1.0000
  O   O5        1.0  0.27500  0.51500  0.24700  1.0000
  O   O6        1.0  0.27500  0.98500  0.24700  1.0000
  O   O7        1.0  0.52900  0.75000  0.38300  1.0000
  O   O8        1.0  0.10800  0.25000  0.46200  1.0000
  O   O9        1.0  0.25500  0.75000  0.48300  1.0000
  O   O10       1.0  0.74500  0.25000  0.51700  1.0000
  O   O11       1.0  0.89200  0.75000  0.53800  1.0000
  O   O12       1.0  0.47100  0.25000  0.61700  1.0000
  O   O13       1.0  0.72500  0.01480  0.75300  1.0000
  O   O14       1.0  0.72500  0.48500  0.75300  1.0000
  O   O15       1.0  0.10900  0.01390  0.78000  1.0000
  O   O16       1.0  0.10900  0.48600  0.78000  1.0000
  O   O17       1.0  0.35100  0.25000  0.93600  1.0000
  O   O18       1.0  0.94100  0.75000  0.99700  1.0000
  S   S1        1.0  0.83800  0.75000  0.12000  1.0000
  S   S2        1.0  0.33800  0.75000  0.34700  1.0000
  S   S3        1.0  0.66200  0.25000  0.65300  1.0000
  S   S4        1.0  0.16200  0.25000  0.88000  1.0000
