data_image0
_chemical_formula_structural       As2F20H4N2S2
_chemical_formula_sum              "As2 F20 H4 N2 S2"
_cell_length_a       5.06381
_cell_length_b       6.21771
_cell_length_c       9.52698
_cell_angle_alpha    89.3037
_cell_angle_beta     86.5659
_cell_angle_gamma    75.5864

_space_group_name_H-M_alt    "P 1"
_space_group_IT_number       1

loop_
  _space_group_symop_operation_xyz
  'x, y, z'

loop_
  _atom_site_type_symbol
  _atom_site_label
  _atom_site_symmetry_multiplicity
  _atom_site_fract_x
  _atom_site_fract_y
  _atom_site_fract_z
  _atom_site_occupancy
  As  As1       1.0  0.00000  0.00000  0.00000  1.0000
  As  As2       1.0  0.00000  0.00000  0.50000  1.0000
  F   F1        1.0  0.25400  0.10500  0.07690  1.0000
  F   F2        1.0  0.60900  0.58400  0.08600  1.0000
  F   F3        1.0  0.08360  0.75900  0.10200  1.0000
  F   F4        1.0  0.75800  0.12800  0.13100  1.0000
  F   F5        1.0  0.93400  0.44400  0.22400  1.0000
  F   F6        1.0  0.43800  0.43200  0.26700  1.0000
  F   F7        1.0  0.15100  0.15000  0.37700  1.0000
  F   F8        1.0  0.06220  0.77400  0.38400  1.0000
  F   F9        1.0  0.67900  0.56100  0.41400  1.0000
  F   F10       1.0  0.67500  0.11200  0.43300  1.0000
  F   F11       1.0  0.32500  0.88800  0.56700  1.0000
  F   F12       1.0  0.32100  0.43900  0.58600  1.0000
  F   F13       1.0  0.93800  0.22600  0.61600  1.0000
  F   F14       1.0  0.84900  0.85000  0.62300  1.0000
  F   F15       1.0  0.56200  0.56800  0.73300  1.0000
  F   F16       1.0  0.06640  0.55600  0.77600  1.0000
  F   F17       1.0  0.24200  0.87200  0.86900  1.0000
  F   F18       1.0  0.91600  0.24100  0.89800  1.0000
  F   F19       1.0  0.39100  0.41600  0.91400  1.0000
  F   F20       1.0  0.74600  0.89500  0.92300  1.0000
  H   H1        1.0  0.47700  0.92600  0.17100  1.0000
  H   H2        1.0  0.56300  0.91800  0.34900  1.0000
  H   H3        1.0  0.43700  0.08180  0.65100  1.0000
  H   H4        1.0  0.52300  0.07380  0.82900  1.0000
  N   N1        1.0  0.54800  0.83500  0.25800  1.0000
  N   N2        1.0  0.45200  0.16500  0.74200  1.0000
  S   S1        1.0  0.63800  0.58400  0.25000  1.0000
  S   S2        1.0  0.36200  0.41600  0.75000  1.0000
