data_image0
_chemical_formula_structural       Cl18HLi6Zr6
_chemical_formula_sum              "Cl18 H1 Li6 Zr6"
_cell_length_a       8.8698
_cell_length_b       9.66565
_cell_length_c       9.66565
_cell_angle_alpha    111.079
_cell_angle_beta     107.812
_cell_angle_gamma    107.812

_space_group_name_H-M_alt    "P 1"
_space_group_IT_number       1

loop_
  _space_group_symop_operation_xyz
  'x, y, z'

loop_
  _atom_site_type_symbol
  _atom_site_label
  _atom_site_symmetry_multiplicity
  _atom_site_fract_x
  _atom_site_fract_y
  _atom_site_fract_z
  _atom_site_occupancy
  Cl  Cl1       1.0  0.89700  0.63800  0.05560  1.0000
  Cl  Cl2       1.0  0.78900  0.26200  0.10300  1.0000
  Cl  Cl3       1.0  0.68600  0.89700  0.16000  1.0000
  Cl  Cl4       1.0  0.56100  0.49400  0.19100  1.0000
  Cl  Cl5       1.0  0.47300  0.16000  0.26200  1.0000
  Cl  Cl6       1.0  0.37000  0.80900  0.30400  1.0000
  Cl  Cl7       1.0  0.25900  0.41700  0.36200  1.0000
  Cl  Cl8       1.0  0.15900  0.05560  0.41700  1.0000
  Cl  Cl9       1.0  0.93400  0.30400  0.49400  1.0000
  Cl  Cl10      1.0  0.06620  0.69600  0.50600  1.0000
  Cl  Cl11      1.0  0.84100  0.94400  0.58300  1.0000
  Cl  Cl12      1.0  0.74100  0.58300  0.63800  1.0000
  Cl  Cl13      1.0  0.63000  0.19100  0.69600  1.0000
  Cl  Cl14      1.0  0.52700  0.84000  0.73800  1.0000
  Cl  Cl15      1.0  0.43900  0.50600  0.80900  1.0000
  Cl  Cl16      1.0  0.31400  0.10300  0.84000  1.0000
  Cl  Cl17      1.0  0.21100  0.73800  0.89700  1.0000
  Cl  Cl18      1.0  0.10300  0.36200  0.94400  1.0000
  H   H1        1.0  0.00000  0.00000  0.00000  1.0000
  Li  Li1       1.0  0.40600  0.62400  0.07170  1.0000
  Li  Li2       1.0  0.78200  0.44800  0.37600  1.0000
  Li  Li3       1.0  0.66600  0.07170  0.44800  1.0000
  Li  Li4       1.0  0.33400  0.92800  0.55200  1.0000
  Li  Li5       1.0  0.21800  0.55200  0.62400  1.0000
  Li  Li6       1.0  0.59400  0.37600  0.92800  1.0000
  Zr  Zr1       1.0  0.25200  0.22900  0.09000  1.0000
  Zr  Zr2       1.0  0.16200  0.91000  0.13900  1.0000
  Zr  Zr3       1.0  0.97700  0.13900  0.22900  1.0000
  Zr  Zr4       1.0  0.02350  0.86100  0.77100  1.0000
  Zr  Zr5       1.0  0.83800  0.09000  0.86100  1.0000
  Zr  Zr6       1.0  0.74800  0.77100  0.91000  1.0000
