data_image0
_chemical_formula_structural       Al2Cl14S2
_chemical_formula_sum              "Al2 Cl14 S2"
_cell_length_a       6.32181
_cell_length_b       6.26583
_cell_length_c       13.0678
_cell_angle_alpha    90
_cell_angle_beta     101.786
_cell_angle_gamma    90

_space_group_name_H-M_alt    "P 1"
_space_group_IT_number       1

loop_
  _space_group_symop_operation_xyz
  'x, y, z'

loop_
  _atom_site_type_symbol
  _atom_site_label
  _atom_site_symmetry_multiplicity
  _atom_site_fract_x
  _atom_site_fract_y
  _atom_site_fract_z
  _atom_site_occupancy
  Al  Al1       1.0  0.55500  0.50800  0.14200  1.0000
  Al  Al2       1.0  0.55500  0.49200  0.64200  1.0000
  Cl  Cl1       1.0  0.33900  0.64900  0.01130  1.0000
  Cl  Cl2       1.0  0.52100  0.16500  0.13600  1.0000
  Cl  Cl3       1.0  0.88400  0.59800  0.13800  1.0000
  Cl  Cl4       1.0  0.11000  0.09400  0.26300  1.0000
  Cl  Cl5       1.0  0.48800  0.62600  0.28800  1.0000
  Cl  Cl6       1.0  0.04910  0.71500  0.41100  1.0000
  Cl  Cl7       1.0  0.77200  0.12700  0.41100  1.0000
  Cl  Cl8       1.0  0.33900  0.35100  0.51100  1.0000
  Cl  Cl9       1.0  0.52100  0.83500  0.63600  1.0000
  Cl  Cl10      1.0  0.88400  0.40200  0.63800  1.0000
  Cl  Cl11      1.0  0.11000  0.90600  0.76300  1.0000
  Cl  Cl12      1.0  0.48800  0.37400  0.78800  1.0000
  Cl  Cl13      1.0  0.04910  0.28500  0.91100  1.0000
  Cl  Cl14      1.0  0.77200  0.87300  0.91100  1.0000
  S   S1        1.0  0.87500  0.92700  0.31100  1.0000
  S   S2        1.0  0.87500  0.07340  0.81100  1.0000
