data_image0
_chemical_formula_structural       C4Fe2H12N4O8
_chemical_formula_sum              "C4 Fe2 H12 N4 O8"
_cell_length_a       6.30352
_cell_length_b       7.31672
_cell_length_c       7.69887
_cell_angle_alpha    106.49
_cell_angle_beta     114.166
_cell_angle_gamma    64.4841

_space_group_name_H-M_alt    "P 1"
_space_group_IT_number       1

loop_
  _space_group_symop_operation_xyz
  'x, y, z'

loop_
  _atom_site_type_symbol
  _atom_site_label
  _atom_site_symmetry_multiplicity
  _atom_site_fract_x
  _atom_site_fract_y
  _atom_site_fract_z
  _atom_site_occupancy
  C   C1        1.0  0.62000  0.96700  0.08590  1.0000
  C   C2        1.0  0.50200  0.53300  0.41400  1.0000
  C   C3        1.0  0.49800  0.46700  0.58600  1.0000
  C   C4        1.0  0.38000  0.03280  0.91400  1.0000
  Fe  Fe1       1.0  0.23000  0.25000  0.25000  1.0000
  Fe  Fe2       1.0  0.77000  0.75000  0.75000  1.0000
  H   H1        1.0  0.74600  0.43500  0.03910  1.0000
  H   H2        1.0  0.88700  0.59800  0.14200  1.0000
  H   H3        1.0  0.04480  0.96800  0.23200  1.0000
  H   H4        1.0  0.78000  0.53200  0.26800  1.0000
  H   H5        1.0  0.34300  0.90200  0.35800  1.0000
  H   H6        1.0  0.14100  0.06540  0.46100  1.0000
  H   H7        1.0  0.85900  0.93500  0.53900  1.0000
  H   H8        1.0  0.65700  0.09820  0.64200  1.0000
  H   H9        1.0  0.22000  0.46800  0.73200  1.0000
  H   H10       1.0  0.95500  0.03220  0.76800  1.0000
  H   H11       1.0  0.11300  0.40200  0.85800  1.0000
  H   H12       1.0  0.25400  0.56500  0.96100  1.0000
  N   N1        1.0  0.86800  0.47600  0.16600  1.0000
  N   N2        1.0  0.17700  0.02430  0.33400  1.0000
  N   N3        1.0  0.82300  0.97600  0.66600  1.0000
  N   N4        1.0  0.13200  0.52400  0.83400  1.0000
  O   O1        1.0  0.81900  0.85000  0.04570  1.0000
  O   O2        1.0  0.38600  0.46900  0.24800  1.0000
  O   O3        1.0  0.60800  0.03070  0.25200  1.0000
  O   O4        1.0  0.62300  0.65000  0.45400  1.0000
  O   O5        1.0  0.37700  0.35000  0.54600  1.0000
  O   O6        1.0  0.39200  0.96900  0.74800  1.0000
  O   O7        1.0  0.61400  0.53100  0.75200  1.0000
  O   O8        1.0  0.18100  0.15000  0.95400  1.0000
