data_image0
_chemical_formula_structural       Hg6I3Na3O6
_chemical_formula_sum              "Hg6 I3 Na3 O6"
_cell_length_a       6.72127
_cell_length_b       6.72127
_cell_length_c       10.0507
_cell_angle_alpha    90
_cell_angle_beta     90
_cell_angle_gamma    120

_space_group_name_H-M_alt    "P 1"
_space_group_IT_number       1

loop_
  _space_group_symop_operation_xyz
  'x, y, z'

loop_
  _atom_site_type_symbol
  _atom_site_label
  _atom_site_symmetry_multiplicity
  _atom_site_fract_x
  _atom_site_fract_y
  _atom_site_fract_z
  _atom_site_occupancy
  Hg  Hg1       1.0  0.50000  0.50000  0.00240  1.0000
  Hg  Hg2       1.0  0.50000  0.00000  0.33100  1.0000
  Hg  Hg3       1.0  0.00000  0.50000  0.33600  1.0000
  Hg  Hg4       1.0  0.50000  0.50000  0.66400  1.0000
  Hg  Hg5       1.0  0.50000  0.00000  0.66900  1.0000
  Hg  Hg6       1.0  0.00000  0.50000  0.99800  1.0000
  I   I1        1.0  0.50000  0.00000  0.00000  1.0000
  I   I2        1.0  0.50000  0.50000  0.33300  1.0000
  I   I3        1.0  0.00000  0.50000  0.66700  1.0000
  Na  Na1       1.0  0.00000  0.00000  0.16700  1.0000
  Na  Na2       1.0  0.00000  0.00000  0.50000  1.0000
  Na  Na3       1.0  0.00000  0.00000  0.83300  1.0000
  O   O1        1.0  0.14600  0.29300  0.00000  1.0000
  O   O2        1.0  0.85400  0.70700  0.00000  1.0000
  O   O3        1.0  0.85400  0.14600  0.33300  1.0000
  O   O4        1.0  0.14600  0.85400  0.33300  1.0000
  O   O5        1.0  0.29300  0.14600  0.66700  1.0000
  O   O6        1.0  0.70700  0.85400  0.66700  1.0000
