data_image0
_chemical_formula_structural       Ag2As6H4O18
_chemical_formula_sum              "Ag2 As6 H4 O18"
_cell_length_a       7.19047
_cell_length_b       7.58686
_cell_length_c       7.83494
_cell_angle_alpha    110.978
_cell_angle_beta     106.836
_cell_angle_gamma    105.657

_space_group_name_H-M_alt    "P 1"
_space_group_IT_number       1

loop_
  _space_group_symop_operation_xyz
  'x, y, z'

loop_
  _atom_site_type_symbol
  _atom_site_label
  _atom_site_symmetry_multiplicity
  _atom_site_fract_x
  _atom_site_fract_y
  _atom_site_fract_z
  _atom_site_occupancy
  Ag  Ag1       1.0  0.29300  0.82900  0.04170  1.0000
  Ag  Ag2       1.0  0.70700  0.17100  0.95800  1.0000
  As  As1       1.0  0.37000  0.35000  0.15700  1.0000
  As  As2       1.0  0.18900  0.84000  0.45900  1.0000
  As  As3       1.0  0.15400  0.43100  0.47100  1.0000
  As  As4       1.0  0.84600  0.56900  0.52900  1.0000
  As  As5       1.0  0.81100  0.16000  0.54100  1.0000
  As  As6       1.0  0.63000  0.65000  0.84300  1.0000
  H   H1        1.0  0.87700  0.63400  0.08580  1.0000
  H   H2        1.0  0.63000  0.79900  0.38500  1.0000
  H   H3        1.0  0.37000  0.20100  0.61500  1.0000
  H   H4        1.0  0.12300  0.36600  0.91400  1.0000
  O   O1        1.0  0.28000  0.47300  0.02450  1.0000
  O   O2        1.0  0.40000  0.14100  0.02890  1.0000
  O   O3        1.0  0.09040  0.79400  0.21700  1.0000
  O   O4        1.0  0.18500  0.27500  0.25000  1.0000
  O   O5        1.0  0.91200  0.44000  0.31600  1.0000
  O   O6        1.0  0.60600  0.56600  0.35500  1.0000
  O   O7        1.0  0.60100  0.91800  0.37500  1.0000
  O   O8        1.0  0.00219  0.17100  0.44300  1.0000
  O   O9        1.0  0.67600  0.31200  0.49500  1.0000
  O   O10       1.0  0.32400  0.68800  0.50500  1.0000
  O   O11       1.0  0.99800  0.82900  0.55700  1.0000
  O   O12       1.0  0.39900  0.08180  0.62500  1.0000
  O   O13       1.0  0.39400  0.43400  0.64500  1.0000
  O   O14       1.0  0.08780  0.56000  0.68400  1.0000
  O   O15       1.0  0.81500  0.72500  0.75000  1.0000
  O   O16       1.0  0.91000  0.20600  0.78300  1.0000
  O   O17       1.0  0.60000  0.85900  0.97100  1.0000
  O   O18       1.0  0.72000  0.52700  0.97500  1.0000
