data_image0
_chemical_formula_structural       Cr2H12O14S2
_chemical_formula_sum              "Cr2 H12 O14 S2"
_cell_length_a       5.56718
_cell_length_b       7.04096
_cell_length_c       7.40153
_cell_angle_alpha    92.3988
_cell_angle_beta     96.0773
_cell_angle_gamma    66.7127

_space_group_name_H-M_alt    "P 1"
_space_group_IT_number       1

loop_
  _space_group_symop_operation_xyz
  'x, y, z'

loop_
  _atom_site_type_symbol
  _atom_site_label
  _atom_site_symmetry_multiplicity
  _atom_site_fract_x
  _atom_site_fract_y
  _atom_site_fract_z
  _atom_site_occupancy
  Cr  Cr1       1.0  0.13600  0.72800  0.49800  1.0000
  Cr  Cr2       1.0  0.86400  0.27200  0.99800  1.0000
  H   H1        1.0  0.37400  0.34200  0.02110  1.0000
  H   H2        1.0  0.48400  0.39500  0.21800  1.0000
  H   H3        1.0  0.45200  0.83400  0.28600  1.0000
  H   H4        1.0  0.04870  0.39000  0.29800  1.0000
  H   H5        1.0  0.98200  0.20300  0.36000  1.0000
  H   H6        1.0  0.42700  0.94200  0.48200  1.0000
  H   H7        1.0  0.71600  0.65800  0.52100  1.0000
  H   H8        1.0  0.87900  0.60500  0.71800  1.0000
  H   H9        1.0  0.28600  0.16600  0.78600  1.0000
  H   H10       1.0  0.43900  0.61000  0.79800  1.0000
  H   H11       1.0  0.18400  0.79700  0.86000  1.0000
  H   H12       1.0  0.36900  0.05820  0.98200  1.0000
  O   O1        1.0  0.95900  0.91000  0.00673  1.0000
  O   O2        1.0  0.49600  0.40100  0.08490  1.0000
  O   O3        1.0  0.56900  0.89100  0.11100  1.0000
  O   O4        1.0  0.99600  0.66600  0.24500  1.0000
  O   O5        1.0  0.04340  0.25700  0.25900  1.0000
  O   O6        1.0  0.42000  0.81600  0.41300  1.0000
  O   O7        1.0  0.46800  0.39300  0.43800  1.0000
  O   O8        1.0  0.86900  0.08970  0.50700  1.0000
  O   O9        1.0  0.89700  0.59900  0.58500  1.0000
  O   O10       1.0  0.46000  0.10900  0.61100  1.0000
  O   O11       1.0  0.66100  0.33400  0.74500  1.0000
  O   O12       1.0  0.30000  0.74300  0.75900  1.0000
  O   O13       1.0  0.23600  0.18400  0.91300  1.0000
  O   O14       1.0  0.86100  0.60700  0.93800  1.0000
  S   S1        1.0  0.84500  0.77100  0.07260  1.0000
  S   S2        1.0  0.61600  0.22900  0.57300  1.0000
