data_image0
_chemical_formula_structural       Cl10Cs6Mn2
_chemical_formula_sum              "Cl10 Cs6 Mn2"
_cell_length_a       9.26635
_cell_length_b       9.26635
_cell_length_c       9.93014
_cell_angle_alpha    117.812
_cell_angle_beta     117.812
_cell_angle_gamma    90

_space_group_name_H-M_alt    "P 1"
_space_group_IT_number       1

loop_
  _space_group_symop_operation_xyz
  'x, y, z'

loop_
  _atom_site_type_symbol
  _atom_site_label
  _atom_site_symmetry_multiplicity
  _atom_site_fract_x
  _atom_site_fract_y
  _atom_site_fract_z
  _atom_site_occupancy
  Cl  Cl1       1.0  0.00000  0.00000  0.00000  1.0000
  Cl  Cl2       1.0  0.50000  0.50000  0.00000  1.0000
  Cl  Cl3       1.0  0.51300  0.01320  0.31100  1.0000
  Cl  Cl4       1.0  0.79800  0.29800  0.31100  1.0000
  Cl  Cl5       1.0  0.29800  0.51300  0.31100  1.0000
  Cl  Cl6       1.0  0.01320  0.79800  0.31100  1.0000
  Cl  Cl7       1.0  0.98700  0.20200  0.68900  1.0000
  Cl  Cl8       1.0  0.70200  0.48700  0.68900  1.0000
  Cl  Cl9       1.0  0.20200  0.70200  0.68900  1.0000
  Cl  Cl10      1.0  0.48700  0.98700  0.68900  1.0000
  Cs  Cs1       1.0  0.33600  0.16400  0.00000  1.0000
  Cs  Cs2       1.0  0.83600  0.33600  0.00000  1.0000
  Cs  Cs3       1.0  0.16400  0.66400  0.00000  1.0000
  Cs  Cs4       1.0  0.66400  0.83600  0.00000  1.0000
  Cs  Cs5       1.0  0.25000  0.25000  0.50000  1.0000
  Cs  Cs6       1.0  0.75000  0.75000  0.50000  1.0000
  Mn  Mn1       1.0  0.75000  0.25000  0.50000  1.0000
  Mn  Mn2       1.0  0.25000  0.75000  0.50000  1.0000
