data_image0
_chemical_formula_structural       Al10Ba8
_chemical_formula_sum              "Al10 Ba8"
_cell_length_a       6.11069
_cell_length_b       6.11072
_cell_length_c       17.9324
_cell_angle_alpha    90
_cell_angle_beta     90
_cell_angle_gamma    120

_space_group_name_H-M_alt    "P 1"
_space_group_IT_number       1

loop_
  _space_group_symop_operation_xyz
  'x, y, z'

loop_
  _atom_site_type_symbol
  _atom_site_label
  _atom_site_symmetry_multiplicity
  _atom_site_fract_x
  _atom_site_fract_y
  _atom_site_fract_z
  _atom_site_occupancy
  Al  Al1       1.0  0.66700  0.33300  0.13700  1.0000
  Al  Al2       1.0  0.01850  0.50900  0.25000  1.0000
  Al  Al3       1.0  0.49100  0.50900  0.25000  1.0000
  Al  Al4       1.0  0.49100  0.98200  0.25000  1.0000
  Al  Al5       1.0  0.66700  0.33300  0.36300  1.0000
  Al  Al6       1.0  0.33300  0.66700  0.63700  1.0000
  Al  Al7       1.0  0.50900  0.01850  0.75000  1.0000
  Al  Al8       1.0  0.50900  0.49100  0.75000  1.0000
  Al  Al9       1.0  0.98200  0.49100  0.75000  1.0000
  Al  Al10      1.0  0.33300  0.66700  0.86300  1.0000
  Ba  Ba1       1.0  0.33300  0.66700  0.07050  1.0000
  Ba  Ba2       1.0  0.00000  0.00000  0.14300  1.0000
  Ba  Ba3       1.0  0.00000  0.00000  0.35700  1.0000
  Ba  Ba4       1.0  0.33300  0.66700  0.43000  1.0000
  Ba  Ba5       1.0  0.66700  0.33300  0.57000  1.0000
  Ba  Ba6       1.0  0.00000  0.00000  0.64300  1.0000
  Ba  Ba7       1.0  0.00000  0.00000  0.85700  1.0000
  Ba  Ba8       1.0  0.66700  0.33300  0.93000  1.0000
