data_image0
_chemical_formula_structural       Ni10P6Sr2
_chemical_formula_sum              "Ni10 P6 Sr2"
_cell_length_a       3.60707
_cell_length_b       6.14427
_cell_length_c       11.5825
_cell_angle_alpha    90
_cell_angle_beta     90
_cell_angle_gamma    72.9305

_space_group_name_H-M_alt    "P 1"
_space_group_IT_number       1

loop_
  _space_group_symop_operation_xyz
  'x, y, z'

loop_
  _atom_site_type_symbol
  _atom_site_label
  _atom_site_symmetry_multiplicity
  _atom_site_fract_x
  _atom_site_fract_y
  _atom_site_fract_z
  _atom_site_occupancy
  Ni  Ni1       1.0  0.00000  0.00000  0.00000  1.0000
  Ni  Ni2       1.0  0.19800  0.60400  0.06760  1.0000
  Ni  Ni3       1.0  0.55000  0.89900  0.14500  1.0000
  Ni  Ni4       1.0  0.55000  0.89900  0.35500  1.0000
  Ni  Ni5       1.0  0.19800  0.60400  0.43200  1.0000
  Ni  Ni6       1.0  0.00000  0.00000  0.50000  1.0000
  Ni  Ni7       1.0  0.80200  0.39600  0.56800  1.0000
  Ni  Ni8       1.0  0.45000  0.10100  0.64500  1.0000
  Ni  Ni9       1.0  0.45000  0.10100  0.85500  1.0000
  Ni  Ni10      1.0  0.80200  0.39600  0.93200  1.0000
  P   P1        1.0  0.38200  0.23700  0.03760  1.0000
  P   P2        1.0  0.11500  0.77000  0.25000  1.0000
  P   P3        1.0  0.38200  0.23700  0.46200  1.0000
  P   P4        1.0  0.61800  0.76300  0.53800  1.0000
  P   P5        1.0  0.88500  0.23000  0.75000  1.0000
  P   P6        1.0  0.61800  0.76300  0.96200  1.0000
  Sr  Sr1       1.0  0.83800  0.32400  0.25000  1.0000
  Sr  Sr2       1.0  0.16200  0.67600  0.75000  1.0000
