data_image0
_chemical_formula_structural       B2H2K2O18P4V2
_chemical_formula_sum              "B2 H2 K2 O18 P4 V2"
_cell_length_a       5.14597
_cell_length_b       7.98618
_cell_length_c       8.35009
_cell_angle_alpha    87.4775
_cell_angle_beta     80.2161
_cell_angle_gamma    86.4584

_space_group_name_H-M_alt    "P 1"
_space_group_IT_number       1

loop_
  _space_group_symop_operation_xyz
  'x, y, z'

loop_
  _atom_site_type_symbol
  _atom_site_label
  _atom_site_symmetry_multiplicity
  _atom_site_fract_x
  _atom_site_fract_y
  _atom_site_fract_z
  _atom_site_occupancy
  B   B1        1.0  0.12100  0.26000  0.44800  1.0000
  B   B2        1.0  0.87900  0.74000  0.55200  1.0000
  H   H1        1.0  0.52400  0.83500  0.49500  1.0000
  H   H2        1.0  0.47600  0.16500  0.50500  1.0000
  K   K1        1.0  0.72000  0.32500  0.11000  1.0000
  K   K2        1.0  0.28000  0.67500  0.89000  1.0000
  O   O1        1.0  0.24000  0.20400  0.05210  1.0000
  O   O2        1.0  0.07600  0.91400  0.14300  1.0000
  O   O3        1.0  0.44900  0.63900  0.19900  1.0000
  O   O4        1.0  0.96800  0.58300  0.20700  1.0000
  O   O5        1.0  0.50000  0.01080  0.21900  1.0000
  O   O6        1.0  0.04760  0.13800  0.34100  1.0000
  O   O7        1.0  0.27500  0.39100  0.35000  1.0000
  O   O8        1.0  0.70700  0.81500  0.44100  1.0000
  O   O9        1.0  0.13100  0.67700  0.46100  1.0000
  O   O10       1.0  0.86900  0.32300  0.53900  1.0000
  O   O11       1.0  0.29300  0.18500  0.55900  1.0000
  O   O12       1.0  0.72500  0.60900  0.65000  1.0000
  O   O13       1.0  0.95200  0.86200  0.65900  1.0000
  O   O14       1.0  0.50000  0.98900  0.78100  1.0000
  O   O15       1.0  0.03150  0.41700  0.79300  1.0000
  O   O16       1.0  0.55100  0.36100  0.80100  1.0000
  O   O17       1.0  0.92400  0.08570  0.85700  1.0000
  O   O18       1.0  0.76000  0.79600  0.94800  1.0000
  P   P1        1.0  0.22100  0.06290  0.18500  1.0000
  P   P2        1.0  0.20000  0.57600  0.30100  1.0000
  P   P3        1.0  0.80000  0.42400  0.69900  1.0000
  P   P4        1.0  0.77900  0.93700  0.81500  1.0000
  V   V1        1.0  0.73700  0.80100  0.19200  1.0000
  V   V2        1.0  0.26300  0.19900  0.80800  1.0000
