data_image0
_chemical_formula_structural       Br10Cd2Cs6
_chemical_formula_sum              "Br10 Cd2 Cs6"
_cell_length_a       9.70016
_cell_length_b       9.70016
_cell_length_c       10.5746
_cell_angle_alpha    117.3
_cell_angle_beta     117.3
_cell_angle_gamma    90

_space_group_name_H-M_alt    "P 1"
_space_group_IT_number       1

loop_
  _space_group_symop_operation_xyz
  'x, y, z'

loop_
  _atom_site_type_symbol
  _atom_site_label
  _atom_site_symmetry_multiplicity
  _atom_site_fract_x
  _atom_site_fract_y
  _atom_site_fract_z
  _atom_site_occupancy
  Br  Br1       1.0  0.00000  0.00000  0.00000  1.0000
  Br  Br2       1.0  0.50000  0.50000  0.00000  1.0000
  Br  Br3       1.0  0.49900  0.99900  0.30100  1.0000
  Br  Br4       1.0  0.80200  0.30200  0.30100  1.0000
  Br  Br5       1.0  0.30200  0.49900  0.30100  1.0000
  Br  Br6       1.0  0.99900  0.80200  0.30100  1.0000
  Br  Br7       1.0  0.50100  0.00089  0.69900  1.0000
  Br  Br8       1.0  0.00089  0.19800  0.69900  1.0000
  Br  Br9       1.0  0.69800  0.50100  0.69900  1.0000
  Br  Br10      1.0  0.19800  0.69800  0.69900  1.0000
  Cd  Cd1       1.0  0.75000  0.25000  0.50000  1.0000
  Cd  Cd2       1.0  0.25000  0.75000  0.50000  1.0000
  Cs  Cs1       1.0  0.34200  0.15800  0.00000  1.0000
  Cs  Cs2       1.0  0.84200  0.34200  0.00000  1.0000
  Cs  Cs3       1.0  0.15800  0.65800  0.00000  1.0000
  Cs  Cs4       1.0  0.65800  0.84200  0.00000  1.0000
  Cs  Cs5       1.0  0.25000  0.25000  0.50000  1.0000
  Cs  Cs6       1.0  0.75000  0.75000  0.50000  1.0000
