data_image0
_chemical_formula_structural       H8N2O14V6
_chemical_formula_sum              "H8 N2 O14 V6"
_cell_length_a       3.76858
_cell_length_b       8.33733
_cell_length_c       9.73625
_cell_angle_alpha    91.5534
_cell_angle_beta     101.159
_cell_angle_gamma    103.062

_space_group_name_H-M_alt    "P 1"
_space_group_IT_number       1

loop_
  _space_group_symop_operation_xyz
  'x, y, z'

loop_
  _atom_site_type_symbol
  _atom_site_label
  _atom_site_symmetry_multiplicity
  _atom_site_fract_x
  _atom_site_fract_y
  _atom_site_fract_z
  _atom_site_occupancy
  H   H1        1.0  0.17900  0.77600  0.02400  1.0000
  H   H2        1.0  0.62100  0.77600  0.02400  1.0000
  H   H3        1.0  0.35700  0.61900  0.09510  1.0000
  H   H4        1.0  0.49400  0.80800  0.17900  1.0000
  H   H5        1.0  0.50600  0.19200  0.82100  1.0000
  H   H6        1.0  0.64300  0.38100  0.90500  1.0000
  H   H7        1.0  0.37900  0.22400  0.97600  1.0000
  H   H8        1.0  0.82100  0.22400  0.97600  1.0000
  N   N1        1.0  0.41300  0.74300  0.08260  1.0000
  N   N2        1.0  0.58700  0.25700  0.91700  1.0000
  O   O1        1.0  0.12700  0.15900  0.09600  1.0000
  O   O2        1.0  0.82700  0.48900  0.16400  1.0000
  O   O3        1.0  0.09050  0.90600  0.27500  1.0000
  O   O4        1.0  0.75600  0.18600  0.32700  1.0000
  O   O5        1.0  0.36400  0.38800  0.34000  1.0000
  O   O6        1.0  0.02760  0.62900  0.42700  1.0000
  O   O7        1.0  0.69600  0.89400  0.49800  1.0000
  O   O8        1.0  0.30400  0.10600  0.50200  1.0000
  O   O9        1.0  0.97200  0.37100  0.57300  1.0000
  O   O10       1.0  0.63600  0.61200  0.66000  1.0000
  O   O11       1.0  0.24400  0.81400  0.67300  1.0000
  O   O12       1.0  0.90900  0.09420  0.72500  1.0000
  O   O13       1.0  0.17300  0.51100  0.83600  1.0000
  O   O14       1.0  0.87300  0.84100  0.90400  1.0000
  V   V1        1.0  0.21100  0.15300  0.27000  1.0000
  V   V2        1.0  0.88300  0.43900  0.32700  1.0000
  V   V3        1.0  0.15500  0.86200  0.44900  1.0000
  V   V4        1.0  0.84500  0.13800  0.55100  1.0000
  V   V5        1.0  0.11700  0.56100  0.67300  1.0000
  V   V6        1.0  0.78900  0.84700  0.73000  1.0000
