data_image0
_chemical_formula_structural       B8Ca4H16
_chemical_formula_sum              "B8 Ca4 H16"
_cell_length_a       16.5112
_cell_length_b       3.31472
_cell_length_c       4.06367
_cell_angle_alpha    90
_cell_angle_beta     87.9454
_cell_angle_gamma    90

_space_group_name_H-M_alt    "P 1"
_space_group_IT_number       1

loop_
  _space_group_symop_operation_xyz
  'x, y, z'

loop_
  _atom_site_type_symbol
  _atom_site_label
  _atom_site_symmetry_multiplicity
  _atom_site_fract_x
  _atom_site_fract_y
  _atom_site_fract_z
  _atom_site_occupancy
  B   B1        1.0  0.48300  0.00000  0.00723  1.0000
  B   B2        1.0  0.52900  0.50000  0.08620  1.0000
  B   B3        1.0  0.75300  0.00000  0.19500  1.0000
  B   B4        1.0  0.75600  0.50000  0.40900  1.0000
  B   B5        1.0  0.02230  0.50000  0.47300  1.0000
  B   B6        1.0  0.97600  0.00000  0.56400  1.0000
  B   B7        1.0  0.26100  0.00000  0.70200  1.0000
  B   B8        1.0  0.24200  0.50000  0.87600  1.0000
  Ca  Ca1       1.0  0.89900  0.50000  0.03460  1.0000
  Ca  Ca2       1.0  0.39400  0.50000  0.50600  1.0000
  Ca  Ca3       1.0  0.61800  0.00000  0.57100  1.0000
  Ca  Ca4       1.0  0.10800  0.00000  0.94900  1.0000
  H   H1        1.0  0.68700  0.00000  0.05840  1.0000
  H   H2        1.0  0.41000  0.00000  0.10900  1.0000
  H   H3        1.0  0.20700  0.50000  0.15300  1.0000
  H   H4        1.0  0.03370  0.50000  0.16100  1.0000
  H   H5        1.0  0.54300  0.50000  0.39300  1.0000
  H   H6        1.0  0.28700  0.00000  0.40700  1.0000
  H   H7        1.0  0.82200  0.31800  0.51700  1.0000
  H   H8        1.0  0.82200  0.68200  0.51700  1.0000
  H   H9        1.0  0.09860  0.50000  0.54600  1.0000
  H   H10       1.0  0.71300  0.50000  0.67000  1.0000
  H   H11       1.0  0.47200  0.00000  0.69800  1.0000
  H   H12       1.0  0.96900  0.00000  0.87500  1.0000
  H   H13       1.0  0.30800  0.24200  0.91500  1.0000
  H   H14       1.0  0.30800  0.75800  0.91500  1.0000
  H   H15       1.0  0.80200  0.00000  0.95200  1.0000
  H   H16       1.0  0.60100  0.50000  0.97100  1.0000
