data_image0
_chemical_formula_structural       B2Fe2H2K2O18P4
_chemical_formula_sum              "B2 Fe2 H2 K2 O18 P4"
_cell_length_a       5.12794
_cell_length_b       7.99576
_cell_length_c       8.29363
_cell_angle_alpha    87.5173
_cell_angle_beta     80.2384
_cell_angle_gamma    86.7241

_space_group_name_H-M_alt    "P 1"
_space_group_IT_number       1

loop_
  _space_group_symop_operation_xyz
  'x, y, z'

loop_
  _atom_site_type_symbol
  _atom_site_label
  _atom_site_symmetry_multiplicity
  _atom_site_fract_x
  _atom_site_fract_y
  _atom_site_fract_z
  _atom_site_occupancy
  B   B1        1.0  0.11900  0.26000  0.44800  1.0000
  B   B2        1.0  0.88100  0.74000  0.55200  1.0000
  Fe  Fe1       1.0  0.73600  0.80200  0.18900  1.0000
  Fe  Fe2       1.0  0.26400  0.19800  0.81100  1.0000
  H   H1        1.0  0.52600  0.83400  0.49200  1.0000
  H   H2        1.0  0.47400  0.16600  0.50800  1.0000
  K   K1        1.0  0.72400  0.32500  0.11300  1.0000
  K   K2        1.0  0.27600  0.67500  0.88700  1.0000
  O   O1        1.0  0.24900  0.20000  0.05010  1.0000
  O   O2        1.0  0.07510  0.91200  0.14300  1.0000
  O   O3        1.0  0.45500  0.63900  0.19800  1.0000
  O   O4        1.0  0.97000  0.58600  0.20600  1.0000
  O   O5        1.0  0.49900  0.00757  0.22300  1.0000
  O   O6        1.0  0.04610  0.13800  0.34100  1.0000
  O   O7        1.0  0.27500  0.39100  0.34900  1.0000
  O   O8        1.0  0.71000  0.81400  0.43900  1.0000
  O   O9        1.0  0.13500  0.67700  0.46100  1.0000
  O   O10       1.0  0.86500  0.32300  0.53900  1.0000
  O   O11       1.0  0.29000  0.18600  0.56100  1.0000
  O   O12       1.0  0.72500  0.60900  0.65100  1.0000
  O   O13       1.0  0.95400  0.86200  0.65900  1.0000
  O   O14       1.0  0.50100  0.99200  0.77700  1.0000
  O   O15       1.0  0.03040  0.41400  0.79400  1.0000
  O   O16       1.0  0.54500  0.36100  0.80200  1.0000
  O   O17       1.0  0.92500  0.08820  0.85700  1.0000
  O   O18       1.0  0.75100  0.80000  0.95000  1.0000
  P   P1        1.0  0.22200  0.05980  0.18500  1.0000
  P   P2        1.0  0.20300  0.57700  0.30000  1.0000
  P   P3        1.0  0.79700  0.42300  0.70000  1.0000
  P   P4        1.0  0.77800  0.94000  0.81500  1.0000
