data_image0
_chemical_formula_structural       B2H2K2O18P4Sc2
_chemical_formula_sum              "B2 H2 K2 O18 P4 Sc2"
_cell_length_a       5.22165
_cell_length_b       8.21488
_cell_length_c       8.30883
_cell_angle_alpha    89.0084
_cell_angle_beta     79.6418
_cell_angle_gamma    87.0784

_space_group_name_H-M_alt    "P 1"
_space_group_IT_number       1

loop_
  _space_group_symop_operation_xyz
  'x, y, z'

loop_
  _atom_site_type_symbol
  _atom_site_label
  _atom_site_symmetry_multiplicity
  _atom_site_fract_x
  _atom_site_fract_y
  _atom_site_fract_z
  _atom_site_occupancy
  B   B1        1.0  0.10600  0.26600  0.44200  1.0000
  B   B2        1.0  0.89400  0.73400  0.55800  1.0000
  H   H1        1.0  0.42200  0.12700  0.47700  1.0000
  H   H2        1.0  0.57800  0.87300  0.52300  1.0000
  K   K1        1.0  0.72300  0.31900  0.11800  1.0000
  K   K2        1.0  0.27700  0.68100  0.88200  1.0000
  O   O1        1.0  0.27400  0.18000  0.05000  1.0000
  O   O2        1.0  0.07750  0.91100  0.14500  1.0000
  O   O3        1.0  0.44600  0.62900  0.19300  1.0000
  O   O4        1.0  0.96600  0.58500  0.20600  1.0000
  O   O5        1.0  0.47200  0.00682  0.25300  1.0000
  O   O6        1.0  0.02330  0.14600  0.33500  1.0000
  O   O7        1.0  0.26000  0.38900  0.34000  1.0000
  O   O8        1.0  0.72000  0.81000  0.45400  1.0000
  O   O9        1.0  0.13400  0.66700  0.46100  1.0000
  O   O10       1.0  0.86600  0.33300  0.53900  1.0000
  O   O11       1.0  0.28000  0.19000  0.54600  1.0000
  O   O12       1.0  0.74000  0.61100  0.66000  1.0000
  O   O13       1.0  0.97700  0.85400  0.66500  1.0000
  O   O14       1.0  0.52800  0.99300  0.74700  1.0000
  O   O15       1.0  0.03390  0.41500  0.79400  1.0000
  O   O16       1.0  0.55400  0.37100  0.80700  1.0000
  O   O17       1.0  0.92300  0.08920  0.85500  1.0000
  O   O18       1.0  0.72600  0.82000  0.95000  1.0000
  P   P1        1.0  0.21600  0.05650  0.19200  1.0000
  P   P2        1.0  0.19600  0.57000  0.29700  1.0000
  P   P3        1.0  0.80400  0.43000  0.70300  1.0000
  P   P4        1.0  0.78400  0.94400  0.80800  1.0000
  Sc  Sc1       1.0  0.72400  0.80000  0.19700  1.0000
  Sc  Sc2       1.0  0.27600  0.20000  0.80300  1.0000
