data_image0
_chemical_formula_structural       H2N4O18P2Pb4
_chemical_formula_sum              "H2 N4 O18 P2 Pb4"
_cell_length_a       5.38055
_cell_length_b       10.222
_cell_length_c       7.08786
_cell_angle_alpha    90
_cell_angle_beta     90
_cell_angle_gamma    90

_space_group_name_H-M_alt    "P 1"
_space_group_IT_number       1

loop_
  _space_group_symop_operation_xyz
  'x, y, z'

loop_
  _atom_site_type_symbol
  _atom_site_label
  _atom_site_symmetry_multiplicity
  _atom_site_fract_x
  _atom_site_fract_y
  _atom_site_fract_z
  _atom_site_occupancy
  H   H1        1.0  0.00000  0.76600  0.04300  1.0000
  H   H2        1.0  0.50000  0.23400  0.54300  1.0000
  N   N1        1.0  0.00000  0.28100  0.26300  1.0000
  N   N2        1.0  0.00000  0.00042  0.49400  1.0000
  N   N3        1.0  0.50000  0.71900  0.76300  1.0000
  N   N4        1.0  0.50000  0.00000  0.99400  1.0000
  O   O1        1.0  0.00000  0.53000  0.03570  1.0000
  O   O2        1.0  0.29600  0.95200  0.05130  1.0000
  O   O3        1.0  0.70400  0.95200  0.05130  1.0000
  O   O4        1.0  0.20400  0.23700  0.19700  1.0000
  O   O5        1.0  0.79600  0.23700  0.19700  1.0000
  O   O6        1.0  0.23800  0.65700  0.28100  1.0000
  O   O7        1.0  0.76200  0.65700  0.28100  1.0000
  O   O8        1.0  0.00000  0.90400  0.38300  1.0000
  O   O9        1.0  0.00000  0.36800  0.38700  1.0000
  O   O10       1.0  0.50000  0.47000  0.53600  1.0000
  O   O11       1.0  0.20400  0.04830  0.55100  1.0000
  O   O12       1.0  0.79600  0.04830  0.55100  1.0000
  O   O13       1.0  0.29600  0.76300  0.69700  1.0000
  O   O14       1.0  0.70400  0.76300  0.69700  1.0000
  O   O15       1.0  0.26200  0.34300  0.78100  1.0000
  O   O16       1.0  0.73800  0.34300  0.78100  1.0000
  O   O17       1.0  0.50000  0.09620  0.88300  1.0000
  O   O18       1.0  0.50000  0.63200  0.88700  1.0000
  P   P1        1.0  0.00000  0.65400  0.15900  1.0000
  P   P2        1.0  0.50000  0.34600  0.65900  1.0000
  Pb  Pb1       1.0  0.50000  0.46900  0.20100  1.0000
  Pb  Pb2       1.0  0.50000  0.84700  0.37200  1.0000
  Pb  Pb3       1.0  0.00000  0.53100  0.70100  1.0000
  Pb  Pb4       1.0  0.00000  0.15300  0.87200  1.0000
