data_image0
_chemical_formula_structural       C6Cl8Fe3H6N6
_chemical_formula_sum              "C6 Cl8 Fe3 H6 N6"
_cell_length_a       9.91775
_cell_length_b       9.91774
_cell_length_c       6.13443
_cell_angle_alpha    90.0011
_cell_angle_beta     89.9998
_cell_angle_gamma    119.999

_space_group_name_H-M_alt    "P 1"
_space_group_IT_number       1

loop_
  _space_group_symop_operation_xyz
  'x, y, z'

loop_
  _atom_site_type_symbol
  _atom_site_label
  _atom_site_symmetry_multiplicity
  _atom_site_fract_x
  _atom_site_fract_y
  _atom_site_fract_z
  _atom_site_occupancy
  C   C1        1.0  0.93700  0.71500  0.26500  1.0000
  C   C2        1.0  0.28500  0.22200  0.26500  1.0000
  C   C3        1.0  0.77800  0.06280  0.26500  1.0000
  C   C4        1.0  0.06280  0.28500  0.73500  1.0000
  C   C5        1.0  0.22200  0.93700  0.73500  1.0000
  C   C6        1.0  0.71500  0.77800  0.73500  1.0000
  Cl  Cl1       1.0  0.66700  0.33300  0.21900  1.0000
  Cl  Cl2       1.0  0.37300  0.89400  0.25600  1.0000
  Cl  Cl3       1.0  0.52100  0.62700  0.25600  1.0000
  Cl  Cl4       1.0  0.10600  0.47900  0.25600  1.0000
  Cl  Cl5       1.0  0.89400  0.52100  0.74400  1.0000
  Cl  Cl6       1.0  0.47900  0.37300  0.74400  1.0000
  Cl  Cl7       1.0  0.62700  0.10600  0.74400  1.0000
  Cl  Cl8       1.0  0.33300  0.66700  0.78100  1.0000
  Fe  Fe1       1.0  0.00000  0.00000  0.00000  1.0000
  Fe  Fe2       1.0  0.33300  0.66700  0.14100  1.0000
  Fe  Fe3       1.0  0.66700  0.33300  0.85900  1.0000
  H   H1        1.0  0.39000  0.30400  0.35100  1.0000
  H   H2        1.0  0.91400  0.61000  0.35100  1.0000
  H   H3        1.0  0.69600  0.08610  0.35100  1.0000
  H   H4        1.0  0.30400  0.91400  0.64900  1.0000
  H   H5        1.0  0.08610  0.39000  0.64900  1.0000
  H   H6        1.0  0.61000  0.69600  0.64900  1.0000
  N   N1        1.0  0.96100  0.82700  0.17400  1.0000
  N   N2        1.0  0.86500  0.03880  0.17400  1.0000
  N   N3        1.0  0.17300  0.13500  0.17400  1.0000
  N   N4        1.0  0.82700  0.86500  0.82600  1.0000
  N   N5        1.0  0.13500  0.96100  0.82600  1.0000
  N   N6        1.0  0.03880  0.17300  0.82600  1.0000
