data_image0
_chemical_formula_structural       As3Ga3O12
_chemical_formula_sum              "As3 Ga3 O12"
_cell_length_a       4.91507
_cell_length_b       4.91507
_cell_length_c       11.3936
_cell_angle_alpha    90
_cell_angle_beta     90
_cell_angle_gamma    120

_space_group_name_H-M_alt    "P 1"
_space_group_IT_number       1

loop_
  _space_group_symop_operation_xyz
  'x, y, z'

loop_
  _atom_site_type_symbol
  _atom_site_label
  _atom_site_symmetry_multiplicity
  _atom_site_fract_x
  _atom_site_fract_y
  _atom_site_fract_z
  _atom_site_occupancy
  As  As1       1.0  0.00000  0.44200  0.16700  1.0000
  As  As2       1.0  0.55800  0.55800  0.50000  1.0000
  As  As3       1.0  0.44200  0.00000  0.83300  1.0000
  Ga  Ga1       1.0  0.55600  0.55600  0.00002  1.0000
  Ga  Ga2       1.0  0.44400  0.00001  0.33300  1.0000
  Ga  Ga3       1.0  0.00000  0.44400  0.66700  1.0000
  O   O1        1.0  0.94100  0.61500  0.04600  1.0000
  O   O2        1.0  0.30800  0.38700  0.13200  1.0000
  O   O3        1.0  0.69200  0.07890  0.20100  1.0000
  O   O4        1.0  0.05930  0.67400  0.28700  1.0000
  O   O5        1.0  0.38500  0.32600  0.37900  1.0000
  O   O6        1.0  0.61300  0.92100  0.46600  1.0000
  O   O7        1.0  0.92100  0.61300  0.53400  1.0000
  O   O8        1.0  0.32600  0.38500  0.62100  1.0000
  O   O9        1.0  0.67400  0.05930  0.71300  1.0000
  O   O10       1.0  0.07890  0.69200  0.79900  1.0000
  O   O11       1.0  0.38700  0.30800  0.86800  1.0000
  O   O12       1.0  0.61500  0.94100  0.95400  1.0000
