data_image0
_chemical_formula_structural       H12Li2Mn2O14
_chemical_formula_sum              "H12 Li2 Mn2 O14"
_cell_length_a       7.52043
_cell_length_b       7.51966
_cell_length_c       5.17341
_cell_angle_alpha    90
_cell_angle_beta     90
_cell_angle_gamma    120.003

_space_group_name_H-M_alt    "P 1"
_space_group_IT_number       1

loop_
  _space_group_symop_operation_xyz
  'x, y, z'

loop_
  _atom_site_type_symbol
  _atom_site_label
  _atom_site_symmetry_multiplicity
  _atom_site_fract_x
  _atom_site_fract_y
  _atom_site_fract_z
  _atom_site_occupancy
  H   H1        1.0  0.66300  0.72700  0.44600  1.0000
  H   H2        1.0  0.06400  0.72700  0.44600  1.0000
  H   H3        1.0  0.27300  0.33700  0.44600  1.0000
  H   H4        1.0  0.06400  0.33700  0.44600  1.0000
  H   H5        1.0  0.66300  0.93600  0.44600  1.0000
  H   H6        1.0  0.27300  0.93600  0.44600  1.0000
  H   H7        1.0  0.93600  0.27300  0.94600  1.0000
  H   H8        1.0  0.33700  0.27300  0.94600  1.0000
  H   H9        1.0  0.93600  0.66300  0.94600  1.0000
  H   H10       1.0  0.72700  0.66300  0.94600  1.0000
  H   H11       1.0  0.72700  0.06400  0.94600  1.0000
  H   H12       1.0  0.33700  0.06400  0.94600  1.0000
  Li  Li1       1.0  0.00000  0.00000  0.21300  1.0000
  Li  Li2       1.0  0.00000  0.00000  0.71300  1.0000
  Mn  Mn1       1.0  0.66700  0.33300  0.49100  1.0000
  Mn  Mn2       1.0  0.33300  0.66700  0.99100  1.0000
  O   O1        1.0  0.33300  0.66700  0.30200  1.0000
  O   O2        1.0  0.90200  0.45100  0.39000  1.0000
  O   O3        1.0  0.54900  0.45100  0.39000  1.0000
  O   O4        1.0  0.54900  0.09770  0.39000  1.0000
  O   O5        1.0  0.12400  0.24800  0.46300  1.0000
  O   O6        1.0  0.75200  0.87600  0.46300  1.0000
  O   O7        1.0  0.12400  0.87600  0.46300  1.0000
  O   O8        1.0  0.66700  0.33300  0.80200  1.0000
  O   O9        1.0  0.45100  0.54900  0.89000  1.0000
  O   O10       1.0  0.09770  0.54900  0.89000  1.0000
  O   O11       1.0  0.45100  0.90200  0.89000  1.0000
  O   O12       1.0  0.87600  0.12400  0.96300  1.0000
  O   O13       1.0  0.24800  0.12400  0.96300  1.0000
  O   O14       1.0  0.87600  0.75200  0.96300  1.0000
