data_image0
_chemical_formula_structural       H12Li2O14Tc2
_chemical_formula_sum              "H12 Li2 O14 Tc2"
_cell_length_a       7.68849
_cell_length_b       7.68835
_cell_length_c       5.22781
_cell_angle_alpha    90
_cell_angle_beta     90
_cell_angle_gamma    120.002

_space_group_name_H-M_alt    "P 1"
_space_group_IT_number       1

loop_
  _space_group_symop_operation_xyz
  'x, y, z'

loop_
  _atom_site_type_symbol
  _atom_site_label
  _atom_site_symmetry_multiplicity
  _atom_site_fract_x
  _atom_site_fract_y
  _atom_site_fract_z
  _atom_site_occupancy
  H   H1        1.0  0.26900  0.93400  0.15000  1.0000
  H   H2        1.0  0.26900  0.33500  0.15000  1.0000
  H   H3        1.0  0.06570  0.33500  0.15000  1.0000
  H   H4        1.0  0.66500  0.93400  0.15000  1.0000
  H   H5        1.0  0.06570  0.73100  0.15000  1.0000
  H   H6        1.0  0.66500  0.73100  0.15000  1.0000
  H   H7        1.0  0.33500  0.06570  0.65000  1.0000
  H   H8        1.0  0.73100  0.06570  0.65000  1.0000
  H   H9        1.0  0.93400  0.66500  0.65000  1.0000
  H   H10       1.0  0.73100  0.66500  0.65000  1.0000
  H   H11       1.0  0.33500  0.26900  0.65000  1.0000
  H   H12       1.0  0.93400  0.26900  0.65000  1.0000
  Li  Li1       1.0  0.00000  0.00000  0.39200  1.0000
  Li  Li2       1.0  0.00000  0.00000  0.89200  1.0000
  O   O1        1.0  0.12300  0.24500  0.14200  1.0000
  O   O2        1.0  0.75500  0.87700  0.14200  1.0000
  O   O3        1.0  0.12300  0.87700  0.14200  1.0000
  O   O4        1.0  0.54300  0.08510  0.20400  1.0000
  O   O5        1.0  0.91500  0.45700  0.20400  1.0000
  O   O6        1.0  0.54300  0.45700  0.20400  1.0000
  O   O7        1.0  0.33300  0.66700  0.26900  1.0000
  O   O8        1.0  0.87700  0.75500  0.64200  1.0000
  O   O9        1.0  0.87700  0.12300  0.64200  1.0000
  O   O10       1.0  0.24500  0.12300  0.64200  1.0000
  O   O11       1.0  0.45700  0.91500  0.70400  1.0000
  O   O12       1.0  0.08510  0.54300  0.70400  1.0000
  O   O13       1.0  0.45700  0.54300  0.70400  1.0000
  O   O14       1.0  0.66700  0.33300  0.76900  1.0000
  Tc  Tc1       1.0  0.66700  0.33300  0.09960  1.0000
  Tc  Tc2       1.0  0.33300  0.66700  0.60000  1.0000
