data_image0
_chemical_formula_structural       H8N8NaO12Rh
_chemical_formula_sum              "H8 N8 Na1 O12 Rh1"
_cell_length_a       7.22414
_cell_length_b       7.22414
_cell_length_c       7.22414
_cell_angle_alpha    120
_cell_angle_beta     90
_cell_angle_gamma    120

_space_group_name_H-M_alt    "P 1"
_space_group_IT_number       1

loop_
  _space_group_symop_operation_xyz
  'x, y, z'

loop_
  _atom_site_type_symbol
  _atom_site_label
  _atom_site_symmetry_multiplicity
  _atom_site_fract_x
  _atom_site_fract_y
  _atom_site_fract_z
  _atom_site_occupancy
  H   H1        1.0  0.57600  0.38400  0.19200  1.0000
  H   H2        1.0  0.80800  0.38400  0.19200  1.0000
  H   H3        1.0  0.80800  0.61600  0.19200  1.0000
  H   H4        1.0  0.80800  0.61600  0.42400  1.0000
  H   H5        1.0  0.19200  0.38400  0.57600  1.0000
  H   H6        1.0  0.19200  0.38400  0.80800  1.0000
  H   H7        1.0  0.19200  0.61600  0.80800  1.0000
  H   H8        1.0  0.42400  0.61600  0.80800  1.0000
  N   N1        1.0  0.20100  0.40200  0.20100  1.0000
  N   N2        1.0  0.20100  0.00000  0.20100  1.0000
  N   N3        1.0  0.79900  0.00000  0.20100  1.0000
  N   N4        1.0  0.75000  0.50000  0.25000  1.0000
  N   N5        1.0  0.25000  0.50000  0.75000  1.0000
  N   N6        1.0  0.20100  0.00000  0.79900  1.0000
  N   N7        1.0  0.79900  0.00000  0.79900  1.0000
  N   N8        1.0  0.79900  0.59800  0.79900  1.0000
  Na  Na1       1.0  0.50000  0.00000  0.50000  1.0000
  O   O1        1.0  0.15600  0.52500  0.15600  1.0000
  O   O2        1.0  0.63200  0.78800  0.15600  1.0000
  O   O3        1.0  0.36800  0.00000  0.15600  1.0000
  O   O4        1.0  0.36800  0.52500  0.36800  1.0000
  O   O5        1.0  0.15600  0.00000  0.36800  1.0000
  O   O6        1.0  0.84400  0.21200  0.36800  1.0000
  O   O7        1.0  0.63200  0.47500  0.63200  1.0000
  O   O8        1.0  0.15600  0.78800  0.63200  1.0000
  O   O9        1.0  0.84400  0.00000  0.63200  1.0000
  O   O10       1.0  0.63200  0.00000  0.84400  1.0000
  O   O11       1.0  0.36800  0.21200  0.84400  1.0000
  O   O12       1.0  0.84400  0.47500  0.84400  1.0000
  Rh  Rh1       1.0  0.00000  0.00000  0.00000  1.0000
