data_image0
_chemical_formula_structural       K8O8Sn2
_chemical_formula_sum              "K8 O8 Sn2"
_cell_length_a       6.496
_cell_length_b       6.50416
_cell_length_c       9.67995
_cell_angle_alpha    71.6076
_cell_angle_beta     100.41
_cell_angle_gamma    112.926

_space_group_name_H-M_alt    "P 1"
_space_group_IT_number       1

loop_
  _space_group_symop_operation_xyz
  'x, y, z'

loop_
  _atom_site_type_symbol
  _atom_site_label
  _atom_site_symmetry_multiplicity
  _atom_site_fract_x
  _atom_site_fract_y
  _atom_site_fract_z
  _atom_site_occupancy
  K   K1        1.0  0.25800  0.76300  0.02790  1.0000
  K   K2        1.0  0.75600  0.58800  0.16700  1.0000
  K   K3        1.0  0.72100  0.03770  0.38200  1.0000
  K   K4        1.0  0.22500  0.51100  0.43900  1.0000
  K   K5        1.0  0.77500  0.48900  0.56100  1.0000
  K   K6        1.0  0.27900  0.96200  0.61800  1.0000
  K   K7        1.0  0.24400  0.41200  0.83300  1.0000
  K   K8        1.0  0.74200  0.23700  0.97200  1.0000
  O   O1        1.0  0.37400  0.16000  0.08390  1.0000
  O   O2        1.0  0.03070  0.34700  0.19000  1.0000
  O   O3        1.0  0.03250  0.83700  0.35500  1.0000
  O   O4        1.0  0.47000  0.29800  0.38000  1.0000
  O   O5        1.0  0.53000  0.70200  0.62000  1.0000
  O   O6        1.0  0.96700  0.16300  0.64500  1.0000
  O   O7        1.0  0.96900  0.65300  0.81000  1.0000
  O   O8        1.0  0.62600  0.84000  0.91600  1.0000
  Sn  Sn1       1.0  0.22200  0.15300  0.24600  1.0000
  Sn  Sn2       1.0  0.77800  0.84700  0.75400  1.0000
