data_image0
_chemical_formula_structural       Ga3O12P3
_chemical_formula_sum              "Ga3 O12 P3"
_cell_length_a       4.82947
_cell_length_b       4.82947
_cell_length_c       11.0129
_cell_angle_alpha    90
_cell_angle_beta     90
_cell_angle_gamma    120

_space_group_name_H-M_alt    "P 1"
_space_group_IT_number       1

loop_
  _space_group_symop_operation_xyz
  'x, y, z'

loop_
  _atom_site_type_symbol
  _atom_site_label
  _atom_site_symmetry_multiplicity
  _atom_site_fract_x
  _atom_site_fract_y
  _atom_site_fract_z
  _atom_site_occupancy
  Ga  Ga1       1.0  0.55000  0.55000  0.00001  1.0000
  Ga  Ga2       1.0  0.45000  0.00000  0.33300  1.0000
  Ga  Ga3       1.0  0.00000  0.45000  0.66700  1.0000
  O   O1        1.0  0.92800  0.59900  0.05560  1.0000
  O   O2        1.0  0.28300  0.40300  0.13300  1.0000
  O   O3        1.0  0.71700  0.12000  0.20100  1.0000
  O   O4        1.0  0.07210  0.67100  0.27800  1.0000
  O   O5        1.0  0.40100  0.32900  0.38900  1.0000
  O   O6        1.0  0.59700  0.88000  0.46600  1.0000
  O   O7        1.0  0.88000  0.59700  0.53400  1.0000
  O   O8        1.0  0.32900  0.40100  0.61100  1.0000
  O   O9        1.0  0.67100  0.07220  0.72200  1.0000
  O   O10       1.0  0.12000  0.71700  0.79900  1.0000
  O   O11       1.0  0.40300  0.28300  0.86700  1.0000
  O   O12       1.0  0.59900  0.92800  0.94400  1.0000
  P   P1        1.0  0.00000  0.45000  0.16700  1.0000
  P   P2        1.0  0.55000  0.55000  0.50000  1.0000
  P   P3        1.0  0.45000  0.00003  0.83300  1.0000
