data_image0
_chemical_formula_structural       B2Cd2Li2O6
_chemical_formula_sum              "B2 Cd2 Li2 O6"
_cell_length_a       5.22022
_cell_length_b       5.25946
_cell_length_c       6.07578
_cell_angle_alpha    90.614
_cell_angle_beta     67.1886
_cell_angle_gamma    119.074

_space_group_name_H-M_alt    "P 1"
_space_group_IT_number       1

loop_
  _space_group_symop_operation_xyz
  'x, y, z'

loop_
  _atom_site_type_symbol
  _atom_site_label
  _atom_site_symmetry_multiplicity
  _atom_site_fract_x
  _atom_site_fract_y
  _atom_site_fract_z
  _atom_site_occupancy
  B   B1        1.0  0.80300  0.06700  0.26700  1.0000
  B   B2        1.0  0.19700  0.93300  0.73300  1.0000
  Cd  Cd1       1.0  0.15700  0.74100  0.23500  1.0000
  Cd  Cd2       1.0  0.84300  0.25900  0.76500  1.0000
  Li  Li1       1.0  0.43500  0.36600  0.33400  1.0000
  Li  Li2       1.0  0.56500  0.63400  0.66600  1.0000
  O   O1        1.0  0.63000  0.14600  0.18400  1.0000
  O   O2        1.0  0.72400  0.77600  0.30200  1.0000
  O   O3        1.0  0.04550  0.28500  0.32000  1.0000
  O   O4        1.0  0.95400  0.71500  0.68000  1.0000
  O   O5        1.0  0.27600  0.22400  0.69800  1.0000
  O   O6        1.0  0.37000  0.85400  0.81600  1.0000
