data_image0
_chemical_formula_structural       Cl6H16N5O3Rh
_chemical_formula_sum              "Cl6 H16 N5 O3 Rh1"
_cell_length_a       6.80939
_cell_length_b       6.80902
_cell_length_c       9.11427
_cell_angle_alpha    111.933
_cell_angle_beta     90
_cell_angle_gamma    120.002

_space_group_name_H-M_alt    "P 1"
_space_group_IT_number       1

loop_
  _space_group_symop_operation_xyz
  'x, y, z'

loop_
  _atom_site_type_symbol
  _atom_site_label
  _atom_site_symmetry_multiplicity
  _atom_site_fract_x
  _atom_site_fract_y
  _atom_site_fract_z
  _atom_site_occupancy
  Cl  Cl1       1.0  0.91100  0.28900  0.17300  1.0000
  Cl  Cl2       1.0  0.37800  0.26100  0.17300  1.0000
  Cl  Cl3       1.0  0.88400  0.79500  0.17300  1.0000
  Cl  Cl4       1.0  0.08860  0.20500  0.82700  1.0000
  Cl  Cl5       1.0  0.11600  0.73900  0.82700  1.0000
  Cl  Cl6       1.0  0.62200  0.71100  0.82700  1.0000
  H   H1        1.0  0.66400  0.32800  0.99200  1.0000
  H   H2        1.0  0.33600  0.67200  0.00753  1.0000
  H   H3        1.0  0.24400  0.63500  0.17100  1.0000
  H   H4        1.0  0.53600  0.78000  0.17100  1.0000
  H   H5        1.0  0.39100  0.92700  0.17100  1.0000
  H   H6        1.0  0.12600  0.25100  0.37700  1.0000
  H   H7        1.0  0.74600  0.47200  0.45800  1.0000
  H   H8        1.0  0.98600  0.73200  0.45800  1.0000
  H   H9        1.0  0.72500  0.71100  0.45800  1.0000
  H   H10       1.0  0.01400  0.28900  0.54200  1.0000
  H   H11       1.0  0.25400  0.26800  0.54200  1.0000
  H   H12       1.0  0.27500  0.52800  0.54200  1.0000
  H   H13       1.0  0.87400  0.74900  0.62300  1.0000
  H   H14       1.0  0.46400  0.07320  0.82900  1.0000
  H   H15       1.0  0.75600  0.22000  0.82900  1.0000
  H   H16       1.0  0.60900  0.36500  0.82900  1.0000
  N   N1        1.0  0.37800  0.75600  0.13400  1.0000
  N   N2        1.0  0.83200  0.66500  0.49700  1.0000
  N   N3        1.0  0.50000  0.00000  0.50000  1.0000
  N   N4        1.0  0.16800  0.33500  0.50300  1.0000
  N   N5        1.0  0.62200  0.24400  0.86600  1.0000
  O   O1        1.0  0.68600  0.18600  0.50000  1.0000
  O   O2        1.0  0.31400  0.00000  0.50000  1.0000
  O   O3        1.0  0.50000  0.81400  0.50000  1.0000
  Rh  Rh1       1.0  0.00000  0.00000  1.00000  1.0000
