data_image0
_chemical_formula_structural       Ba6O10Si2
_chemical_formula_sum              "Ba6 O10 Si2"
_cell_length_a       7.29765
_cell_length_b       7.29765
_cell_length_c       7.64459
_cell_angle_alpha    118.51
_cell_angle_beta     118.51
_cell_angle_gamma    90

_space_group_name_H-M_alt    "P 1"
_space_group_IT_number       1

loop_
  _space_group_symop_operation_xyz
  'x, y, z'

loop_
  _atom_site_type_symbol
  _atom_site_label
  _atom_site_symmetry_multiplicity
  _atom_site_fract_x
  _atom_site_fract_y
  _atom_site_fract_z
  _atom_site_occupancy
  Ba  Ba1       1.0  0.31900  0.18100  0.00000  1.0000
  Ba  Ba2       1.0  0.81900  0.31900  0.00000  1.0000
  Ba  Ba3       1.0  0.18100  0.68100  0.00000  1.0000
  Ba  Ba4       1.0  0.68100  0.81900  0.00000  1.0000
  Ba  Ba5       1.0  0.25000  0.25000  0.50000  1.0000
  Ba  Ba6       1.0  0.75000  0.75000  0.50000  1.0000
  O   O1        1.0  0.00000  0.00000  0.00000  1.0000
  O   O2        1.0  0.50000  0.50000  0.00000  1.0000
  O   O3        1.0  0.53400  0.03410  0.32400  1.0000
  O   O4        1.0  0.79000  0.29000  0.32400  1.0000
  O   O5        1.0  0.29000  0.53400  0.32400  1.0000
  O   O6        1.0  0.03410  0.79000  0.32400  1.0000
  O   O7        1.0  0.96600  0.21000  0.67600  1.0000
  O   O8        1.0  0.71000  0.46600  0.67600  1.0000
  O   O9        1.0  0.21000  0.71000  0.67600  1.0000
  O   O10       1.0  0.46600  0.96600  0.67600  1.0000
  Si  Si1       1.0  0.75000  0.25000  0.50000  1.0000
  Si  Si2       1.0  0.25000  0.75000  0.50000  1.0000
