data_image0
_chemical_formula_structural       H8I4O16Zn2
_chemical_formula_sum              "H8 I4 O16 Zn2"
_cell_length_a       4.74437
_cell_length_b       6.43336
_cell_length_c       10.8231
_cell_angle_alpha    98.6135
_cell_angle_beta     90.9364
_cell_angle_gamma    93.1556

_space_group_name_H-M_alt    "P 1"
_space_group_IT_number       1

loop_
  _space_group_symop_operation_xyz
  'x, y, z'

loop_
  _atom_site_type_symbol
  _atom_site_label
  _atom_site_symmetry_multiplicity
  _atom_site_fract_x
  _atom_site_fract_y
  _atom_site_fract_z
  _atom_site_occupancy
  H   H1        1.0  0.23100  0.38200  0.01510  1.0000
  H   H2        1.0  0.46800  0.23300  0.04270  1.0000
  H   H3        1.0  0.45500  0.20700  0.43800  1.0000
  H   H4        1.0  0.69900  0.64500  0.45100  1.0000
  H   H5        1.0  0.30100  0.35500  0.54900  1.0000
  H   H6        1.0  0.54500  0.79300  0.56200  1.0000
  H   H7        1.0  0.53200  0.76700  0.95700  1.0000
  H   H8        1.0  0.76900  0.61800  0.98500  1.0000
  I   I1        1.0  0.37900  0.77600  0.23000  1.0000
  I   I2        1.0  0.90600  0.29800  0.27000  1.0000
  I   I3        1.0  0.09370  0.70200  0.73000  1.0000
  I   I4        1.0  0.62100  0.22400  0.77000  1.0000
  O   O1        1.0  0.68900  0.75400  0.01980  1.0000
  O   O2        1.0  0.75700  0.20900  0.11100  1.0000
  O   O3        1.0  0.14900  0.56200  0.14300  1.0000
  O   O4        1.0  0.20000  0.99600  0.17300  1.0000
  O   O5        1.0  0.64500  0.49300  0.32000  1.0000
  O   O6        1.0  0.73000  0.09220  0.35300  1.0000
  O   O7        1.0  0.20800  0.77900  0.38000  1.0000
  O   O8        1.0  0.26700  0.24800  0.47100  1.0000
  O   O9        1.0  0.73300  0.75200  0.52900  1.0000
  O   O10       1.0  0.79200  0.22100  0.62000  1.0000
  O   O11       1.0  0.27000  0.90800  0.64700  1.0000
  O   O12       1.0  0.35500  0.50700  0.68000  1.0000
  O   O13       1.0  0.80000  0.00413  0.82700  1.0000
  O   O14       1.0  0.85100  0.43800  0.85700  1.0000
  O   O15       1.0  0.24300  0.79100  0.88900  1.0000
  O   O16       1.0  0.31100  0.24600  0.98000  1.0000
  Zn  Zn1       1.0  0.00000  0.00000  0.00000  1.0000
  Zn  Zn2       1.0  0.00000  1.00000  0.50000  1.0000
