data_image0
_chemical_formula_structural       Cu2H8I4O16
_chemical_formula_sum              "Cu2 H8 I4 O16"
_cell_length_a       6.48861
_cell_length_b       4.65631
_cell_length_c       11.078
_cell_angle_alpha    90
_cell_angle_beta     103.05
_cell_angle_gamma    90

_space_group_name_H-M_alt    "P 1"
_space_group_IT_number       1

loop_
  _space_group_symop_operation_xyz
  'x, y, z'

loop_
  _atom_site_type_symbol
  _atom_site_label
  _atom_site_symmetry_multiplicity
  _atom_site_fract_x
  _atom_site_fract_y
  _atom_site_fract_z
  _atom_site_occupancy
  Cu  Cu1       1.0  0.00000  0.00000  0.00000  1.0000
  Cu  Cu2       1.0  0.00000  0.50000  0.50000  1.0000
  H   H1        1.0  0.34900  0.73500  0.03880  1.0000
  H   H2        1.0  0.81900  0.41800  0.07740  1.0000
  H   H3        1.0  0.18100  0.91800  0.42300  1.0000
  H   H4        1.0  0.65100  0.23500  0.46100  1.0000
  H   H5        1.0  0.34900  0.76500  0.53900  1.0000
  H   H6        1.0  0.81900  0.08160  0.57700  1.0000
  H   H7        1.0  0.18100  0.58200  0.92300  1.0000
  H   H8        1.0  0.65100  0.26500  0.96100  1.0000
  I   I1        1.0  0.73800  0.88100  0.23400  1.0000
  I   I2        1.0  0.26200  0.38100  0.26600  1.0000
  I   I3        1.0  0.73800  0.61900  0.73400  1.0000
  I   I4        1.0  0.26200  0.11900  0.76600  1.0000
  O   O1        1.0  0.77000  0.22700  0.03780  1.0000
  O   O2        1.0  0.21800  0.21500  0.11100  1.0000
  O   O3        1.0  0.51300  0.65300  0.15800  1.0000
  O   O4        1.0  0.93500  0.68200  0.16600  1.0000
  O   O5        1.0  0.06530  0.18200  0.33400  1.0000
  O   O6        1.0  0.48700  0.15300  0.34200  1.0000
  O   O7        1.0  0.78200  0.71500  0.38900  1.0000
  O   O8        1.0  0.23000  0.72700  0.46200  1.0000
  O   O9        1.0  0.77000  0.27300  0.53800  1.0000
  O   O10       1.0  0.21800  0.28500  0.61100  1.0000
  O   O11       1.0  0.51300  0.84700  0.65800  1.0000
  O   O12       1.0  0.93500  0.81800  0.66600  1.0000
  O   O13       1.0  0.06530  0.31800  0.83400  1.0000
  O   O14       1.0  0.48700  0.34700  0.84200  1.0000
  O   O15       1.0  0.78200  0.78500  0.88900  1.0000
  O   O16       1.0  0.23000  0.77300  0.96200  1.0000
