data_image0
_chemical_formula_structural       H2K2O16P4Zn4
_chemical_formula_sum              "H2 K2 O16 P4 Zn4"
_cell_length_a       5.06314
_cell_length_b       8.76136
_cell_length_c       9.26357
_cell_angle_alpha    77.0032
_cell_angle_beta     81.0097
_cell_angle_gamma    72.0087

_space_group_name_H-M_alt    "P 1"
_space_group_IT_number       1

loop_
  _space_group_symop_operation_xyz
  'x, y, z'

loop_
  _atom_site_type_symbol
  _atom_site_label
  _atom_site_symmetry_multiplicity
  _atom_site_fract_x
  _atom_site_fract_y
  _atom_site_fract_z
  _atom_site_occupancy
  H   H1        1.0  0.34100  0.10200  0.37700  1.0000
  H   H2        1.0  0.65900  0.89800  0.62300  1.0000
  K   K1        1.0  0.74200  0.71900  0.32400  1.0000
  K   K2        1.0  0.25800  0.28100  0.67600  1.0000
  O   O1        1.0  0.03750  0.75700  0.03550  1.0000
  O   O2        1.0  0.49800  0.22200  0.10200  1.0000
  O   O3        1.0  0.34600  0.88500  0.13600  1.0000
  O   O4        1.0  0.49200  0.58600  0.14600  1.0000
  O   O5        1.0  0.16100  0.10200  0.34600  1.0000
  O   O6        1.0  0.86200  0.39300  0.34800  1.0000
  O   O7        1.0  0.11200  0.43500  0.37400  1.0000
  O   O8        1.0  0.63300  0.18100  0.40100  1.0000
  O   O9        1.0  0.36700  0.81900  0.59900  1.0000
  O   O10       1.0  0.88800  0.56500  0.62600  1.0000
  O   O11       1.0  0.13800  0.60700  0.65200  1.0000
  O   O12       1.0  0.83900  0.89800  0.65400  1.0000
  O   O13       1.0  0.50800  0.41400  0.85400  1.0000
  O   O14       1.0  0.65400  0.11500  0.86400  1.0000
  O   O15       1.0  0.50200  0.77800  0.89800  1.0000
  O   O16       1.0  0.96300  0.24300  0.96400  1.0000
  P   P1        1.0  0.33800  0.74900  0.05680  1.0000
  P   P2        1.0  0.89000  0.21000  0.45500  1.0000
  P   P3        1.0  0.11000  0.79000  0.54500  1.0000
  P   P4        1.0  0.66200  0.25100  0.94300  1.0000
  Zn  Zn1       1.0  0.19200  0.11700  0.11900  1.0000
  Zn  Zn2       1.0  0.44200  0.37500  0.23900  1.0000
  Zn  Zn3       1.0  0.55800  0.62500  0.76100  1.0000
  Zn  Zn4       1.0  0.80800  0.88300  0.88100  1.0000
