data_image0
_chemical_formula_structural       C4Cl2H8K3O12Rh
_chemical_formula_sum              "C4 Cl2 H8 K3 O12 Rh1"
_cell_length_a       6.24203
_cell_length_b       8.16137
_cell_length_c       8.16137
_cell_angle_alpha    92.7245
_cell_angle_beta     108.458
_cell_angle_gamma    108.458

_space_group_name_H-M_alt    "P 1"
_space_group_IT_number       1

loop_
  _space_group_symop_operation_xyz
  'x, y, z'

loop_
  _atom_site_type_symbol
  _atom_site_label
  _atom_site_symmetry_multiplicity
  _atom_site_fract_x
  _atom_site_fract_y
  _atom_site_fract_z
  _atom_site_occupancy
  C   C1        1.0  0.39200  0.29600  0.16700  1.0000
  C   C2        1.0  0.39200  0.16700  0.29600  1.0000
  C   C3        1.0  0.60800  0.83300  0.70400  1.0000
  C   C4        1.0  0.60800  0.70400  0.83300  1.0000
  Cl  Cl1       1.0  0.81200  0.13600  0.13600  1.0000
  Cl  Cl2       1.0  0.18800  0.86400  0.86400  1.0000
  H   H1        1.0  0.02960  0.55200  0.88900  1.0000
  H   H2        1.0  0.97000  0.44800  0.11100  1.0000
  H   H3        1.0  0.92600  0.61700  0.12800  1.0000
  H   H4        1.0  0.07450  0.87200  0.38300  1.0000
  H   H5        1.0  0.97000  0.11100  0.44800  1.0000
  H   H6        1.0  0.02960  0.88900  0.55200  1.0000
  H   H7        1.0  0.92600  0.12800  0.61700  1.0000
  H   H8        1.0  0.07450  0.38300  0.87200  1.0000
  K   K1        1.0  0.50000  0.76900  0.23100  1.0000
  K   K2        1.0  0.00000  0.50000  0.50000  1.0000
  K   K3        1.0  0.50000  0.23100  0.76900  1.0000
  O   O1        1.0  0.23900  0.23600  0.00850  1.0000
  O   O2        1.0  0.06200  0.59500  0.20900  1.0000
  O   O3        1.0  0.53100  0.44600  0.21100  1.0000
  O   O4        1.0  0.23900  0.00850  0.23600  1.0000
  O   O5        1.0  0.93800  0.79100  0.40500  1.0000
  O   O6        1.0  0.53100  0.21100  0.44600  1.0000
  O   O7        1.0  0.46900  0.78900  0.55400  1.0000
  O   O8        1.0  0.06200  0.20900  0.59500  1.0000
  O   O9        1.0  0.76100  0.99100  0.76400  1.0000
  O   O10       1.0  0.46900  0.55400  0.78900  1.0000
  O   O11       1.0  0.93800  0.40500  0.79100  1.0000
  O   O12       1.0  0.76100  0.76400  0.99100  1.0000
  Rh  Rh1       1.0  0.00000  0.00000  0.00000  1.0000
