data_image0
_chemical_formula_structural       Ag8K4S6
_chemical_formula_sum              "Ag8 K4 S6"
_cell_length_a       4.29799
_cell_length_b       9.10401
_cell_length_c       11.7203
_cell_angle_alpha    107.902
_cell_angle_beta     90
_cell_angle_gamma    103.653

_space_group_name_H-M_alt    "P 1"
_space_group_IT_number       1

loop_
  _space_group_symop_operation_xyz
  'x, y, z'

loop_
  _atom_site_type_symbol
  _atom_site_label
  _atom_site_symmetry_multiplicity
  _atom_site_fract_x
  _atom_site_fract_y
  _atom_site_fract_z
  _atom_site_occupancy
  Ag  Ag1       1.0  0.59200  0.18400  0.08850  1.0000
  Ag  Ag2       1.0  0.98700  0.97300  0.12200  1.0000
  Ag  Ag3       1.0  0.97800  0.95600  0.36700  1.0000
  Ag  Ag4       1.0  0.40700  0.81400  0.48800  1.0000
  Ag  Ag5       1.0  0.59300  0.18600  0.51200  1.0000
  Ag  Ag6       1.0  0.02200  0.04390  0.63300  1.0000
  Ag  Ag7       1.0  0.01330  0.02670  0.87800  1.0000
  Ag  Ag8       1.0  0.40800  0.81600  0.91200  1.0000
  K   K1        1.0  0.33300  0.66600  0.15900  1.0000
  K   K2        1.0  0.18700  0.37300  0.34300  1.0000
  K   K3        1.0  0.81300  0.62700  0.65700  1.0000
  K   K4        1.0  0.66700  0.33400  0.84100  1.0000
  S   S1        1.0  0.14600  0.29300  0.04100  1.0000
  S   S2        1.0  0.53400  0.06830  0.27600  1.0000
  S   S3        1.0  0.83900  0.67700  0.38600  1.0000
  S   S4        1.0  0.16100  0.32300  0.61400  1.0000
  S   S5        1.0  0.46600  0.93200  0.72400  1.0000
  S   S6        1.0  0.85400  0.70700  0.95900  1.0000
