data_image0
_chemical_formula_structural       Ba12H2O2Rb4Sb10
_chemical_formula_sum              "Ba12 H2 O2 Rb4 Sb10"
_cell_length_a       8.90094
_cell_length_b       8.90094
_cell_length_c       15.6131
_cell_angle_alpha    106.562
_cell_angle_beta     106.562
_cell_angle_gamma    90

_space_group_name_H-M_alt    "P 1"
_space_group_IT_number       1

loop_
  _space_group_symop_operation_xyz
  'x, y, z'

loop_
  _atom_site_type_symbol
  _atom_site_label
  _atom_site_symmetry_multiplicity
  _atom_site_fract_x
  _atom_site_fract_y
  _atom_site_fract_z
  _atom_site_occupancy
  Ba  Ba1       1.0  0.09260  0.09260  0.18500  1.0000
  Ba  Ba2       1.0  0.59300  0.59300  0.18500  1.0000
  Ba  Ba3       1.0  0.85200  0.03540  0.38700  1.0000
  Ba  Ba4       1.0  0.53500  0.35200  0.38700  1.0000
  Ba  Ba5       1.0  0.03540  0.53500  0.38700  1.0000
  Ba  Ba6       1.0  0.35200  0.85200  0.38700  1.0000
  Ba  Ba7       1.0  0.64800  0.14800  0.61300  1.0000
  Ba  Ba8       1.0  0.96500  0.46500  0.61300  1.0000
  Ba  Ba9       1.0  0.46500  0.64800  0.61300  1.0000
  Ba  Ba10      1.0  0.14800  0.96500  0.61300  1.0000
  Ba  Ba11      1.0  0.40700  0.40700  0.81500  1.0000
  Ba  Ba12      1.0  0.90700  0.90700  0.81500  1.0000
  H   H1        1.0  0.00000  0.00000  0.00000  1.0000
  H   H2        1.0  0.50000  0.50000  0.00000  1.0000
  O   O1        1.0  0.75000  0.25000  0.50000  1.0000
  O   O2        1.0  0.25000  0.75000  0.50000  1.0000
  Rb  Rb1       1.0  0.33300  0.16700  0.00000  1.0000
  Rb  Rb2       1.0  0.83300  0.33300  0.00000  1.0000
  Rb  Rb3       1.0  0.16700  0.66700  0.00000  1.0000
  Rb  Rb4       1.0  0.66700  0.83300  0.00000  1.0000
  Sb  Sb1       1.0  0.71900  0.21900  0.20500  1.0000
  Sb  Sb2       1.0  0.21900  0.48600  0.20500  1.0000
  Sb  Sb3       1.0  0.98600  0.71900  0.20500  1.0000
  Sb  Sb4       1.0  0.48600  0.98600  0.20500  1.0000
  Sb  Sb5       1.0  0.25000  0.25000  0.50000  1.0000
  Sb  Sb6       1.0  0.75000  0.75000  0.50000  1.0000
  Sb  Sb7       1.0  0.51400  0.01380  0.79500  1.0000
  Sb  Sb8       1.0  0.01380  0.28100  0.79500  1.0000
  Sb  Sb9       1.0  0.78100  0.51400  0.79500  1.0000
  Sb  Sb10      1.0  0.28100  0.78100  0.79500  1.0000
