data_image0
_chemical_formula_structural       Cr2H16N4O8
_chemical_formula_sum              "Cr2 H16 N4 O8"
_cell_length_a       6.12776
_cell_length_b       6.6988
_cell_length_c       7.47221
_cell_angle_alpha    112.163
_cell_angle_beta     90
_cell_angle_gamma    117.218

_space_group_name_H-M_alt    "P 1"
_space_group_IT_number       1

loop_
  _space_group_symop_operation_xyz
  'x, y, z'

loop_
  _atom_site_type_symbol
  _atom_site_label
  _atom_site_symmetry_multiplicity
  _atom_site_fract_x
  _atom_site_fract_y
  _atom_site_fract_z
  _atom_site_occupancy
  Cr  Cr1       1.0  0.17200  0.34400  0.21200  1.0000
  Cr  Cr2       1.0  0.82800  0.65600  0.78800  1.0000
  H   H1        1.0  0.38900  0.05150  0.17700  1.0000
  H   H2        1.0  0.66200  0.05150  0.17700  1.0000
  H   H3        1.0  0.65100  0.57100  0.19300  1.0000
  H   H4        1.0  0.92000  0.57100  0.19300  1.0000
  H   H5        1.0  0.92300  0.84600  0.25000  1.0000
  H   H6        1.0  0.43500  0.86900  0.26600  1.0000
  H   H7        1.0  0.59000  0.18100  0.39800  1.0000
  H   H8        1.0  0.85900  0.71900  0.41400  1.0000
  H   H9        1.0  0.14100  0.28100  0.58600  1.0000
  H   H10       1.0  0.41000  0.81900  0.60200  1.0000
  H   H11       1.0  0.56500  0.13100  0.73400  1.0000
  H   H12       1.0  0.07710  0.15400  0.75000  1.0000
  H   H13       1.0  0.07990  0.42900  0.80700  1.0000
  H   H14       1.0  0.34900  0.42900  0.80700  1.0000
  H   H15       1.0  0.33800  0.94800  0.82300  1.0000
  H   H16       1.0  0.61100  0.94800  0.82300  1.0000
  N   N1        1.0  0.51900  0.03760  0.25300  1.0000
  N   N2        1.0  0.83900  0.67900  0.26300  1.0000
  N   N3        1.0  0.16100  0.32100  0.73700  1.0000
  N   N4        1.0  0.48100  0.96200  0.74700  1.0000
  O   O1        1.0  0.36100  0.27900  0.07250  1.0000
  O   O2        1.0  0.91800  0.27900  0.07250  1.0000
  O   O3        1.0  0.08760  0.17500  0.34100  1.0000
  O   O4        1.0  0.32300  0.64600  0.36100  1.0000
  O   O5        1.0  0.67700  0.35400  0.63900  1.0000
  O   O6        1.0  0.91200  0.82500  0.65900  1.0000
  O   O7        1.0  0.08170  0.72100  0.92700  1.0000
  O   O8        1.0  0.63900  0.72100  0.92700  1.0000
