data_image0
_chemical_formula_structural       C8Cs4H4N8O4Pt2
_chemical_formula_sum              "C8 Cs4 H4 N8 O4 Pt2"
_cell_length_a       6.4272
_cell_length_b       9.2228
_cell_length_c       9.2228
_cell_angle_alpha    98.5692
_cell_angle_beta     103.46
_cell_angle_gamma    76.5402

_space_group_name_H-M_alt    "P 1"
_space_group_IT_number       1

loop_
  _space_group_symop_operation_xyz
  'x, y, z'

loop_
  _atom_site_type_symbol
  _atom_site_label
  _atom_site_symmetry_multiplicity
  _atom_site_fract_x
  _atom_site_fract_y
  _atom_site_fract_z
  _atom_site_occupancy
  C   C1        1.0  0.96900  0.39000  0.29700  1.0000
  C   C2        1.0  0.39600  0.58100  0.30200  1.0000
  C   C3        1.0  0.53100  0.29700  0.39000  1.0000
  C   C4        1.0  0.89600  0.69800  0.41900  1.0000
  C   C5        1.0  0.10400  0.30200  0.58100  1.0000
  C   C6        1.0  0.46900  0.70300  0.61000  1.0000
  C   C7        1.0  0.60400  0.41900  0.69800  1.0000
  C   C8        1.0  0.03090  0.61000  0.70300  1.0000
  Cs  Cs1       1.0  0.72000  0.67600  0.03070  1.0000
  Cs  Cs2       1.0  0.22000  0.96900  0.32400  1.0000
  Cs  Cs3       1.0  0.78000  0.03070  0.67600  1.0000
  Cs  Cs4       1.0  0.28000  0.32400  0.96900  1.0000
  H   H1        1.0  0.82600  0.18600  0.06120  1.0000
  H   H2        1.0  0.67400  0.06120  0.18600  1.0000
  H   H3        1.0  0.32600  0.93900  0.81400  1.0000
  H   H4        1.0  0.17400  0.81400  0.93900  1.0000
  N   N1        1.0  0.95200  0.31900  0.17900  1.0000
  N   N2        1.0  0.33300  0.62600  0.18300  1.0000
  N   N3        1.0  0.54800  0.17900  0.31900  1.0000
  N   N4        1.0  0.83300  0.81700  0.37400  1.0000
  N   N5        1.0  0.16700  0.18300  0.62600  1.0000
  N   N6        1.0  0.45200  0.82100  0.68100  1.0000
  N   N7        1.0  0.66700  0.37400  0.81700  1.0000
  N   N8        1.0  0.04820  0.68100  0.82100  1.0000
  O   O1        1.0  0.73200  0.11300  0.00483  1.0000
  O   O2        1.0  0.76800  0.00483  0.11300  1.0000
  O   O3        1.0  0.23200  0.99500  0.88700  1.0000
  O   O4        1.0  0.26800  0.88700  0.99500  1.0000
  Pt  Pt1       1.0  0.50000  0.50000  0.50000  1.0000
  Pt  Pt2       1.0  0.00000  0.50000  0.50000  1.0000
