data_image0
_chemical_formula_structural       Pd6Rb4Se8
_chemical_formula_sum              "Pd6 Rb4 Se8"
_cell_length_a       6.43447
_cell_length_b       6.46118
_cell_length_c       13.9848
_cell_angle_alpha    96.5777
_cell_angle_beta     76.6999
_cell_angle_gamma    119.863

_space_group_name_H-M_alt    "P 1"
_space_group_IT_number       1

loop_
  _space_group_symop_operation_xyz
  'x, y, z'

loop_
  _atom_site_type_symbol
  _atom_site_label
  _atom_site_symmetry_multiplicity
  _atom_site_fract_x
  _atom_site_fract_y
  _atom_site_fract_z
  _atom_site_occupancy
  Pd  Pd1       1.0  0.87600  0.75000  0.24900  1.0000
  Pd  Pd2       1.0  0.87500  0.25000  0.25000  1.0000
  Pd  Pd3       1.0  0.37400  0.75000  0.25100  1.0000
  Pd  Pd4       1.0  0.62600  0.25000  0.74900  1.0000
  Pd  Pd5       1.0  0.12500  0.75000  0.75000  1.0000
  Pd  Pd6       1.0  0.12400  0.25000  0.75100  1.0000
  Rb  Rb1       1.0  0.45000  0.25000  0.09940  1.0000
  Rb  Rb2       1.0  0.30000  0.25000  0.40100  1.0000
  Rb  Rb3       1.0  0.70000  0.75000  0.59900  1.0000
  Rb  Rb4       1.0  0.55000  0.75000  0.90100  1.0000
  Se  Se1       1.0  0.10500  0.58200  0.12900  1.0000
  Se  Se2       1.0  0.76600  0.91800  0.12900  1.0000
  Se  Se3       1.0  0.97700  0.58200  0.37100  1.0000
  Se  Se4       1.0  0.65100  0.91800  0.37100  1.0000
  Se  Se5       1.0  0.34900  0.08250  0.62900  1.0000
  Se  Se6       1.0  0.02250  0.41800  0.62900  1.0000
  Se  Se7       1.0  0.23400  0.08250  0.87100  1.0000
  Se  Se8       1.0  0.89500  0.41800  0.87100  1.0000
