data_image0
_chemical_formula_structural       Na8S8Sn2
_chemical_formula_sum              "Na8 S8 Sn2"
_cell_length_a       7.8666
_cell_length_b       7.8666
_cell_length_c       6.97449
_cell_angle_alpha    90
_cell_angle_beta     90
_cell_angle_gamma    90

_space_group_name_H-M_alt    "P 1"
_space_group_IT_number       1

loop_
  _space_group_symop_operation_xyz
  'x, y, z'

loop_
  _atom_site_type_symbol
  _atom_site_label
  _atom_site_symmetry_multiplicity
  _atom_site_fract_x
  _atom_site_fract_y
  _atom_site_fract_z
  _atom_site_occupancy
  Na  Na1       1.0  0.80100  0.40800  0.03130  1.0000
  Na  Na2       1.0  0.19900  0.59200  0.03130  1.0000
  Na  Na3       1.0  0.30100  0.09170  0.46900  1.0000
  Na  Na4       1.0  0.69900  0.90800  0.46900  1.0000
  Na  Na5       1.0  0.90800  0.30100  0.53100  1.0000
  Na  Na6       1.0  0.09170  0.69900  0.53100  1.0000
  Na  Na7       1.0  0.40800  0.19900  0.96900  1.0000
  Na  Na8       1.0  0.59200  0.80100  0.96900  1.0000
  S   S1        1.0  0.09340  0.24100  0.19000  1.0000
  S   S2        1.0  0.90700  0.75900  0.19000  1.0000
  S   S3        1.0  0.59300  0.25900  0.31000  1.0000
  S   S4        1.0  0.40700  0.74100  0.31000  1.0000
  S   S5        1.0  0.25900  0.40700  0.69000  1.0000
  S   S6        1.0  0.74100  0.59300  0.69000  1.0000
  S   S7        1.0  0.75900  0.09340  0.81000  1.0000
  S   S8        1.0  0.24100  0.90700  0.81000  1.0000
  Sn  Sn1       1.0  0.00000  0.00000  0.00000  1.0000
  Sn  Sn2       1.0  0.50000  0.50000  0.50000  1.0000
