data_image0
_chemical_formula_structural       H4K6N2O14S4
_chemical_formula_sum              "H4 K6 N2 O14 S4"
_cell_length_a       7.84542
_cell_length_b       6.67271
_cell_length_c       8.02283
_cell_angle_alpha    91.7117
_cell_angle_beta     97.9467
_cell_angle_gamma    103.315

_space_group_name_H-M_alt    "P 1"
_space_group_IT_number       1

loop_
  _space_group_symop_operation_xyz
  'x, y, z'

loop_
  _atom_site_type_symbol
  _atom_site_label
  _atom_site_symmetry_multiplicity
  _atom_site_fract_x
  _atom_site_fract_y
  _atom_site_fract_z
  _atom_site_occupancy
  H   H1        1.0  0.04070  0.08520  0.34600  1.0000
  H   H2        1.0  0.19800  0.21800  0.47600  1.0000
  H   H3        1.0  0.80200  0.78200  0.52400  1.0000
  H   H4        1.0  0.95900  0.91500  0.65400  1.0000
  K   K1        1.0  0.84700  0.19700  0.06540  1.0000
  K   K2        1.0  0.44700  0.31200  0.24100  1.0000
  K   K3        1.0  0.16900  0.65800  0.41900  1.0000
  K   K4        1.0  0.83100  0.34200  0.58100  1.0000
  K   K5        1.0  0.55300  0.68800  0.75900  1.0000
  K   K6        1.0  0.15300  0.80300  0.93500  1.0000
  N   N1        1.0  0.62300  0.74900  0.12100  1.0000
  N   N2        1.0  0.37700  0.25100  0.87900  1.0000
  O   O1        1.0  0.18400  0.40500  0.02640  1.0000
  O   O2        1.0  0.96100  0.85700  0.19800  1.0000
  O   O3        1.0  0.38500  0.88500  0.21600  1.0000
  O   O4        1.0  0.80700  0.51700  0.26700  1.0000
  O   O5        1.0  0.68800  0.05210  0.33800  1.0000
  O   O6        1.0  0.09640  0.22700  0.39300  1.0000
  O   O7        1.0  0.55100  0.71000  0.42000  1.0000
  O   O8        1.0  0.44900  0.29000  0.58000  1.0000
  O   O9        1.0  0.90400  0.77300  0.60700  1.0000
  O   O10       1.0  0.31200  0.94800  0.66200  1.0000
  O   O11       1.0  0.19300  0.48300  0.73300  1.0000
  O   O12       1.0  0.61500  0.11500  0.78400  1.0000
  O   O13       1.0  0.03860  0.14300  0.80200  1.0000
  O   O14       1.0  0.81600  0.59500  0.97400  1.0000
  S   S1        1.0  0.80700  0.67800  0.14400  1.0000
  S   S2        1.0  0.56200  0.85300  0.28000  1.0000
  S   S3        1.0  0.43800  0.14700  0.72000  1.0000
  S   S4        1.0  0.19300  0.32200  0.85600  1.0000
