data_image0
_chemical_formula_structural       Cl6N6S6
_chemical_formula_sum              "Cl6 N6 S6"
_cell_length_a       5.50969
_cell_length_b       11.2531
_cell_length_c       6.11153
_cell_angle_alpha    90
_cell_angle_beta     98.7386
_cell_angle_gamma    90

_space_group_name_H-M_alt    "P 1"
_space_group_IT_number       1

loop_
  _space_group_symop_operation_xyz
  'x, y, z'

loop_
  _atom_site_type_symbol
  _atom_site_label
  _atom_site_symmetry_multiplicity
  _atom_site_fract_x
  _atom_site_fract_y
  _atom_site_fract_z
  _atom_site_occupancy
  Cl  Cl1       1.0  0.50400  0.25000  0.16600  1.0000
  Cl  Cl2       1.0  0.70100  0.57800  0.34100  1.0000
  Cl  Cl3       1.0  0.70100  0.92200  0.34100  1.0000
  Cl  Cl4       1.0  0.29900  0.07810  0.65900  1.0000
  Cl  Cl5       1.0  0.29900  0.42200  0.65900  1.0000
  Cl  Cl6       1.0  0.49600  0.75000  0.83400  1.0000
  N   N1        1.0  0.02550  0.13000  0.04190  1.0000
  N   N2        1.0  0.02550  0.37000  0.04190  1.0000
  N   N3        1.0  0.11700  0.75000  0.33500  1.0000
  N   N4        1.0  0.88300  0.25000  0.66500  1.0000
  N   N5        1.0  0.97500  0.63000  0.95800  1.0000
  N   N6        1.0  0.97500  0.87000  0.95800  1.0000
  S   S1        1.0  0.12100  0.25000  0.17500  1.0000
  S   S2        1.0  0.04670  0.62300  0.22300  1.0000
  S   S3        1.0  0.04670  0.87700  0.22300  1.0000
  S   S4        1.0  0.95300  0.12300  0.77700  1.0000
  S   S5        1.0  0.95300  0.37700  0.77700  1.0000
  S   S6        1.0  0.87900  0.75000  0.82500  1.0000
