data_image0
_chemical_formula_structural       B2H2O18P4Rb2Sc2
_chemical_formula_sum              "B2 H2 O18 P4 Rb2 Sc2"
_cell_length_a       5.2857
_cell_length_b       8.33491
_cell_length_c       8.3503
_cell_angle_alpha    87.989
_cell_angle_beta     80.0882
_cell_angle_gamma    86.918

_space_group_name_H-M_alt    "P 1"
_space_group_IT_number       1

loop_
  _space_group_symop_operation_xyz
  'x, y, z'

loop_
  _atom_site_type_symbol
  _atom_site_label
  _atom_site_symmetry_multiplicity
  _atom_site_fract_x
  _atom_site_fract_y
  _atom_site_fract_z
  _atom_site_occupancy
  B   B1        1.0  0.11000  0.27000  0.43900  1.0000
  B   B2        1.0  0.89000  0.73000  0.56100  1.0000
  H   H1        1.0  0.41700  0.12800  0.47700  1.0000
  H   H2        1.0  0.58300  0.87200  0.52300  1.0000
  O   O1        1.0  0.27500  0.17600  0.04760  1.0000
  O   O2        1.0  0.06610  0.91800  0.15400  1.0000
  O   O3        1.0  0.44100  0.63800  0.20300  1.0000
  O   O4        1.0  0.96700  0.59600  0.20900  1.0000
  O   O5        1.0  0.46700  0.00521  0.25600  1.0000
  O   O6        1.0  0.03260  0.15100  0.33400  1.0000
  O   O7        1.0  0.25500  0.39600  0.33800  1.0000
  O   O8        1.0  0.71700  0.80600  0.45700  1.0000
  O   O9        1.0  0.13000  0.66600  0.46700  1.0000
  O   O10       1.0  0.87000  0.33400  0.53300  1.0000
  O   O11       1.0  0.28300  0.19400  0.54300  1.0000
  O   O12       1.0  0.74500  0.60400  0.66200  1.0000
  O   O13       1.0  0.96700  0.84900  0.66600  1.0000
  O   O14       1.0  0.53300  0.99500  0.74400  1.0000
  O   O15       1.0  0.03290  0.40400  0.79100  1.0000
  O   O16       1.0  0.55900  0.36200  0.79700  1.0000
  O   O17       1.0  0.93400  0.08200  0.84600  1.0000
  O   O18       1.0  0.72500  0.82400  0.95200  1.0000
  P   P1        1.0  0.21500  0.05790  0.19400  1.0000
  P   P2        1.0  0.19300  0.57700  0.30200  1.0000
  P   P3        1.0  0.80700  0.42300  0.69800  1.0000
  P   P4        1.0  0.78500  0.94200  0.80600  1.0000
  Rb  Rb1       1.0  0.72500  0.32300  0.12000  1.0000
  Rb  Rb2       1.0  0.27500  0.67700  0.88000  1.0000
  Sc  Sc1       1.0  0.72100  0.80500  0.19900  1.0000
  Sc  Sc2       1.0  0.27900  0.19500  0.80100  1.0000
