data_image0
_chemical_formula_structural       Br2H12NiO14
_chemical_formula_sum              "Br2 H12 Ni1 O14"
_cell_length_a       7.62461
_cell_length_b       7.62445
_cell_length_c       5.00757
_cell_angle_alpha    90.0001
_cell_angle_beta     89.9997
_cell_angle_gamma    120.001

_space_group_name_H-M_alt    "P 1"
_space_group_IT_number       1

loop_
  _space_group_symop_operation_xyz
  'x, y, z'

loop_
  _atom_site_type_symbol
  _atom_site_label
  _atom_site_symmetry_multiplicity
  _atom_site_fract_x
  _atom_site_fract_y
  _atom_site_fract_z
  _atom_site_occupancy
  Br  Br1       1.0  0.33300  0.66700  0.16900  1.0000
  Br  Br2       1.0  0.66700  0.33300  0.83100  1.0000
  H   H1        1.0  0.93300  0.71300  0.19100  1.0000
  H   H2        1.0  0.28700  0.22100  0.19100  1.0000
  H   H3        1.0  0.77900  0.06660  0.19100  1.0000
  H   H4        1.0  0.72400  0.63800  0.33200  1.0000
  H   H5        1.0  0.91400  0.27600  0.33200  1.0000
  H   H6        1.0  0.36200  0.08600  0.33200  1.0000
  H   H7        1.0  0.63800  0.91400  0.66800  1.0000
  H   H8        1.0  0.08600  0.72400  0.66800  1.0000
  H   H9        1.0  0.27600  0.36200  0.66800  1.0000
  H   H10       1.0  0.22100  0.93300  0.80900  1.0000
  H   H11       1.0  0.71300  0.77900  0.80900  1.0000
  H   H12       1.0  0.06650  0.28700  0.80900  1.0000
  Ni  Ni1       1.0  0.00000  0.00000  0.50000  1.0000
  O   O1        1.0  0.66700  0.33300  0.15900  1.0000
  O   O2        1.0  0.24300  0.08230  0.25400  1.0000
  O   O3        1.0  0.91800  0.16000  0.25400  1.0000
  O   O4        1.0  0.84000  0.75700  0.25400  1.0000
  O   O5        1.0  0.49900  0.89300  0.28200  1.0000
  O   O6        1.0  0.39400  0.50100  0.28200  1.0000
  O   O7        1.0  0.10700  0.60600  0.28200  1.0000
  O   O8        1.0  0.89300  0.39400  0.71800  1.0000
  O   O9        1.0  0.60600  0.49900  0.71800  1.0000
  O   O10       1.0  0.50100  0.10700  0.71800  1.0000
  O   O11       1.0  0.16000  0.24300  0.74600  1.0000
  O   O12       1.0  0.08230  0.84000  0.74600  1.0000
  O   O13       1.0  0.75700  0.91800  0.74600  1.0000
  O   O14       1.0  0.33300  0.66700  0.84100  1.0000
