data_image0
_chemical_formula_structural       F2H8Na2Ni2O12S2
_chemical_formula_sum              "F2 H8 Na2 Ni2 O12 S2"
_cell_length_a       5.55177
_cell_length_b       7.13897
_cell_length_c       7.03113
_cell_angle_alpha    90
_cell_angle_beta     114.434
_cell_angle_gamma    90

_space_group_name_H-M_alt    "P 1"
_space_group_IT_number       1

loop_
  _space_group_symop_operation_xyz
  'x, y, z'

loop_
  _atom_site_type_symbol
  _atom_site_label
  _atom_site_symmetry_multiplicity
  _atom_site_fract_x
  _atom_site_fract_y
  _atom_site_fract_z
  _atom_site_occupancy
  F   F1        1.0  0.63900  0.75000  0.49000  1.0000
  F   F2        1.0  0.36100  0.25000  0.51000  1.0000
  H   H1        1.0  0.20300  0.59700  0.12200  1.0000
  H   H2        1.0  0.20300  0.90300  0.12200  1.0000
  H   H3        1.0  0.07260  0.07450  0.19200  1.0000
  H   H4        1.0  0.07260  0.42500  0.19200  1.0000
  H   H5        1.0  0.92700  0.57500  0.80800  1.0000
  H   H6        1.0  0.92700  0.92500  0.80800  1.0000
  H   H7        1.0  0.79700  0.09650  0.87800  1.0000
  H   H8        1.0  0.79700  0.40300  0.87800  1.0000
  Na  Na1       1.0  0.88700  0.75000  0.31600  1.0000
  Na  Na2       1.0  0.11300  0.25000  0.68400  1.0000
  Ni  Ni1       1.0  0.50000  0.00000  0.50000  1.0000
  Ni  Ni2       1.0  0.50000  0.50000  0.50000  1.0000
  O   O1        1.0  0.37100  0.25000  0.03770  1.0000
  O   O2        1.0  0.83200  0.25000  0.08460  1.0000
  O   O3        1.0  0.16900  0.54600  0.23900  1.0000
  O   O4        1.0  0.16900  0.95400  0.23900  1.0000
  O   O5        1.0  0.71000  0.08000  0.32800  1.0000
  O   O6        1.0  0.71000  0.42000  0.32800  1.0000
  O   O7        1.0  0.29000  0.58000  0.67200  1.0000
  O   O8        1.0  0.29000  0.92000  0.67200  1.0000
  O   O9        1.0  0.83100  0.04560  0.76100  1.0000
  O   O10       1.0  0.83100  0.45400  0.76100  1.0000
  O   O11       1.0  0.16800  0.75000  0.91500  1.0000
  O   O12       1.0  0.62900  0.75000  0.96200  1.0000
  S   S1        1.0  0.64400  0.25000  0.19200  1.0000
  S   S2        1.0  0.35600  0.75000  0.80800  1.0000
