data_image0
_chemical_formula_structural       Cu2I4O12
_chemical_formula_sum              "Cu2 I4 O12"
_cell_length_a       4.93335
_cell_length_b       6.18482
_cell_length_c       8.14468
_cell_angle_alpha    90
_cell_angle_beta     91.9566
_cell_angle_gamma    90

_space_group_name_H-M_alt    "P 1"
_space_group_IT_number       1

loop_
  _space_group_symop_operation_xyz
  'x, y, z'

loop_
  _atom_site_type_symbol
  _atom_site_label
  _atom_site_symmetry_multiplicity
  _atom_site_fract_x
  _atom_site_fract_y
  _atom_site_fract_z
  _atom_site_occupancy
  Cu  Cu1       1.0  0.50000  0.00000  0.50000  1.0000
  Cu  Cu2       1.0  0.50000  0.50000  0.50000  1.0000
  I   I1        1.0  0.52000  0.75000  0.15600  1.0000
  I   I2        1.0  0.02900  0.25000  0.23100  1.0000
  I   I3        1.0  0.97100  0.75000  0.76900  1.0000
  I   I4        1.0  0.48000  0.25000  0.84400  1.0000
  O   O1        1.0  0.75000  0.53100  0.09230  1.0000
  O   O2        1.0  0.75000  0.96900  0.09230  1.0000
  O   O3        1.0  0.26400  0.02560  0.30400  1.0000
  O   O4        1.0  0.26400  0.47400  0.30400  1.0000
  O   O5        1.0  0.65000  0.75000  0.37900  1.0000
  O   O6        1.0  0.80300  0.25000  0.40000  1.0000
  O   O7        1.0  0.19700  0.75000  0.60000  1.0000
  O   O8        1.0  0.35000  0.25000  0.62100  1.0000
  O   O9        1.0  0.73600  0.52600  0.69600  1.0000
  O   O10       1.0  0.73600  0.97400  0.69600  1.0000
  O   O11       1.0  0.25000  0.03120  0.90800  1.0000
  O   O12       1.0  0.25000  0.46900  0.90800  1.0000
