data_image0
_chemical_formula_structural       H4O16Pb8S2
_chemical_formula_sum              "H4 O16 Pb8 S2"
_cell_length_a       6.30771
_cell_length_b       7.40032
_cell_length_c       10.2736
_cell_angle_alpha    75.1989
_cell_angle_beta     79.179
_cell_angle_gamma    87.7899

_space_group_name_H-M_alt    "P 1"
_space_group_IT_number       1

loop_
  _space_group_symop_operation_xyz
  'x, y, z'

loop_
  _atom_site_type_symbol
  _atom_site_label
  _atom_site_symmetry_multiplicity
  _atom_site_fract_x
  _atom_site_fract_y
  _atom_site_fract_z
  _atom_site_occupancy
  H   H1        1.0  0.45800  0.84300  0.29600  1.0000
  H   H2        1.0  0.14800  0.71900  0.33300  1.0000
  H   H3        1.0  0.85200  0.28100  0.66700  1.0000
  H   H4        1.0  0.54200  0.15700  0.70400  1.0000
  O   O1        1.0  0.88600  0.10300  0.08520  1.0000
  O   O2        1.0  0.86000  0.58100  0.09580  1.0000
  O   O3        1.0  0.13000  0.29900  0.24300  1.0000
  O   O4        1.0  0.51600  0.29200  0.24500  1.0000
  O   O5        1.0  0.59700  0.79700  0.25700  1.0000
  O   O6        1.0  0.05110  0.74700  0.26700  1.0000
  O   O7        1.0  0.28600  0.02410  0.37700  1.0000
  O   O8        1.0  0.25900  0.31600  0.44900  1.0000
  O   O9        1.0  0.74100  0.68400  0.55100  1.0000
  O   O10       1.0  0.71400  0.97600  0.62300  1.0000
  O   O11       1.0  0.94900  0.25300  0.73300  1.0000
  O   O12       1.0  0.40300  0.20300  0.74300  1.0000
  O   O13       1.0  0.48400  0.70800  0.75500  1.0000
  O   O14       1.0  0.87000  0.70100  0.75700  1.0000
  O   O15       1.0  0.14000  0.41900  0.90400  1.0000
  O   O16       1.0  0.11400  0.89700  0.91500  1.0000
  Pb  Pb1       1.0  0.25200  0.11900  0.00272  1.0000
  Pb  Pb2       1.0  0.23300  0.61400  0.03280  1.0000
  Pb  Pb3       1.0  0.82700  1.00000  0.32000  1.0000
  Pb  Pb4       1.0  0.77300  0.51200  0.32800  1.0000
  Pb  Pb5       1.0  0.22700  0.48800  0.67200  1.0000
  Pb  Pb6       1.0  0.17300  0.00006  0.68000  1.0000
  Pb  Pb7       1.0  0.76700  0.38600  0.96700  1.0000
  Pb  Pb8       1.0  0.74800  0.88100  0.99700  1.0000
  S   S1        1.0  0.29900  0.23200  0.33100  1.0000
  S   S2        1.0  0.70100  0.76800  0.66900  1.0000
