data_image0
_chemical_formula_structural       Cs4Li4O8Si2
_chemical_formula_sum              "Cs4 Li4 O8 Si2"
_cell_length_a       9.52418
_cell_length_b       5.74909
_cell_length_c       5.56554
_cell_angle_alpha    92.6003
_cell_angle_beta     110.744
_cell_angle_gamma    94.5193

_space_group_name_H-M_alt    "P 1"
_space_group_IT_number       1

loop_
  _space_group_symop_operation_xyz
  'x, y, z'

loop_
  _atom_site_type_symbol
  _atom_site_label
  _atom_site_symmetry_multiplicity
  _atom_site_fract_x
  _atom_site_fract_y
  _atom_site_fract_z
  _atom_site_occupancy
  Cs  Cs1       1.0  0.98400  0.73100  0.19300  1.0000
  Cs  Cs2       1.0  0.71900  0.15400  0.19600  1.0000
  Cs  Cs3       1.0  0.28100  0.84600  0.80400  1.0000
  Cs  Cs4       1.0  0.01640  0.26900  0.80700  1.0000
  Li  Li1       1.0  0.42000  0.40900  0.12000  1.0000
  Li  Li2       1.0  0.43900  0.81400  0.37400  1.0000
  Li  Li3       1.0  0.56100  0.18600  0.62600  1.0000
  Li  Li4       1.0  0.58000  0.59100  0.88000  1.0000
  O   O1        1.0  0.60200  0.64400  0.24700  1.0000
  O   O2        1.0  0.28900  0.55800  0.28800  1.0000
  O   O3        1.0  0.38500  0.13700  0.31100  1.0000
  O   O4        1.0  0.12000  0.20500  0.39100  1.0000
  O   O5        1.0  0.88000  0.79500  0.60900  1.0000
  O   O6        1.0  0.61500  0.86300  0.68900  1.0000
  O   O7        1.0  0.71100  0.44200  0.71200  1.0000
  O   O8        1.0  0.39800  0.35600  0.75300  1.0000
  Si  Si1       1.0  0.29200  0.31400  0.43700  1.0000
  Si  Si2       1.0  0.70800  0.68600  0.56300  1.0000
