data_image0
_chemical_formula_structural       Ge2In6O9Pt
_chemical_formula_sum              "Ge2 In6 O9 Pt1"
_cell_length_a       7.18008
_cell_length_b       7.18008
_cell_length_c       7.18008
_cell_angle_alpha    120
_cell_angle_beta     90
_cell_angle_gamma    120

_space_group_name_H-M_alt    "P 1"
_space_group_IT_number       1

loop_
  _space_group_symop_operation_xyz
  'x, y, z'

loop_
  _atom_site_type_symbol
  _atom_site_label
  _atom_site_symmetry_multiplicity
  _atom_site_fract_x
  _atom_site_fract_y
  _atom_site_fract_z
  _atom_site_occupancy
  Ge  Ge1       1.0  0.75000  0.50000  0.25000  1.0000
  Ge  Ge2       1.0  0.25000  0.50000  0.75000  1.0000
  In  In1       1.0  0.26100  0.00000  0.26100  1.0000
  In  In2       1.0  0.73900  0.00000  0.26100  1.0000
  In  In3       1.0  0.26100  0.52100  0.26100  1.0000
  In  In4       1.0  0.26100  0.00000  0.73900  1.0000
  In  In5       1.0  0.73900  0.00000  0.73900  1.0000
  In  In6       1.0  0.73900  0.47900  0.73900  1.0000
  O   O1        1.0  0.35100  0.70200  0.05300  1.0000
  O   O2        1.0  0.64900  0.29800  0.35100  1.0000
  O   O3        1.0  0.05300  0.70200  0.35100  1.0000
  O   O4        1.0  0.64900  0.70200  0.35100  1.0000
  O   O5        1.0  0.50000  0.00000  0.50000  1.0000
  O   O6        1.0  0.35100  0.29800  0.64900  1.0000
  O   O7        1.0  0.35100  0.70200  0.64900  1.0000
  O   O8        1.0  0.94700  0.29800  0.64900  1.0000
  O   O9        1.0  0.64900  0.29800  0.94700  1.0000
  Pt  Pt1       1.0  0.00000  0.00000  0.00000  1.0000
