data_image0
_chemical_formula_structural       Fe2O12Ta4
_chemical_formula_sum              "Fe2 O12 Ta4"
_cell_length_a       4.76764
_cell_length_b       4.76764
_cell_length_c       9.19574
_cell_angle_alpha    90
_cell_angle_beta     90
_cell_angle_gamma    90

_space_group_name_H-M_alt    "P 1"
_space_group_IT_number       1

loop_
  _space_group_symop_operation_xyz
  'x, y, z'

loop_
  _atom_site_type_symbol
  _atom_site_label
  _atom_site_symmetry_multiplicity
  _atom_site_fract_x
  _atom_site_fract_y
  _atom_site_fract_z
  _atom_site_occupancy
  Fe  Fe1       1.0  0.00000  0.00000  0.00000  1.0000
  Fe  Fe2       1.0  0.50000  0.50000  0.50000  1.0000
  O   O1        1.0  0.31000  0.31000  0.00000  1.0000
  O   O2        1.0  0.69000  0.69000  0.00000  1.0000
  O   O3        1.0  0.79400  0.20600  0.17800  1.0000
  O   O4        1.0  0.20600  0.79400  0.17800  1.0000
  O   O5        1.0  0.29400  0.29400  0.32200  1.0000
  O   O6        1.0  0.70600  0.70600  0.32200  1.0000
  O   O7        1.0  0.81000  0.19000  0.50000  1.0000
  O   O8        1.0  0.19000  0.81000  0.50000  1.0000
  O   O9        1.0  0.29400  0.29400  0.67800  1.0000
  O   O10       1.0  0.70600  0.70600  0.67800  1.0000
  O   O11       1.0  0.79400  0.20600  0.82200  1.0000
  O   O12       1.0  0.20600  0.79400  0.82200  1.0000
  Ta  Ta1       1.0  0.50000  0.50000  0.16900  1.0000
  Ta  Ta2       1.0  0.00000  0.00000  0.33100  1.0000
  Ta  Ta3       1.0  0.00000  0.00000  0.66900  1.0000
  Ta  Ta4       1.0  0.50000  0.50000  0.83100  1.0000
