data_image0
_chemical_formula_structural       Cs2Cu4F12
_chemical_formula_sum              "Cs2 Cu4 F12"
_cell_length_a       7.05325
_cell_length_b       7.13626
_cell_length_c       7.13626
_cell_angle_alpha    90.5068
_cell_angle_beta     119.616
_cell_angle_gamma    119.616

_space_group_name_H-M_alt    "P 1"
_space_group_IT_number       1

loop_
  _space_group_symop_operation_xyz
  'x, y, z'

loop_
  _atom_site_type_symbol
  _atom_site_label
  _atom_site_symmetry_multiplicity
  _atom_site_fract_x
  _atom_site_fract_y
  _atom_site_fract_z
  _atom_site_occupancy
  Cs  Cs1       1.0  0.75000  0.37600  0.12400  1.0000
  Cs  Cs2       1.0  0.25000  0.62400  0.87600  1.0000
  Cu  Cu1       1.0  0.00000  0.00000  0.00000  1.0000
  Cu  Cu2       1.0  0.00000  0.00000  0.50000  1.0000
  Cu  Cu3       1.0  0.50000  0.00000  0.50000  1.0000
  Cu  Cu4       1.0  0.50000  0.50000  0.50000  1.0000
  F   F1        1.0  0.25000  0.92900  0.18000  1.0000
  F   F2        1.0  0.85900  0.92900  0.18000  1.0000
  F   F3        1.0  0.25000  0.32000  0.18000  1.0000
  F   F4        1.0  0.75000  0.07160  0.42800  1.0000
  F   F5        1.0  0.35900  0.68000  0.42900  1.0000
  F   F6        1.0  0.75000  0.68000  0.42900  1.0000
  F   F7        1.0  0.25000  0.32000  0.57100  1.0000
  F   F8        1.0  0.64100  0.32000  0.57100  1.0000
  F   F9        1.0  0.25000  0.92800  0.57200  1.0000
  F   F10       1.0  0.75000  0.68000  0.82000  1.0000
  F   F11       1.0  0.14100  0.07130  0.82000  1.0000
  F   F12       1.0  0.75000  0.07130  0.82000  1.0000
