data_image0
_chemical_formula_structural       Cu4S8Sn2Tl4
_chemical_formula_sum              "Cu4 S8 Sn2 Tl4"
_cell_length_a       5.33759
_cell_length_b       9.29682
_cell_length_c       9.29682
_cell_angle_alpha    94.2007
_cell_angle_beta     106.682
_cell_angle_gamma    106.682

_space_group_name_H-M_alt    "P 1"
_space_group_IT_number       1

loop_
  _space_group_symop_operation_xyz
  'x, y, z'

loop_
  _atom_site_type_symbol
  _atom_site_label
  _atom_site_symmetry_multiplicity
  _atom_site_fract_x
  _atom_site_fract_y
  _atom_site_fract_z
  _atom_site_occupancy
  Cu  Cu1       1.0  0.77800  0.52800  0.02760  1.0000
  Cu  Cu2       1.0  0.22200  0.97200  0.47200  1.0000
  Cu  Cu3       1.0  0.77800  0.02760  0.52800  1.0000
  Cu  Cu4       1.0  0.22200  0.47200  0.97200  1.0000
  S   S1        1.0  0.60000  0.72500  0.01180  1.0000
  S   S2        1.0  0.13700  0.51200  0.22500  1.0000
  S   S3        1.0  0.40000  0.98800  0.27500  1.0000
  S   S4        1.0  0.86300  0.77500  0.48800  1.0000
  S   S5        1.0  0.13700  0.22500  0.51200  1.0000
  S   S6        1.0  0.60000  0.01180  0.72500  1.0000
  S   S7        1.0  0.86300  0.48800  0.77500  1.0000
  S   S8        1.0  0.40000  0.27500  0.98800  1.0000
  Sn  Sn1       1.0  0.50000  0.75000  0.25000  1.0000
  Sn  Sn2       1.0  0.50000  0.25000  0.75000  1.0000
  Tl  Tl1       1.0  0.88600  0.12100  0.12100  1.0000
  Tl  Tl2       1.0  0.64500  0.37900  0.37900  1.0000
  Tl  Tl3       1.0  0.35500  0.62100  0.62100  1.0000
  Tl  Tl4       1.0  0.11400  0.87900  0.87900  1.0000
