data_image0
_chemical_formula_structural       Dy5Sn13
_chemical_formula_sum              "Dy5 Sn13"
_cell_length_a       4.38974
_cell_length_b       4.44139
_cell_length_c       24.3747
_cell_angle_alpha    95.2273
_cell_angle_beta     95.1663
_cell_angle_gamma    90

_space_group_name_H-M_alt    "P 1"
_space_group_IT_number       1

loop_
  _space_group_symop_operation_xyz
  'x, y, z'

loop_
  _atom_site_type_symbol
  _atom_site_label
  _atom_site_symmetry_multiplicity
  _atom_site_fract_x
  _atom_site_fract_y
  _atom_site_fract_z
  _atom_site_occupancy
  Dy  Dy1       1.0  0.50000  0.00000  0.00000  1.0000
  Dy  Dy2       1.0  0.10300  0.60300  0.20700  1.0000
  Dy  Dy3       1.0  0.67100  0.67100  0.34200  1.0000
  Dy  Dy4       1.0  0.32900  0.32900  0.65800  1.0000
  Dy  Dy5       1.0  0.89700  0.39700  0.79300  1.0000
  Sn  Sn1       1.0  0.00000  0.50000  0.00000  1.0000
  Sn  Sn2       1.0  0.55300  0.55300  0.10500  1.0000
  Sn  Sn3       1.0  0.05310  0.05310  0.10600  1.0000
  Sn  Sn4       1.0  0.61500  0.11500  0.23100  1.0000
  Sn  Sn5       1.0  0.15700  0.15700  0.31500  1.0000
  Sn  Sn6       1.0  0.72000  0.22000  0.43900  1.0000
  Sn  Sn7       1.0  0.22000  0.72000  0.44000  1.0000
  Sn  Sn8       1.0  0.78000  0.28000  0.56000  1.0000
  Sn  Sn9       1.0  0.28000  0.78000  0.56100  1.0000
  Sn  Sn10      1.0  0.84300  0.84300  0.68500  1.0000
  Sn  Sn11      1.0  0.38500  0.88500  0.76900  1.0000
  Sn  Sn12      1.0  0.94700  0.94700  0.89400  1.0000
  Sn  Sn13      1.0  0.44700  0.44700  0.89500  1.0000
