data_image0
_chemical_formula_structural       As8Ba6Si4
_chemical_formula_sum              "As8 Ba6 Si4"
_cell_length_a       7.81188
_cell_length_b       8.54382
_cell_length_c       10.0762
_cell_angle_alpha    107.826
_cell_angle_beta     104.997
_cell_angle_gamma    107.696

_space_group_name_H-M_alt    "P 1"
_space_group_IT_number       1

loop_
  _space_group_symop_operation_xyz
  'x, y, z'

loop_
  _atom_site_type_symbol
  _atom_site_label
  _atom_site_symmetry_multiplicity
  _atom_site_fract_x
  _atom_site_fract_y
  _atom_site_fract_z
  _atom_site_occupancy
  As  As1       1.0  0.58700  0.33300  0.14400  1.0000
  As  As2       1.0  0.05730  0.81100  0.14400  1.0000
  As  As3       1.0  0.14900  0.44400  0.39600  1.0000
  As  As4       1.0  0.74700  0.95200  0.39600  1.0000
  As  As5       1.0  0.25300  0.04820  0.60400  1.0000
  As  As6       1.0  0.85100  0.55600  0.60400  1.0000
  As  As7       1.0  0.94300  0.18900  0.85600  1.0000
  As  As8       1.0  0.41300  0.66700  0.85600  1.0000
  Ba  Ba1       1.0  0.80800  0.05750  0.11500  1.0000
  Ba  Ba2       1.0  0.31500  0.56500  0.13000  1.0000
  Ba  Ba3       1.0  0.44000  0.19000  0.37900  1.0000
  Ba  Ba4       1.0  0.56000  0.81000  0.62100  1.0000
  Ba  Ba5       1.0  0.68500  0.43500  0.87000  1.0000
  Ba  Ba6       1.0  0.19200  0.94200  0.88500  1.0000
  Si  Si1       1.0  0.87700  0.53400  0.36300  1.0000
  Si  Si2       1.0  0.98600  0.82900  0.36300  1.0000
  Si  Si3       1.0  0.01400  0.17100  0.63700  1.0000
  Si  Si4       1.0  0.12300  0.46600  0.63700  1.0000
