data_image0
_chemical_formula_structural       As6Eu2Ni10
_chemical_formula_sum              "As6 Eu2 Ni10"
_cell_length_a       3.73378
_cell_length_b       6.36534
_cell_length_c       11.7963
_cell_angle_alpha    90
_cell_angle_beta     90
_cell_angle_gamma    72.945

_space_group_name_H-M_alt    "P 1"
_space_group_IT_number       1

loop_
  _space_group_symop_operation_xyz
  'x, y, z'

loop_
  _atom_site_type_symbol
  _atom_site_label
  _atom_site_symmetry_multiplicity
  _atom_site_fract_x
  _atom_site_fract_y
  _atom_site_fract_z
  _atom_site_occupancy
  As  As1       1.0  0.37900  0.24100  0.04400  1.0000
  As  As2       1.0  0.11500  0.77000  0.25000  1.0000
  As  As3       1.0  0.37900  0.24100  0.45600  1.0000
  As  As4       1.0  0.62100  0.75900  0.54400  1.0000
  As  As5       1.0  0.88500  0.23000  0.75000  1.0000
  As  As6       1.0  0.62100  0.75900  0.95600  1.0000
  Eu  Eu1       1.0  0.83500  0.32900  0.25000  1.0000
  Eu  Eu2       1.0  0.16500  0.67100  0.75000  1.0000
  Ni  Ni1       1.0  0.00000  0.00000  0.00000  1.0000
  Ni  Ni2       1.0  0.19400  0.61200  0.06670  1.0000
  Ni  Ni3       1.0  0.54900  0.90200  0.14500  1.0000
  Ni  Ni4       1.0  0.54900  0.90200  0.35500  1.0000
  Ni  Ni5       1.0  0.19400  0.61200  0.43300  1.0000
  Ni  Ni6       1.0  0.00000  0.00000  0.50000  1.0000
  Ni  Ni7       1.0  0.80600  0.38800  0.56700  1.0000
  Ni  Ni8       1.0  0.45100  0.09750  0.64500  1.0000
  Ni  Ni9       1.0  0.45100  0.09750  0.85500  1.0000
  Ni  Ni10      1.0  0.80600  0.38800  0.93300  1.0000
