data_image0
_chemical_formula_structural       Cr2O12Sm2Te2
_chemical_formula_sum              "Cr2 O12 Sm2 Te2"
_cell_length_a       5.16168
_cell_length_b       5.16172
_cell_length_c       9.93435
_cell_angle_alpha    90.0012
_cell_angle_beta     89.9994
_cell_angle_gamma    120

_space_group_name_H-M_alt    "P 1"
_space_group_IT_number       1

loop_
  _space_group_symop_operation_xyz
  'x, y, z'

loop_
  _atom_site_type_symbol
  _atom_site_label
  _atom_site_symmetry_multiplicity
  _atom_site_fract_x
  _atom_site_fract_y
  _atom_site_fract_z
  _atom_site_occupancy
  Cr  Cr1       1.0  0.33300  0.66700  0.25000  1.0000
  Cr  Cr2       1.0  0.66700  0.33300  0.75000  1.0000
  O   O1        1.0  0.63900  0.63000  0.14100  1.0000
  O   O2        1.0  0.99100  0.36100  0.14100  1.0000
  O   O3        1.0  0.37000  0.00874  0.14100  1.0000
  O   O4        1.0  0.99100  0.63000  0.35900  1.0000
  O   O5        1.0  0.37000  0.36100  0.35900  1.0000
  O   O6        1.0  0.63900  0.00874  0.35900  1.0000
  O   O7        1.0  0.36100  0.99100  0.64100  1.0000
  O   O8        1.0  0.00874  0.37000  0.64100  1.0000
  O   O9        1.0  0.63000  0.63900  0.64100  1.0000
  O   O10       1.0  0.63000  0.99100  0.85900  1.0000
  O   O11       1.0  0.00874  0.63900  0.85900  1.0000
  O   O12       1.0  0.36100  0.37000  0.85900  1.0000
  Sm  Sm1       1.0  0.00000  0.00000  0.00000  1.0000
  Sm  Sm2       1.0  0.00000  1.00000  0.50000  1.0000
  Te  Te1       1.0  0.66700  0.33300  0.25000  1.0000
  Te  Te2       1.0  0.33300  0.66700  0.75000  1.0000
