data_image0
_chemical_formula_structural       Ag4Ge2K4S8
_chemical_formula_sum              "Ag4 Ge2 K4 S8"
_cell_length_a       6.40591
_cell_length_b       7.48694
_cell_length_c       11.0592
_cell_angle_alpha    97.1091
_cell_angle_beta     106.835
_cell_angle_gamma    64.6716

_space_group_name_H-M_alt    "P 1"
_space_group_IT_number       1

loop_
  _space_group_symop_operation_xyz
  'x, y, z'

loop_
  _atom_site_type_symbol
  _atom_site_label
  _atom_site_symmetry_multiplicity
  _atom_site_fract_x
  _atom_site_fract_y
  _atom_site_fract_z
  _atom_site_occupancy
  Ag  Ag1       1.0  0.80000  0.25000  0.10100  1.0000
  Ag  Ag2       1.0  0.95000  0.25000  0.39900  1.0000
  Ag  Ag3       1.0  0.05040  0.75000  0.60100  1.0000
  Ag  Ag4       1.0  0.20000  0.75000  0.89900  1.0000
  Ge  Ge1       1.0  0.37500  0.25000  0.25000  1.0000
  Ge  Ge2       1.0  0.62500  0.75000  0.75000  1.0000
  K   K1        1.0  0.81200  0.75000  0.12400  1.0000
  K   K2        1.0  0.43800  0.75000  0.37600  1.0000
  K   K3        1.0  0.56200  0.25000  0.62400  1.0000
  K   K4        1.0  0.18800  0.25000  0.87600  1.0000
  S   S1        1.0  0.22400  0.04610  0.12800  1.0000
  S   S2        1.0  0.40500  0.45400  0.12800  1.0000
  S   S3        1.0  0.73000  0.04630  0.37200  1.0000
  S   S4        1.0  0.14200  0.45400  0.37200  1.0000
  S   S5        1.0  0.85800  0.54600  0.62800  1.0000
  S   S6        1.0  0.27000  0.95400  0.62800  1.0000
  S   S7        1.0  0.59500  0.54600  0.87200  1.0000
  S   S8        1.0  0.77600  0.95400  0.87200  1.0000
