data_image0
_chemical_formula_structural       C16Rb2
_chemical_formula_sum              "C16 Rb2"
_cell_length_a       4.96583
_cell_length_b       4.96583
_cell_length_c       11.4677
_cell_angle_alpha    96.2141
_cell_angle_beta     96.2141
_cell_angle_gamma    120.004

_space_group_name_H-M_alt    "P 1"
_space_group_IT_number       1

loop_
  _space_group_symop_operation_xyz
  'x, y, z'

loop_
  _atom_site_type_symbol
  _atom_site_label
  _atom_site_symmetry_multiplicity
  _atom_site_fract_x
  _atom_site_fract_y
  _atom_site_fract_z
  _atom_site_occupancy
  C   C1        1.0  0.79000  0.45700  0.24800  1.0000
  C   C2        1.0  0.45700  0.79000  0.24800  1.0000
  C   C3        1.0  0.29200  0.45800  0.25000  1.0000
  C   C4        1.0  0.95800  0.79200  0.25000  1.0000
  C   C5        1.0  0.95800  0.29200  0.25000  1.0000
  C   C6        1.0  0.29200  0.95800  0.25000  1.0000
  C   C7        1.0  0.46000  0.29300  0.25200  1.0000
  C   C8        1.0  0.79300  0.96000  0.25200  1.0000
  C   C9        1.0  0.04040  0.20700  0.74800  1.0000
  C   C10       1.0  0.70700  0.54000  0.74800  1.0000
  C   C11       1.0  0.70800  0.04170  0.75000  1.0000
  C   C12       1.0  0.04160  0.70800  0.75000  1.0000
  C   C13       1.0  0.20800  0.04170  0.75000  1.0000
  C   C14       1.0  0.54200  0.70800  0.75000  1.0000
  C   C15       1.0  0.54300  0.21000  0.75200  1.0000
  C   C16       1.0  0.21000  0.54300  0.75200  1.0000
  Rb  Rb1       1.0  0.00000  0.00000  0.00000  1.0000
  Rb  Rb2       1.0  0.25000  0.75000  0.50000  1.0000
