data_image0
_chemical_formula_structural       Al6B4Ru8
_chemical_formula_sum              "Al6 B4 Ru8"
_cell_length_a       8.54758
_cell_length_b       8.54758
_cell_length_c       2.94223
_cell_angle_alpha    90
_cell_angle_beta     90
_cell_angle_gamma    90

_space_group_name_H-M_alt    "P 1"
_space_group_IT_number       1

loop_
  _space_group_symop_operation_xyz
  'x, y, z'

loop_
  _atom_site_type_symbol
  _atom_site_label
  _atom_site_symmetry_multiplicity
  _atom_site_fract_x
  _atom_site_fract_y
  _atom_site_fract_z
  _atom_site_occupancy
  Al  Al1       1.0  0.00000  0.00000  0.50000  1.0000
  Al  Al2       1.0  0.34700  0.00000  0.50000  1.0000
  Al  Al3       1.0  0.65300  0.00000  0.50000  1.0000
  Al  Al4       1.0  0.00000  0.34700  0.50000  1.0000
  Al  Al5       1.0  0.50000  0.50000  0.50000  1.0000
  Al  Al6       1.0  0.00000  0.65300  0.50000  1.0000
  B   B1        1.0  0.30600  0.30600  0.50000  1.0000
  B   B2        1.0  0.69400  0.30600  0.50000  1.0000
  B   B3        1.0  0.30600  0.69400  0.50000  1.0000
  B   B4        1.0  0.69400  0.69400  0.50000  1.0000
  Ru  Ru1       1.0  0.17600  0.17600  0.00000  1.0000
  Ru  Ru2       1.0  0.82400  0.17600  0.00000  1.0000
  Ru  Ru3       1.0  0.50000  0.24400  0.00000  1.0000
  Ru  Ru4       1.0  0.24400  0.50000  0.00000  1.0000
  Ru  Ru5       1.0  0.75600  0.50000  0.00000  1.0000
  Ru  Ru6       1.0  0.50000  0.75600  0.00000  1.0000
  Ru  Ru7       1.0  0.17600  0.82400  0.00000  1.0000
  Ru  Ru8       1.0  0.82400  0.82400  0.00000  1.0000
