data_image0
_chemical_formula_structural       C10Y8
_chemical_formula_sum              "C10 Y8"
_cell_length_a       6.58739
_cell_length_b       11.9717
_cell_length_c       3.67242
_cell_angle_alpha    90
_cell_angle_beta     90
_cell_angle_gamma    90

_space_group_name_H-M_alt    "P 1"
_space_group_IT_number       1

loop_
  _space_group_symop_operation_xyz
  'x, y, z'

loop_
  _atom_site_type_symbol
  _atom_site_label
  _atom_site_symmetry_multiplicity
  _atom_site_fract_x
  _atom_site_fract_y
  _atom_site_fract_z
  _atom_site_occupancy
  C   C1        1.0  0.59600  0.15600  0.00000  1.0000
  C   C2        1.0  0.13800  0.23600  0.00000  1.0000
  C   C3        1.0  0.63800  0.26400  0.00000  1.0000
  C   C4        1.0  0.09600  0.34400  0.00000  1.0000
  C   C5        1.0  0.90400  0.65600  0.00000  1.0000
  C   C6        1.0  0.36200  0.73600  0.00000  1.0000
  C   C7        1.0  0.86200  0.76400  0.00000  1.0000
  C   C8        1.0  0.40400  0.84400  0.00000  1.0000
  C   C9        1.0  0.00000  0.00000  0.50000  1.0000
  C   C10       1.0  0.50000  0.50000  0.50000  1.0000
  Y   Y1        1.0  0.24400  0.04270  0.00000  1.0000
  Y   Y2        1.0  0.74400  0.45700  0.00000  1.0000
  Y   Y3        1.0  0.25600  0.54300  0.00000  1.0000
  Y   Y4        1.0  0.75600  0.95700  0.00000  1.0000
  Y   Y5        1.0  0.89200  0.19600  0.50000  1.0000
  Y   Y6        1.0  0.39200  0.30400  0.50000  1.0000
  Y   Y7        1.0  0.60800  0.69600  0.50000  1.0000
  Y   Y8        1.0  0.10800  0.80400  0.50000  1.0000
