data_image0
_chemical_formula_structural       O12P4Pd2
_chemical_formula_sum              "O12 P4 Pd2"
_cell_length_a       4.16643
_cell_length_b       4.47782
_cell_length_c       12.5054
_cell_angle_alpha    90
_cell_angle_beta     90
_cell_angle_gamma    90

_space_group_name_H-M_alt    "P 1"
_space_group_IT_number       1

loop_
  _space_group_symop_operation_xyz
  'x, y, z'

loop_
  _atom_site_type_symbol
  _atom_site_label
  _atom_site_symmetry_multiplicity
  _atom_site_fract_x
  _atom_site_fract_y
  _atom_site_fract_z
  _atom_site_occupancy
  O   O1        1.0  0.80900  0.26400  0.11300  1.0000
  O   O2        1.0  0.19100  0.73600  0.11300  1.0000
  O   O3        1.0  0.25000  0.33800  0.25000  1.0000
  O   O4        1.0  0.75000  0.66200  0.25000  1.0000
  O   O5        1.0  0.69100  0.26400  0.38700  1.0000
  O   O6        1.0  0.30900  0.73600  0.38700  1.0000
  O   O7        1.0  0.69100  0.26400  0.61300  1.0000
  O   O8        1.0  0.30900  0.73600  0.61300  1.0000
  O   O9        1.0  0.25000  0.33800  0.75000  1.0000
  O   O10       1.0  0.75000  0.66200  0.75000  1.0000
  O   O11       1.0  0.80900  0.26400  0.88700  1.0000
  O   O12       1.0  0.19100  0.73600  0.88700  1.0000
  P   P1        1.0  0.00000  0.50000  0.17200  1.0000
  P   P2        1.0  0.50000  0.50000  0.32800  1.0000
  P   P3        1.0  0.50000  0.50000  0.67200  1.0000
  P   P4        1.0  0.00000  0.50000  0.82800  1.0000
  Pd  Pd1       1.0  0.00000  0.00000  0.00000  1.0000
  Pd  Pd2       1.0  0.50000  0.00000  0.50000  1.0000
