data_image0
_chemical_formula_structural       Br12Zr6
_chemical_formula_sum              "Br12 Zr6"
_cell_length_a       8.50386
_cell_length_b       8.50386
_cell_length_c       8.50386
_cell_angle_alpha    107.18
_cell_angle_beta     107.18
_cell_angle_gamma    107.18

_space_group_name_H-M_alt    "P 1"
_space_group_IT_number       1

loop_
  _space_group_symop_operation_xyz
  'x, y, z'

loop_
  _atom_site_type_symbol
  _atom_site_label
  _atom_site_symmetry_multiplicity
  _atom_site_fract_x
  _atom_site_fract_y
  _atom_site_fract_z
  _atom_site_occupancy
  Br  Br1       1.0  0.68700  0.22900  0.07880  1.0000
  Br  Br2       1.0  0.37500  0.45200  0.14700  1.0000
  Br  Br3       1.0  0.07880  0.68700  0.22900  1.0000
  Br  Br4       1.0  0.77100  0.92100  0.31300  1.0000
  Br  Br5       1.0  0.45200  0.14700  0.37500  1.0000
  Br  Br6       1.0  0.14700  0.37500  0.45200  1.0000
  Br  Br7       1.0  0.85300  0.62500  0.54800  1.0000
  Br  Br8       1.0  0.54800  0.85300  0.62500  1.0000
  Br  Br9       1.0  0.22900  0.07880  0.68700  1.0000
  Br  Br10      1.0  0.92100  0.31300  0.77100  1.0000
  Br  Br11      1.0  0.62500  0.54800  0.85300  1.0000
  Br  Br12      1.0  0.31300  0.77100  0.92100  1.0000
  Zr  Zr1       1.0  0.29000  0.09690  0.03120  1.0000
  Zr  Zr2       1.0  0.03120  0.29000  0.09690  1.0000
  Zr  Zr3       1.0  0.09690  0.03120  0.29000  1.0000
  Zr  Zr4       1.0  0.90300  0.96900  0.71000  1.0000
  Zr  Zr5       1.0  0.96900  0.71000  0.90300  1.0000
  Zr  Zr6       1.0  0.71000  0.90300  0.96900  1.0000
