data_image0
_chemical_formula_structural       Cu4K4Te10
_chemical_formula_sum              "Cu4 K4 Te10"
_cell_length_a       6.93268
_cell_length_b       6.93268
_cell_length_c       12.1072
_cell_angle_alpha    90
_cell_angle_beta     90
_cell_angle_gamma    112.153

_space_group_name_H-M_alt    "P 1"
_space_group_IT_number       1

loop_
  _space_group_symop_operation_xyz
  'x, y, z'

loop_
  _atom_site_type_symbol
  _atom_site_label
  _atom_site_symmetry_multiplicity
  _atom_site_fract_x
  _atom_site_fract_y
  _atom_site_fract_z
  _atom_site_occupancy
  Cu  Cu1       1.0  0.53800  0.31500  0.25000  1.0000
  Cu  Cu2       1.0  0.31500  0.53800  0.25000  1.0000
  Cu  Cu3       1.0  0.68500  0.46200  0.75000  1.0000
  Cu  Cu4       1.0  0.46200  0.68500  0.75000  1.0000
  K   K1        1.0  0.79600  0.20400  0.00000  1.0000
  K   K2        1.0  0.20400  0.79600  0.00000  1.0000
  K   K3        1.0  0.79600  0.20400  0.50000  1.0000
  K   K4        1.0  0.20400  0.79600  0.50000  1.0000
  Te  Te1       1.0  0.34600  0.34600  0.06580  1.0000
  Te  Te2       1.0  0.93600  0.54800  0.25000  1.0000
  Te  Te3       1.0  0.54800  0.93600  0.25000  1.0000
  Te  Te4       1.0  0.97300  0.97300  0.25000  1.0000
  Te  Te5       1.0  0.34600  0.34600  0.43400  1.0000
  Te  Te6       1.0  0.65400  0.65400  0.56600  1.0000
  Te  Te7       1.0  0.02700  0.02700  0.75000  1.0000
  Te  Te8       1.0  0.45200  0.06410  0.75000  1.0000
  Te  Te9       1.0  0.06410  0.45200  0.75000  1.0000
  Te  Te10      1.0  0.65400  0.65400  0.93400  1.0000
