data_image0
_chemical_formula_structural       K4Pd6S8
_chemical_formula_sum              "K4 Pd6 S8"
_cell_length_a       6.17279
_cell_length_b       6.23206
_cell_length_c       13.2489
_cell_angle_alpha    96.625
_cell_angle_beta     76.5289
_cell_angle_gamma    119.686

_space_group_name_H-M_alt    "P 1"
_space_group_IT_number       1

loop_
  _space_group_symop_operation_xyz
  'x, y, z'

loop_
  _atom_site_type_symbol
  _atom_site_label
  _atom_site_symmetry_multiplicity
  _atom_site_fract_x
  _atom_site_fract_y
  _atom_site_fract_z
  _atom_site_occupancy
  K   K1        1.0  0.45300  0.25000  0.09480  1.0000
  K   K2        1.0  0.29700  0.25000  0.40500  1.0000
  K   K3        1.0  0.70300  0.75000  0.59500  1.0000
  K   K4        1.0  0.54700  0.75000  0.90500  1.0000
  Pd  Pd1       1.0  0.87600  0.75000  0.24800  1.0000
  Pd  Pd2       1.0  0.87500  0.25000  0.25000  1.0000
  Pd  Pd3       1.0  0.37400  0.75000  0.25200  1.0000
  Pd  Pd4       1.0  0.62600  0.25000  0.74800  1.0000
  Pd  Pd5       1.0  0.12500  0.75000  0.75000  1.0000
  Pd  Pd6       1.0  0.12400  0.25000  0.75200  1.0000
  S   S1        1.0  0.10700  0.58200  0.13000  1.0000
  S   S2        1.0  0.76300  0.91800  0.13000  1.0000
  S   S3        1.0  0.97500  0.58200  0.37000  1.0000
  S   S4        1.0  0.65500  0.91800  0.37000  1.0000
  S   S5        1.0  0.34500  0.08170  0.63000  1.0000
  S   S6        1.0  0.02530  0.41800  0.63000  1.0000
  S   S7        1.0  0.23700  0.08170  0.87000  1.0000
  S   S8        1.0  0.89300  0.41800  0.87000  1.0000
