data_image0
_chemical_formula_structural       As2Hg6I2Se8
_chemical_formula_sum              "As2 Hg6 I2 Se8"
_cell_length_a       7.82669
_cell_length_b       7.82672
_cell_length_c       10.0581
_cell_angle_alpha    90
_cell_angle_beta     90
_cell_angle_gamma    120

_space_group_name_H-M_alt    "P 1"
_space_group_IT_number       1

loop_
  _space_group_symop_operation_xyz
  'x, y, z'

loop_
  _atom_site_type_symbol
  _atom_site_label
  _atom_site_symmetry_multiplicity
  _atom_site_fract_x
  _atom_site_fract_y
  _atom_site_fract_z
  _atom_site_occupancy
  As  As1       1.0  0.00000  0.00000  0.23200  1.0000
  As  As2       1.0  0.00000  0.00000  0.73200  1.0000
  Hg  Hg1       1.0  0.49700  0.99400  0.24300  1.0000
  Hg  Hg2       1.0  0.00559  0.50300  0.24300  1.0000
  Hg  Hg3       1.0  0.49700  0.50300  0.24300  1.0000
  Hg  Hg4       1.0  0.50300  0.00560  0.74300  1.0000
  Hg  Hg5       1.0  0.50300  0.49700  0.74300  1.0000
  Hg  Hg6       1.0  0.99400  0.49700  0.74300  1.0000
  I   I1        1.0  0.66700  0.33300  0.02380  1.0000
  I   I2        1.0  0.33300  0.66700  0.52400  1.0000
  Se  Se1       1.0  0.33300  0.66700  0.10400  1.0000
  Se  Se2       1.0  0.30100  0.15000  0.36600  1.0000
  Se  Se3       1.0  0.85000  0.15000  0.36600  1.0000
  Se  Se4       1.0  0.85000  0.69900  0.36600  1.0000
  Se  Se5       1.0  0.66700  0.33300  0.60400  1.0000
  Se  Se6       1.0  0.15000  0.85000  0.86600  1.0000
  Se  Se7       1.0  0.69900  0.85000  0.86600  1.0000
  Se  Se8       1.0  0.15000  0.30100  0.86600  1.0000
