data_image0
_chemical_formula_structural       C8O8Pb2
_chemical_formula_sum              "C8 O8 Pb2"
_cell_length_a       7.28748
_cell_length_b       7.28748
_cell_length_c       7.30166
_cell_angle_alpha    119.936
_cell_angle_beta     119.936
_cell_angle_gamma    90

_space_group_name_H-M_alt    "P 1"
_space_group_IT_number       1

loop_
  _space_group_symop_operation_xyz
  'x, y, z'

loop_
  _atom_site_type_symbol
  _atom_site_label
  _atom_site_symmetry_multiplicity
  _atom_site_fract_x
  _atom_site_fract_y
  _atom_site_fract_z
  _atom_site_occupancy
  C   C1        1.0  0.06630  0.31600  0.13300  1.0000
  C   C2        1.0  0.07280  0.82300  0.14600  1.0000
  C   C3        1.0  0.67700  0.42700  0.35400  1.0000
  C   C4        1.0  0.18400  0.43400  0.36700  1.0000
  C   C5        1.0  0.81600  0.56600  0.63300  1.0000
  C   C6        1.0  0.32300  0.57300  0.64600  1.0000
  C   C7        1.0  0.92700  0.17700  0.85400  1.0000
  C   C8        1.0  0.93400  0.68400  0.86700  1.0000
  O   O1        1.0  0.61800  0.21500  0.23600  1.0000
  O   O2        1.0  0.61800  0.52100  0.23600  1.0000
  O   O3        1.0  0.28500  0.88200  0.26400  1.0000
  O   O4        1.0  0.97900  0.88200  0.26400  1.0000
  O   O5        1.0  0.02050  0.11800  0.73600  1.0000
  O   O6        1.0  0.71500  0.11800  0.73600  1.0000
  O   O7        1.0  0.38200  0.47900  0.76400  1.0000
  O   O8        1.0  0.38200  0.78500  0.76400  1.0000
  Pb  Pb1       1.0  0.62500  0.87500  0.25000  1.0000
  Pb  Pb2       1.0  0.37500  0.12500  0.75000  1.0000
