data_image0
_chemical_formula_structural       Ca3Ni6Zn9
_chemical_formula_sum              "Ca3 Ni6 Zn9"
_cell_length_a       8.97466
_cell_length_b       8.97466
_cell_length_c       4.07995
_cell_angle_alpha    90
_cell_angle_beta     90
_cell_angle_gamma    120.004

_space_group_name_H-M_alt    "P 1"
_space_group_IT_number       1

loop_
  _space_group_symop_operation_xyz
  'x, y, z'

loop_
  _atom_site_type_symbol
  _atom_site_label
  _atom_site_symmetry_multiplicity
  _atom_site_fract_x
  _atom_site_fract_y
  _atom_site_fract_z
  _atom_site_occupancy
  Ca  Ca1       1.0  0.66700  0.33300  0.00000  1.0000
  Ca  Ca2       1.0  0.33300  0.66700  0.00000  1.0000
  Ca  Ca3       1.0  0.00000  0.00000  0.50000  1.0000
  Ni  Ni1       1.0  0.81800  0.18200  0.50000  1.0000
  Ni  Ni2       1.0  0.36400  0.18200  0.50000  1.0000
  Ni  Ni3       1.0  0.18200  0.36400  0.50000  1.0000
  Ni  Ni4       1.0  0.81800  0.63600  0.50000  1.0000
  Ni  Ni5       1.0  0.63600  0.81800  0.50000  1.0000
  Ni  Ni6       1.0  0.18200  0.81800  0.50000  1.0000
  Zn  Zn1       1.0  0.29300  0.00000  0.00000  1.0000
  Zn  Zn2       1.0  0.70700  0.00001  0.00000  1.0000
  Zn  Zn3       1.0  0.00000  0.29300  0.00000  1.0000
  Zn  Zn4       1.0  0.29300  0.29300  0.00000  1.0000
  Zn  Zn5       1.0  0.70700  0.70700  0.00000  1.0000
  Zn  Zn6       1.0  0.00001  0.70700  0.00000  1.0000
  Zn  Zn7       1.0  0.50000  0.00001  0.50000  1.0000
  Zn  Zn8       1.0  0.50000  0.50000  0.50000  1.0000
  Zn  Zn9       1.0  0.00001  0.50000  0.50000  1.0000
