data_image0
_chemical_formula_structural       Br12In4Th2
_chemical_formula_sum              "Br12 In4 Th2"
_cell_length_a       8.62567
_cell_length_b       8.62567
_cell_length_c       9.10142
_cell_angle_alpha    90.5487
_cell_angle_beta     90.5487
_cell_angle_gamma    117.942

_space_group_name_H-M_alt    "P 1"
_space_group_IT_number       1

loop_
  _space_group_symop_operation_xyz
  'x, y, z'

loop_
  _atom_site_type_symbol
  _atom_site_label
  _atom_site_symmetry_multiplicity
  _atom_site_fract_x
  _atom_site_fract_y
  _atom_site_fract_z
  _atom_site_occupancy
  Br  Br1       1.0  0.09350  0.86600  0.05670  1.0000
  Br  Br2       1.0  0.57500  0.02330  0.23200  1.0000
  Br  Br3       1.0  0.31100  0.30100  0.23400  1.0000
  Br  Br4       1.0  0.69900  0.68900  0.26600  1.0000
  Br  Br5       1.0  0.97700  0.42500  0.26800  1.0000
  Br  Br6       1.0  0.13400  0.90600  0.44300  1.0000
  Br  Br7       1.0  0.86600  0.09350  0.55700  1.0000
  Br  Br8       1.0  0.02330  0.57500  0.73200  1.0000
  Br  Br9       1.0  0.30100  0.31100  0.73400  1.0000
  Br  Br10      1.0  0.68900  0.69900  0.76600  1.0000
  Br  Br11      1.0  0.42500  0.97700  0.76800  1.0000
  Br  Br12      1.0  0.90600  0.13400  0.94300  1.0000
  In  In1       1.0  0.66700  0.35700  0.00402  1.0000
  In  In2       1.0  0.64300  0.33300  0.49600  1.0000
  In  In3       1.0  0.35700  0.66700  0.50400  1.0000
  In  In4       1.0  0.33300  0.64300  0.99600  1.0000
  Th  Th1       1.0  0.94000  0.06030  0.25000  1.0000
  Th  Th2       1.0  0.06030  0.94000  0.75000  1.0000
