data_image0
_chemical_formula_structural       O12Se4Ti2
_chemical_formula_sum              "O12 Se4 Ti2"
_cell_length_a       4.71577
_cell_length_b       8.30124
_cell_length_c       6.6473
_cell_angle_alpha    90
_cell_angle_beta     109.749
_cell_angle_gamma    90

_space_group_name_H-M_alt    "P 1"
_space_group_IT_number       1

loop_
  _space_group_symop_operation_xyz
  'x, y, z'

loop_
  _atom_site_type_symbol
  _atom_site_label
  _atom_site_symmetry_multiplicity
  _atom_site_fract_x
  _atom_site_fract_y
  _atom_site_fract_z
  _atom_site_occupancy
  O   O1        1.0  0.83300  0.15700  0.09010  1.0000
  O   O2        1.0  0.76600  0.83900  0.17000  1.0000
  O   O3        1.0  0.59500  0.54600  0.23700  1.0000
  O   O4        1.0  0.40500  0.04590  0.26300  1.0000
  O   O5        1.0  0.23400  0.33900  0.33000  1.0000
  O   O6        1.0  0.16700  0.65700  0.41000  1.0000
  O   O7        1.0  0.83300  0.34300  0.59000  1.0000
  O   O8        1.0  0.76600  0.66100  0.67000  1.0000
  O   O9        1.0  0.59500  0.95400  0.73700  1.0000
  O   O10       1.0  0.40500  0.45400  0.76300  1.0000
  O   O11       1.0  0.23400  0.16100  0.83000  1.0000
  O   O12       1.0  0.16700  0.84300  0.91000  1.0000
  Se  Se1       1.0  0.87500  0.64000  0.16900  1.0000
  Se  Se2       1.0  0.12500  0.14000  0.33100  1.0000
  Se  Se3       1.0  0.87500  0.86000  0.66900  1.0000
  Se  Se4       1.0  0.12500  0.36000  0.83100  1.0000
  Ti  Ti1       1.0  0.50000  0.00000  0.00000  1.0000
  Ti  Ti2       1.0  0.50000  0.50000  0.50000  1.0000
