data_image0
_chemical_formula_structural       Nb4O12Sn2
_chemical_formula_sum              "Nb4 O12 Sn2"
_cell_length_a       4.91756
_cell_length_b       5.59298
_cell_length_c       8.89324
_cell_angle_alpha    90.8899
_cell_angle_beta     106.05
_cell_angle_gamma    90

_space_group_name_H-M_alt    "P 1"
_space_group_IT_number       1

loop_
  _space_group_symop_operation_xyz
  'x, y, z'

loop_
  _atom_site_type_symbol
  _atom_site_label
  _atom_site_symmetry_multiplicity
  _atom_site_fract_x
  _atom_site_fract_y
  _atom_site_fract_z
  _atom_site_occupancy
  Nb  Nb1       1.0  0.93000  0.17700  0.33800  1.0000
  Nb  Nb2       1.0  0.40800  0.67700  0.33800  1.0000
  Nb  Nb3       1.0  0.59200  0.32300  0.66200  1.0000
  Nb  Nb4       1.0  0.06990  0.82300  0.66200  1.0000
  O   O1        1.0  0.99100  0.09080  0.14200  1.0000
  O   O2        1.0  0.15100  0.59100  0.14200  1.0000
  O   O3        1.0  0.68100  0.43200  0.28100  1.0000
  O   O4        1.0  0.60000  0.93200  0.28100  1.0000
  O   O5        1.0  0.28300  0.35100  0.43900  1.0000
  O   O6        1.0  0.15600  0.85100  0.43900  1.0000
  O   O7        1.0  0.84400  0.14900  0.56100  1.0000
  O   O8        1.0  0.71700  0.64900  0.56100  1.0000
  O   O9        1.0  0.40000  0.06790  0.71900  1.0000
  O   O10       1.0  0.31900  0.56800  0.71900  1.0000
  O   O11       1.0  0.84900  0.40900  0.85800  1.0000
  O   O12       1.0  0.00942  0.90900  0.85800  1.0000
  Sn  Sn1       1.0  0.23900  0.25000  0.00000  1.0000
  Sn  Sn2       1.0  0.76100  0.75000  0.00000  1.0000
