data_image0
_chemical_formula_structural       Br10Cs6Zn2
_chemical_formula_sum              "Br10 Cs6 Zn2"
_cell_length_a       9.78984
_cell_length_b       9.78984
_cell_length_c       10.3506
_cell_angle_alpha    118.224
_cell_angle_beta     118.224
_cell_angle_gamma    90

_space_group_name_H-M_alt    "P 1"
_space_group_IT_number       1

loop_
  _space_group_symop_operation_xyz
  'x, y, z'

loop_
  _atom_site_type_symbol
  _atom_site_label
  _atom_site_symmetry_multiplicity
  _atom_site_fract_x
  _atom_site_fract_y
  _atom_site_fract_z
  _atom_site_occupancy
  Br  Br1       1.0  0.00000  0.00000  0.00000  1.0000
  Br  Br2       1.0  0.50000  0.50000  0.00000  1.0000
  Br  Br3       1.0  0.79800  0.01490  0.31300  1.0000
  Br  Br4       1.0  0.51500  0.29800  0.31300  1.0000
  Br  Br5       1.0  0.01490  0.51500  0.31300  1.0000
  Br  Br6       1.0  0.29800  0.79800  0.31300  1.0000
  Br  Br7       1.0  0.70200  0.20200  0.68700  1.0000
  Br  Br8       1.0  0.98500  0.48500  0.68700  1.0000
  Br  Br9       1.0  0.48500  0.70200  0.68700  1.0000
  Br  Br10      1.0  0.20200  0.98500  0.68700  1.0000
  Cs  Cs1       1.0  0.66200  0.16200  0.00000  1.0000
  Cs  Cs2       1.0  0.16200  0.33800  0.00000  1.0000
  Cs  Cs3       1.0  0.83800  0.66200  0.00000  1.0000
  Cs  Cs4       1.0  0.33800  0.83800  0.00000  1.0000
  Cs  Cs5       1.0  0.25000  0.25000  0.50000  1.0000
  Cs  Cs6       1.0  0.75000  0.75000  0.50000  1.0000
  Zn  Zn1       1.0  0.75000  0.25000  0.50000  1.0000
  Zn  Zn2       1.0  0.25000  0.75000  0.50000  1.0000
