data_image0
_chemical_formula_structural       Cu4Rb4S8Ti2
_chemical_formula_sum              "Cu4 Rb4 S8 Ti2"
_cell_length_a       5.63151
_cell_length_b       5.63151
_cell_length_c       13.2823
_cell_angle_alpha    90
_cell_angle_beta     90
_cell_angle_gamma    90

_space_group_name_H-M_alt    "P 1"
_space_group_IT_number       1

loop_
  _space_group_symop_operation_xyz
  'x, y, z'

loop_
  _atom_site_type_symbol
  _atom_site_label
  _atom_site_symmetry_multiplicity
  _atom_site_fract_x
  _atom_site_fract_y
  _atom_site_fract_z
  _atom_site_occupancy
  Cu  Cu1       1.0  0.50000  0.00000  0.25000  1.0000
  Cu  Cu2       1.0  0.00000  0.50000  0.25000  1.0000
  Cu  Cu3       1.0  0.50000  0.00000  0.75000  1.0000
  Cu  Cu4       1.0  0.00000  0.50000  0.75000  1.0000
  Rb  Rb1       1.0  0.23800  0.23800  0.00000  1.0000
  Rb  Rb2       1.0  0.76200  0.76200  0.00000  1.0000
  Rb  Rb3       1.0  0.76200  0.23800  0.50000  1.0000
  Rb  Rb4       1.0  0.23800  0.76200  0.50000  1.0000
  S   S1        1.0  0.73800  0.26200  0.15400  1.0000
  S   S2        1.0  0.26200  0.73800  0.15400  1.0000
  S   S3        1.0  0.26200  0.26200  0.34600  1.0000
  S   S4        1.0  0.73800  0.73800  0.34600  1.0000
  S   S5        1.0  0.26200  0.26200  0.65400  1.0000
  S   S6        1.0  0.73800  0.73800  0.65400  1.0000
  S   S7        1.0  0.73800  0.26200  0.84600  1.0000
  S   S8        1.0  0.26200  0.73800  0.84600  1.0000
  Ti  Ti1       1.0  0.50000  0.50000  0.25000  1.0000
  Ti  Ti2       1.0  0.50000  0.50000  0.75000  1.0000
