data_image0
_chemical_formula_structural       Cs4Cu4Se8Ti2
_chemical_formula_sum              "Cs4 Cu4 Se8 Ti2"
_cell_length_a       5.90662
_cell_length_b       5.90662
_cell_length_c       14.3975
_cell_angle_alpha    90
_cell_angle_beta     90
_cell_angle_gamma    90

_space_group_name_H-M_alt    "P 1"
_space_group_IT_number       1

loop_
  _space_group_symop_operation_xyz
  'x, y, z'

loop_
  _atom_site_type_symbol
  _atom_site_label
  _atom_site_symmetry_multiplicity
  _atom_site_fract_x
  _atom_site_fract_y
  _atom_site_fract_z
  _atom_site_occupancy
  Cs  Cs1       1.0  0.24000  0.24000  0.00000  1.0000
  Cs  Cs2       1.0  0.76000  0.76000  0.00000  1.0000
  Cs  Cs3       1.0  0.76000  0.24000  0.50000  1.0000
  Cs  Cs4       1.0  0.24000  0.76000  0.50000  1.0000
  Cu  Cu1       1.0  0.50000  0.00000  0.25000  1.0000
  Cu  Cu2       1.0  0.00000  0.50000  0.25000  1.0000
  Cu  Cu3       1.0  0.50000  0.00000  0.75000  1.0000
  Cu  Cu4       1.0  0.00000  0.50000  0.75000  1.0000
  Se  Se1       1.0  0.73900  0.26100  0.15600  1.0000
  Se  Se2       1.0  0.26100  0.73900  0.15600  1.0000
  Se  Se3       1.0  0.26100  0.26100  0.34400  1.0000
  Se  Se4       1.0  0.73900  0.73900  0.34400  1.0000
  Se  Se5       1.0  0.26100  0.26100  0.65600  1.0000
  Se  Se6       1.0  0.73900  0.73900  0.65600  1.0000
  Se  Se7       1.0  0.73900  0.26100  0.84400  1.0000
  Se  Se8       1.0  0.26100  0.73900  0.84400  1.0000
  Ti  Ti1       1.0  0.50000  0.50000  0.25000  1.0000
  Ti  Ti2       1.0  0.50000  0.50000  0.75000  1.0000
