data_image0
_chemical_formula_structural       As2Br2Hg6Se8
_chemical_formula_sum              "As2 Br2 Hg6 Se8"
_cell_length_a       7.8398
_cell_length_b       7.83978
_cell_length_c       9.53427
_cell_angle_alpha    90
_cell_angle_beta     90
_cell_angle_gamma    120

_space_group_name_H-M_alt    "P 1"
_space_group_IT_number       1

loop_
  _space_group_symop_operation_xyz
  'x, y, z'

loop_
  _atom_site_type_symbol
  _atom_site_label
  _atom_site_symmetry_multiplicity
  _atom_site_fract_x
  _atom_site_fract_y
  _atom_site_fract_z
  _atom_site_occupancy
  As  As1       1.0  0.00000  0.00000  0.22400  1.0000
  As  As2       1.0  0.00000  0.00001  0.72400  1.0000
  Br  Br1       1.0  0.66700  0.33300  0.02790  1.0000
  Br  Br2       1.0  0.33300  0.66700  0.52800  1.0000
  Hg  Hg1       1.0  0.49800  0.99500  0.24300  1.0000
  Hg  Hg2       1.0  0.00484  0.50200  0.24300  1.0000
  Hg  Hg3       1.0  0.49800  0.50200  0.24300  1.0000
  Hg  Hg4       1.0  0.50200  0.00485  0.74300  1.0000
  Hg  Hg5       1.0  0.50200  0.49800  0.74300  1.0000
  Hg  Hg6       1.0  0.99500  0.49800  0.74300  1.0000
  Se  Se1       1.0  0.33300  0.66700  0.10000  1.0000
  Se  Se2       1.0  0.29800  0.14900  0.36700  1.0000
  Se  Se3       1.0  0.85100  0.14900  0.36700  1.0000
  Se  Se4       1.0  0.85100  0.70200  0.36700  1.0000
  Se  Se5       1.0  0.66700  0.33300  0.60000  1.0000
  Se  Se6       1.0  0.14900  0.85100  0.86700  1.0000
  Se  Se7       1.0  0.70200  0.85100  0.86700  1.0000
  Se  Se8       1.0  0.14900  0.29800  0.86700  1.0000
