data_image0
_chemical_formula_structural       Bi2O12Re4
_chemical_formula_sum              "Bi2 O12 Re4"
_cell_length_a       4.93811
_cell_length_b       5.54412
_cell_length_c       8.40179
_cell_angle_alpha    92.6163
_cell_angle_beta     107.09
_cell_angle_gamma    90

_space_group_name_H-M_alt    "P 1"
_space_group_IT_number       1

loop_
  _space_group_symop_operation_xyz
  'x, y, z'

loop_
  _atom_site_type_symbol
  _atom_site_label
  _atom_site_symmetry_multiplicity
  _atom_site_fract_x
  _atom_site_fract_y
  _atom_site_fract_z
  _atom_site_occupancy
  Bi  Bi1       1.0  0.73200  0.75000  0.00000  1.0000
  Bi  Bi2       1.0  0.26800  0.25000  0.00000  1.0000
  O   O1        1.0  0.47300  0.91700  0.14000  1.0000
  O   O2        1.0  0.66600  0.41700  0.14000  1.0000
  O   O3        1.0  0.16700  0.60900  0.27400  1.0000
  O   O4        1.0  0.10700  0.10900  0.27400  1.0000
  O   O5        1.0  0.73800  0.67000  0.43100  1.0000
  O   O6        1.0  0.69400  0.17000  0.43100  1.0000
  O   O7        1.0  0.30600  0.83000  0.56900  1.0000
  O   O8        1.0  0.26200  0.33000  0.56900  1.0000
  O   O9        1.0  0.83300  0.39100  0.72600  1.0000
  O   O10       1.0  0.89300  0.89100  0.72600  1.0000
  O   O11       1.0  0.52700  0.08290  0.86000  1.0000
  O   O12       1.0  0.33400  0.58300  0.86000  1.0000
  Re  Re1       1.0  0.41700  0.88800  0.36100  1.0000
  Re  Re2       1.0  0.94400  0.38800  0.36100  1.0000
  Re  Re3       1.0  0.05550  0.61200  0.63900  1.0000
  Re  Re4       1.0  0.58300  0.11200  0.63900  1.0000
