data_image0
_chemical_formula_structural       Ba4Bi2In2S10
_chemical_formula_sum              "Ba4 Bi2 In2 S10"
_cell_length_a       4.20282
_cell_length_b       9.53145
_cell_length_c       12.9343
_cell_angle_alpha    90
_cell_angle_beta     90
_cell_angle_gamma    77.2633

_space_group_name_H-M_alt    "P 1"
_space_group_IT_number       1

loop_
  _space_group_symop_operation_xyz
  'x, y, z'

loop_
  _atom_site_type_symbol
  _atom_site_label
  _atom_site_symmetry_multiplicity
  _atom_site_fract_x
  _atom_site_fract_y
  _atom_site_fract_z
  _atom_site_occupancy
  Ba  Ba1       1.0  0.13000  0.74100  0.19000  1.0000
  Ba  Ba2       1.0  0.88700  0.22600  0.31600  1.0000
  Ba  Ba3       1.0  0.87000  0.25900  0.69000  1.0000
  Ba  Ba4       1.0  0.11300  0.77400  0.81600  1.0000
  Bi  Bi1       1.0  0.21700  0.56600  0.47800  1.0000
  Bi  Bi2       1.0  0.78300  0.43400  0.97800  1.0000
  In  In1       1.0  0.44400  0.11200  0.05560  1.0000
  In  In2       1.0  0.55600  0.88800  0.55600  1.0000
  S   S1        1.0  0.64300  0.71400  0.00000  1.0000
  S   S2        1.0  0.31600  0.36800  0.13100  1.0000
  S   S3        1.0  0.50400  0.99200  0.22400  1.0000
  S   S4        1.0  0.71600  0.56800  0.33500  1.0000
  S   S5        1.0  0.04530  0.90900  0.44800  1.0000
  S   S6        1.0  0.35700  0.28600  0.50000  1.0000
  S   S7        1.0  0.68400  0.63200  0.63100  1.0000
  S   S8        1.0  0.49600  0.00793  0.72400  1.0000
  S   S9        1.0  0.28400  0.43200  0.83500  1.0000
  S   S10       1.0  0.95500  0.09060  0.94800  1.0000
