data_image0
_chemical_formula_structural       Cs4Li4O8Ti2
_chemical_formula_sum              "Cs4 Li4 O8 Ti2"
_cell_length_a       9.4387
_cell_length_b       5.91953
_cell_length_c       5.81576
_cell_angle_alpha    93.2123
_cell_angle_beta     110.073
_cell_angle_gamma    94.7481

_space_group_name_H-M_alt    "P 1"
_space_group_IT_number       1

loop_
  _space_group_symop_operation_xyz
  'x, y, z'

loop_
  _atom_site_type_symbol
  _atom_site_label
  _atom_site_symmetry_multiplicity
  _atom_site_fract_x
  _atom_site_fract_y
  _atom_site_fract_z
  _atom_site_occupancy
  Cs  Cs1       1.0  0.72100  0.14900  0.18500  1.0000
  Cs  Cs2       1.0  0.98300  0.72400  0.19900  1.0000
  Cs  Cs3       1.0  0.01680  0.27600  0.80100  1.0000
  Cs  Cs4       1.0  0.27900  0.85100  0.81500  1.0000
  Li  Li1       1.0  0.42400  0.41400  0.12100  1.0000
  Li  Li2       1.0  0.43900  0.82200  0.37200  1.0000
  Li  Li3       1.0  0.56100  0.17800  0.62800  1.0000
  Li  Li4       1.0  0.57600  0.58600  0.87900  1.0000
  O   O1        1.0  0.61000  0.63900  0.23200  1.0000
  O   O2        1.0  0.28700  0.57500  0.26400  1.0000
  O   O3        1.0  0.39900  0.13500  0.30300  1.0000
  O   O4        1.0  0.08760  0.20500  0.35500  1.0000
  O   O5        1.0  0.91200  0.79500  0.64500  1.0000
  O   O6        1.0  0.60100  0.86500  0.69700  1.0000
  O   O7        1.0  0.71300  0.42500  0.73600  1.0000
  O   O8        1.0  0.39000  0.36100  0.76800  1.0000
  Ti  Ti1       1.0  0.28400  0.31800  0.42900  1.0000
  Ti  Ti2       1.0  0.71600  0.68200  0.57100  1.0000
