data_image0
_chemical_formula_structural       F2Pb6Sr10
_chemical_formula_sum              "F2 Pb6 Sr10"
_cell_length_a       8.72152
_cell_length_b       8.72152
_cell_length_c       10.1038
_cell_angle_alpha    115.569
_cell_angle_beta     115.569
_cell_angle_gamma    90

_space_group_name_H-M_alt    "P 1"
_space_group_IT_number       1

loop_
  _space_group_symop_operation_xyz
  'x, y, z'

loop_
  _atom_site_type_symbol
  _atom_site_label
  _atom_site_symmetry_multiplicity
  _atom_site_fract_x
  _atom_site_fract_y
  _atom_site_fract_z
  _atom_site_occupancy
  F   F1        1.0  0.75000  0.25000  0.50000  1.0000
  F   F2        1.0  0.25000  0.75000  0.50000  1.0000
  Pb  Pb1       1.0  0.62700  0.12700  0.00000  1.0000
  Pb  Pb2       1.0  0.12700  0.37300  0.00000  1.0000
  Pb  Pb3       1.0  0.87200  0.62700  0.00000  1.0000
  Pb  Pb4       1.0  0.37300  0.87200  0.00000  1.0000
  Pb  Pb5       1.0  0.25000  0.25000  0.50000  1.0000
  Pb  Pb6       1.0  0.75000  0.75000  0.50000  1.0000
  Sr  Sr1       1.0  0.00000  0.00000  0.00000  1.0000
  Sr  Sr2       1.0  0.50000  0.50000  0.00000  1.0000
  Sr  Sr3       1.0  0.49200  0.31200  0.30400  1.0000
  Sr  Sr4       1.0  0.99200  0.49200  0.30400  1.0000
  Sr  Sr5       1.0  0.31200  0.81200  0.30400  1.0000
  Sr  Sr6       1.0  0.81200  0.99200  0.30400  1.0000
  Sr  Sr7       1.0  0.18800  0.00816  0.69600  1.0000
  Sr  Sr8       1.0  0.68800  0.18800  0.69600  1.0000
  Sr  Sr9       1.0  0.00816  0.50800  0.69600  1.0000
  Sr  Sr10      1.0  0.50800  0.68800  0.69600  1.0000
