data_image0
_chemical_formula_structural       Ba2Cl4O12
_chemical_formula_sum              "Ba2 Cl4 O12"
_cell_length_a       6.96703
_cell_length_b       6.96703
_cell_length_c       7.63256
_cell_angle_alpha    105.727
_cell_angle_beta     105.727
_cell_angle_gamma    113.961

_space_group_name_H-M_alt    "P 1"
_space_group_IT_number       1

loop_
  _space_group_symop_operation_xyz
  'x, y, z'

loop_
  _atom_site_type_symbol
  _atom_site_label
  _atom_site_symmetry_multiplicity
  _atom_site_fract_x
  _atom_site_fract_y
  _atom_site_fract_z
  _atom_site_occupancy
  Ba  Ba1       1.0  0.99800  0.99800  0.00000  1.0000
  Ba  Ba2       1.0  0.74800  0.24800  0.50000  1.0000
  Cl  Cl1       1.0  0.26700  0.66200  0.04410  1.0000
  Cl  Cl2       1.0  0.97300  0.86800  0.45600  1.0000
  Cl  Cl3       1.0  0.41200  0.51700  0.54400  1.0000
  Cl  Cl4       1.0  0.61800  0.22300  0.95600  1.0000
  O   O1        1.0  0.21500  0.46400  0.09690  1.0000
  O   O2        1.0  0.72000  0.15600  0.11500  1.0000
  O   O3        1.0  0.31800  0.86400  0.22500  1.0000
  O   O4        1.0  0.84300  0.88900  0.27500  1.0000
  O   O5        1.0  0.35500  0.29100  0.38500  1.0000
  O   O6        1.0  0.86800  0.61700  0.40300  1.0000
  O   O7        1.0  0.21400  0.46500  0.59700  1.0000
  O   O8        1.0  0.90600  0.97000  0.61500  1.0000
  O   O9        1.0  0.61400  0.56800  0.72500  1.0000
  O   O10       1.0  0.63900  0.09320  0.77500  1.0000
  O   O11       1.0  0.04120  0.60500  0.88500  1.0000
  O   O12       1.0  0.36700  0.11800  0.90300  1.0000
