data_image0
_chemical_formula_structural       P4S12Th2
_chemical_formula_sum              "P4 S12 Th2"
_cell_length_a       6.98969
_cell_length_b       6.98969
_cell_length_c       9.91276
_cell_angle_alpha    90
_cell_angle_beta     90
_cell_angle_gamma    90

_space_group_name_H-M_alt    "P 1"
_space_group_IT_number       1

loop_
  _space_group_symop_operation_xyz
  'x, y, z'

loop_
  _atom_site_type_symbol
  _atom_site_label
  _atom_site_symmetry_multiplicity
  _atom_site_fract_x
  _atom_site_fract_y
  _atom_site_fract_z
  _atom_site_occupancy
  P   P1        1.0  0.65000  0.06190  0.00000  1.0000
  P   P2        1.0  0.35000  0.93800  0.00000  1.0000
  P   P3        1.0  0.06190  0.35000  0.50000  1.0000
  P   P4        1.0  0.93800  0.65000  0.50000  1.0000
  S   S1        1.0  0.17600  0.17600  0.00000  1.0000
  S   S2        1.0  0.82400  0.82400  0.00000  1.0000
  S   S3        1.0  0.67700  0.21700  0.17100  1.0000
  S   S4        1.0  0.32300  0.78300  0.17100  1.0000
  S   S5        1.0  0.21700  0.32300  0.32900  1.0000
  S   S6        1.0  0.78300  0.67700  0.32900  1.0000
  S   S7        1.0  0.82400  0.17600  0.50000  1.0000
  S   S8        1.0  0.17600  0.82400  0.50000  1.0000
  S   S9        1.0  0.21700  0.32300  0.67100  1.0000
  S   S10       1.0  0.78300  0.67700  0.67100  1.0000
  S   S11       1.0  0.67700  0.21700  0.82900  1.0000
  S   S12       1.0  0.32300  0.78300  0.82900  1.0000
  Th  Th1       1.0  0.00000  0.00000  0.25000  1.0000
  Th  Th2       1.0  0.00000  0.00000  0.75000  1.0000
