data_image0
_chemical_formula_structural       Ba6S10Ti2
_chemical_formula_sum              "Ba6 S10 Ti2"
_cell_length_a       8.53614
_cell_length_b       8.53614
_cell_length_c       9.21335
_cell_angle_alpha    117.597
_cell_angle_beta     117.597
_cell_angle_gamma    90

_space_group_name_H-M_alt    "P 1"
_space_group_IT_number       1

loop_
  _space_group_symop_operation_xyz
  'x, y, z'

loop_
  _atom_site_type_symbol
  _atom_site_label
  _atom_site_symmetry_multiplicity
  _atom_site_fract_x
  _atom_site_fract_y
  _atom_site_fract_z
  _atom_site_occupancy
  Ba  Ba1       1.0  0.66200  0.16200  0.00000  1.0000
  Ba  Ba2       1.0  0.16200  0.33800  0.00000  1.0000
  Ba  Ba3       1.0  0.83800  0.66200  0.00000  1.0000
  Ba  Ba4       1.0  0.33800  0.83800  0.00000  1.0000
  Ba  Ba5       1.0  0.25000  0.25000  0.50000  1.0000
  Ba  Ba6       1.0  0.75000  0.75000  0.50000  1.0000
  S   S1        1.0  0.00000  0.00000  0.00000  1.0000
  S   S2        1.0  0.50000  0.50000  0.00000  1.0000
  S   S3        1.0  0.80100  0.00377  0.30400  1.0000
  S   S4        1.0  0.50400  0.30100  0.30400  1.0000
  S   S5        1.0  0.00377  0.50400  0.30400  1.0000
  S   S6        1.0  0.30100  0.80100  0.30400  1.0000
  S   S7        1.0  0.69900  0.19900  0.69600  1.0000
  S   S8        1.0  0.99600  0.49600  0.69600  1.0000
  S   S9        1.0  0.49600  0.69900  0.69600  1.0000
  S   S10       1.0  0.19900  0.99600  0.69600  1.0000
  Ti  Ti1       1.0  0.75000  0.25000  0.50000  1.0000
  Ti  Ti2       1.0  0.25000  0.75000  0.50000  1.0000
