data_image0
_chemical_formula_structural       Hf4Ni6Si8
_chemical_formula_sum              "Hf4 Ni6 Si8"
_cell_length_a       5.18359
_cell_length_b       6.86264
_cell_length_c       7.30022
_cell_angle_alpha    90
_cell_angle_beta     69.2047
_cell_angle_gamma    90

_space_group_name_H-M_alt    "P 1"
_space_group_IT_number       1

loop_
  _space_group_symop_operation_xyz
  'x, y, z'

loop_
  _atom_site_type_symbol
  _atom_site_label
  _atom_site_symmetry_multiplicity
  _atom_site_fract_x
  _atom_site_fract_y
  _atom_site_fract_z
  _atom_site_occupancy
  Hf  Hf1       1.0  0.89600  0.59800  0.20800  1.0000
  Hf  Hf2       1.0  0.39600  0.90200  0.20800  1.0000
  Hf  Hf3       1.0  0.60400  0.09760  0.79200  1.0000
  Hf  Hf4       1.0  0.10400  0.40200  0.79200  1.0000
  Ni  Ni1       1.0  0.00000  0.00000  0.00000  1.0000
  Ni  Ni2       1.0  0.50000  0.50000  0.00000  1.0000
  Ni  Ni3       1.0  0.02130  0.25000  0.45700  1.0000
  Ni  Ni4       1.0  0.52100  0.25000  0.45700  1.0000
  Ni  Ni5       1.0  0.47900  0.75000  0.54300  1.0000
  Ni  Ni6       1.0  0.97900  0.75000  0.54300  1.0000
  Si  Si1       1.0  0.18900  0.25000  0.12200  1.0000
  Si  Si2       1.0  0.68900  0.25000  0.12200  1.0000
  Si  Si3       1.0  0.31900  0.52300  0.36300  1.0000
  Si  Si4       1.0  0.81900  0.97700  0.36300  1.0000
  Si  Si5       1.0  0.18100  0.02310  0.63700  1.0000
  Si  Si6       1.0  0.68100  0.47700  0.63700  1.0000
  Si  Si7       1.0  0.31100  0.75000  0.87800  1.0000
  Si  Si8       1.0  0.81100  0.75000  0.87800  1.0000
