data_image0
_chemical_formula_structural       Mn2Mo2O12Te2
_chemical_formula_sum              "Mn2 Mo2 O12 Te2"
_cell_length_a       5.27738
_cell_length_b       5.11773
_cell_length_c       8.81223
_cell_angle_alpha    90
_cell_angle_beta     90
_cell_angle_gamma    90

_space_group_name_H-M_alt    "P 1"
_space_group_IT_number       1

loop_
  _space_group_symop_operation_xyz
  'x, y, z'

loop_
  _atom_site_type_symbol
  _atom_site_label
  _atom_site_symmetry_multiplicity
  _atom_site_fract_x
  _atom_site_fract_y
  _atom_site_fract_z
  _atom_site_occupancy
  Mn  Mn1       1.0  0.50000  0.50000  0.47800  1.0000
  Mn  Mn2       1.0  0.00000  0.00000  0.52200  1.0000
  Mo  Mo1       1.0  0.50000  0.00000  0.18500  1.0000
  Mo  Mo2       1.0  0.00000  0.50000  0.81500  1.0000
  O   O1        1.0  0.70800  0.16400  0.06490  1.0000
  O   O2        1.0  0.29200  0.83600  0.06490  1.0000
  O   O3        1.0  0.31200  0.25000  0.29100  1.0000
  O   O4        1.0  0.68800  0.75000  0.29100  1.0000
  O   O5        1.0  0.82100  0.28400  0.38300  1.0000
  O   O6        1.0  0.17900  0.71600  0.38300  1.0000
  O   O7        1.0  0.32100  0.21600  0.61700  1.0000
  O   O8        1.0  0.67900  0.78400  0.61700  1.0000
  O   O9        1.0  0.81200  0.25000  0.70900  1.0000
  O   O10       1.0  0.18800  0.75000  0.70900  1.0000
  O   O11       1.0  0.20800  0.33600  0.93500  1.0000
  O   O12       1.0  0.79200  0.66400  0.93500  1.0000
  Te  Te1       1.0  0.00000  0.50000  0.24100  1.0000
  Te  Te2       1.0  0.50000  0.00000  0.75900  1.0000
