data_image0
_chemical_formula_structural       Cl4O12Pb2
_chemical_formula_sum              "Cl4 O12 Pb2"
_cell_length_a       6.87536
_cell_length_b       6.87536
_cell_length_c       7.28059
_cell_angle_alpha    106.283
_cell_angle_beta     106.283
_cell_angle_gamma    113.966

_space_group_name_H-M_alt    "P 1"
_space_group_IT_number       1

loop_
  _space_group_symop_operation_xyz
  'x, y, z'

loop_
  _atom_site_type_symbol
  _atom_site_label
  _atom_site_symmetry_multiplicity
  _atom_site_fract_x
  _atom_site_fract_y
  _atom_site_fract_z
  _atom_site_occupancy
  Cl  Cl1       1.0  0.26900  0.66100  0.04500  1.0000
  Cl  Cl2       1.0  0.97400  0.86600  0.45500  1.0000
  Cl  Cl3       1.0  0.41100  0.51900  0.54500  1.0000
  Cl  Cl4       1.0  0.61600  0.22400  0.95500  1.0000
  O   O1        1.0  0.20400  0.45000  0.08630  1.0000
  O   O2        1.0  0.73000  0.14800  0.11100  1.0000
  O   O3        1.0  0.34000  0.86600  0.24800  1.0000
  O   O4        1.0  0.84200  0.86800  0.25200  1.0000
  O   O5        1.0  0.36900  0.28700  0.38900  1.0000
  O   O6        1.0  0.86700  0.61400  0.41400  1.0000
  O   O7        1.0  0.20000  0.45400  0.58600  1.0000
  O   O8        1.0  0.89800  0.98000  0.61100  1.0000
  O   O9        1.0  0.61600  0.59000  0.74800  1.0000
  O   O10       1.0  0.61800  0.09180  0.75200  1.0000
  O   O11       1.0  0.03740  0.61900  0.88900  1.0000
  O   O12       1.0  0.36400  0.11700  0.91400  1.0000
  Pb  Pb1       1.0  0.99900  0.99900  0.00000  1.0000
  Pb  Pb2       1.0  0.74900  0.24900  0.50000  1.0000
