data_image0
_chemical_formula_structural       B8Eu2Ir8
_chemical_formula_sum              "B8 Eu2 Ir8"
_cell_length_a       7.65679
_cell_length_b       7.65679
_cell_length_c       3.99295
_cell_angle_alpha    90
_cell_angle_beta     90
_cell_angle_gamma    90

_space_group_name_H-M_alt    "P 1"
_space_group_IT_number       1

loop_
  _space_group_symop_operation_xyz
  'x, y, z'

loop_
  _atom_site_type_symbol
  _atom_site_label
  _atom_site_symmetry_multiplicity
  _atom_site_fract_x
  _atom_site_fract_y
  _atom_site_fract_z
  _atom_site_occupancy
  B   B1        1.0  0.28000  0.15800  0.10900  1.0000
  B   B2        1.0  0.72000  0.84200  0.10900  1.0000
  B   B3        1.0  0.22000  0.34200  0.39100  1.0000
  B   B4        1.0  0.78000  0.65800  0.39100  1.0000
  B   B5        1.0  0.65800  0.22000  0.60900  1.0000
  B   B6        1.0  0.34200  0.78000  0.60900  1.0000
  B   B7        1.0  0.84200  0.28000  0.89100  1.0000
  B   B8        1.0  0.15800  0.72000  0.89100  1.0000
  Eu  Eu1       1.0  0.50000  0.50000  0.00000  1.0000
  Eu  Eu2       1.0  0.00000  0.00000  0.50000  1.0000
  Ir  Ir1       1.0  0.65400  0.11200  0.10800  1.0000
  Ir  Ir2       1.0  0.34600  0.88800  0.10800  1.0000
  Ir  Ir3       1.0  0.84600  0.38800  0.39200  1.0000
  Ir  Ir4       1.0  0.15400  0.61200  0.39200  1.0000
  Ir  Ir5       1.0  0.38800  0.15400  0.60800  1.0000
  Ir  Ir6       1.0  0.61200  0.84600  0.60800  1.0000
  Ir  Ir7       1.0  0.11200  0.34600  0.89200  1.0000
  Ir  Ir8       1.0  0.88800  0.65400  0.89200  1.0000
