data_image0
_chemical_formula_structural       C6O8Tl4
_chemical_formula_sum              "C6 O8 Tl4"
_cell_length_a       6.5811
_cell_length_b       7.10121
_cell_length_c       7.21959
_cell_angle_alpha    103.953
_cell_angle_beta     117.115
_cell_angle_gamma    90

_space_group_name_H-M_alt    "P 1"
_space_group_IT_number       1

loop_
  _space_group_symop_operation_xyz
  'x, y, z'

loop_
  _atom_site_type_symbol
  _atom_site_label
  _atom_site_symmetry_multiplicity
  _atom_site_fract_x
  _atom_site_fract_y
  _atom_site_fract_z
  _atom_site_occupancy
  C   C1        1.0  0.73200  0.50000  0.00000  1.0000
  C   C2        1.0  0.96900  0.50000  0.00000  1.0000
  C   C3        1.0  0.91800  0.03130  0.09830  1.0000
  C   C4        1.0  0.05510  0.10200  0.33100  1.0000
  C   C5        1.0  0.72400  0.89800  0.66900  1.0000
  C   C6        1.0  0.82000  0.96900  0.90200  1.0000
  O   O1        1.0  0.15000  0.53100  0.18000  1.0000
  O   O2        1.0  0.73400  0.56300  0.18100  1.0000
  O   O3        1.0  0.21900  0.00562  0.42000  1.0000
  O   O4        1.0  0.00751  0.25400  0.43100  1.0000
  O   O5        1.0  0.57600  0.74600  0.56900  1.0000
  O   O6        1.0  0.79900  0.99400  0.58000  1.0000
  O   O7        1.0  0.55300  0.43700  0.81900  1.0000
  O   O8        1.0  0.97000  0.46900  0.82000  1.0000
  Tl  Tl1       1.0  0.42500  0.80400  0.16800  1.0000
  Tl  Tl2       1.0  0.59500  0.33900  0.45400  1.0000
  Tl  Tl3       1.0  0.14100  0.66100  0.54600  1.0000
  Tl  Tl4       1.0  0.25700  0.19600  0.83200  1.0000
