data_image0
_chemical_formula_structural       Ga6Ni9Y3
_chemical_formula_sum              "Ga6 Ni9 Y3"
_cell_length_a       8.90202
_cell_length_b       8.90202
_cell_length_c       3.93652
_cell_angle_alpha    90
_cell_angle_beta     90
_cell_angle_gamma    119.99

_space_group_name_H-M_alt    "P 1"
_space_group_IT_number       1

loop_
  _space_group_symop_operation_xyz
  'x, y, z'

loop_
  _atom_site_type_symbol
  _atom_site_label
  _atom_site_symmetry_multiplicity
  _atom_site_fract_x
  _atom_site_fract_y
  _atom_site_fract_z
  _atom_site_occupancy
  Ga  Ga1       1.0  0.68400  0.00000  0.50000  1.0000
  Ga  Ga2       1.0  0.31600  0.00001  0.50000  1.0000
  Ga  Ga3       1.0  0.00001  0.31600  0.50000  1.0000
  Ga  Ga4       1.0  0.31600  0.31600  0.50000  1.0000
  Ga  Ga5       1.0  0.68400  0.68400  0.50000  1.0000
  Ga  Ga6       1.0  0.00000  0.68400  0.50000  1.0000
  Ni  Ni1       1.0  0.50000  0.00001  0.00000  1.0000
  Ni  Ni2       1.0  0.81900  0.18100  0.00000  1.0000
  Ni  Ni3       1.0  0.36200  0.18100  0.00000  1.0000
  Ni  Ni4       1.0  0.18100  0.36200  0.00000  1.0000
  Ni  Ni5       1.0  0.50000  0.50000  0.00000  1.0000
  Ni  Ni6       1.0  0.00001  0.50000  0.00000  1.0000
  Ni  Ni7       1.0  0.81900  0.63800  0.00000  1.0000
  Ni  Ni8       1.0  0.63800  0.81900  0.00000  1.0000
  Ni  Ni9       1.0  0.18100  0.81900  0.00000  1.0000
  Y   Y1        1.0  0.00001  0.00001  0.00000  1.0000
  Y   Y2        1.0  0.66700  0.33300  0.50000  1.0000
  Y   Y3        1.0  0.33300  0.66700  0.50000  1.0000
