data_image0
_chemical_formula_structural       Cl10Cs6Zn2
_chemical_formula_sum              "Cl10 Cs6 Zn2"
_cell_length_a       9.28984
_cell_length_b       9.28984
_cell_length_c       9.80969
_cell_angle_alpha    118.262
_cell_angle_beta     118.262
_cell_angle_gamma    90

_space_group_name_H-M_alt    "P 1"
_space_group_IT_number       1

loop_
  _space_group_symop_operation_xyz
  'x, y, z'

loop_
  _atom_site_type_symbol
  _atom_site_label
  _atom_site_symmetry_multiplicity
  _atom_site_fract_x
  _atom_site_fract_y
  _atom_site_fract_z
  _atom_site_occupancy
  Cl  Cl1       1.0  0.00000  0.00000  0.00000  1.0000
  Cl  Cl2       1.0  0.50000  0.50000  0.00000  1.0000
  Cl  Cl3       1.0  0.51800  0.01760  0.31500  1.0000
  Cl  Cl4       1.0  0.79700  0.29700  0.31500  1.0000
  Cl  Cl5       1.0  0.29700  0.51800  0.31500  1.0000
  Cl  Cl6       1.0  0.01760  0.79700  0.31500  1.0000
  Cl  Cl7       1.0  0.98200  0.20300  0.68500  1.0000
  Cl  Cl8       1.0  0.70300  0.48200  0.68500  1.0000
  Cl  Cl9       1.0  0.20300  0.70300  0.68500  1.0000
  Cl  Cl10      1.0  0.48200  0.98200  0.68500  1.0000
  Cs  Cs1       1.0  0.33400  0.16600  0.00000  1.0000
  Cs  Cs2       1.0  0.83400  0.33400  0.00000  1.0000
  Cs  Cs3       1.0  0.16600  0.66600  0.00000  1.0000
  Cs  Cs4       1.0  0.66600  0.83400  0.00000  1.0000
  Cs  Cs5       1.0  0.25000  0.25000  0.50000  1.0000
  Cs  Cs6       1.0  0.75000  0.75000  0.50000  1.0000
  Zn  Zn1       1.0  0.75000  0.25000  0.50000  1.0000
  Zn  Zn2       1.0  0.25000  0.75000  0.50000  1.0000
