data_image0
_chemical_formula_structural       Ca6Ga4N8
_chemical_formula_sum              "Ca6 Ga4 N8"
_cell_length_a       5.55307
_cell_length_b       6.75905
_cell_length_c       6.75905
_cell_angle_alpha    76.2627
_cell_angle_beta     90.7674
_cell_angle_gamma    90.7674

_space_group_name_H-M_alt    "P 1"
_space_group_IT_number       1

loop_
  _space_group_symop_operation_xyz
  'x, y, z'

loop_
  _atom_site_type_symbol
  _atom_site_label
  _atom_site_symmetry_multiplicity
  _atom_site_fract_x
  _atom_site_fract_y
  _atom_site_fract_z
  _atom_site_occupancy
  Ca  Ca1       1.0  0.95700  0.74900  0.01910  1.0000
  Ca  Ca2       1.0  0.54300  0.98100  0.25100  1.0000
  Ca  Ca3       1.0  0.25000  0.60100  0.39900  1.0000
  Ca  Ca4       1.0  0.75000  0.39900  0.60100  1.0000
  Ca  Ca5       1.0  0.45700  0.01910  0.74900  1.0000
  Ca  Ca6       1.0  0.04250  0.25100  0.98100  1.0000
  Ga  Ga1       1.0  0.59500  0.41700  0.17800  1.0000
  Ga  Ga2       1.0  0.09450  0.17800  0.41700  1.0000
  Ga  Ga3       1.0  0.90500  0.82200  0.58300  1.0000
  Ga  Ga4       1.0  0.40500  0.58300  0.82200  1.0000
  N   N1        1.0  0.48000  0.70900  0.05770  1.0000
  N   N2        1.0  0.93300  0.42600  0.26100  1.0000
  N   N3        1.0  0.02040  0.94200  0.29100  1.0000
  N   N4        1.0  0.43300  0.26100  0.42600  1.0000
  N   N5        1.0  0.56700  0.73900  0.57400  1.0000
  N   N6        1.0  0.98000  0.05770  0.70900  1.0000
  N   N7        1.0  0.06670  0.57400  0.73900  1.0000
  N   N8        1.0  0.52000  0.29100  0.94200  1.0000
