data_image0
_chemical_formula_structural       K6O8Pd4
_chemical_formula_sum              "K6 O8 Pd4"
_cell_length_a       5.49906
_cell_length_b       5.49906
_cell_length_c       11.3207
_cell_angle_alpha    90
_cell_angle_beta     90
_cell_angle_gamma    112.35

_space_group_name_H-M_alt    "P 1"
_space_group_IT_number       1

loop_
  _space_group_symop_operation_xyz
  'x, y, z'

loop_
  _atom_site_type_symbol
  _atom_site_label
  _atom_site_symmetry_multiplicity
  _atom_site_fract_x
  _atom_site_fract_y
  _atom_site_fract_z
  _atom_site_occupancy
  K   K1        1.0  0.35400  0.64600  0.06920  1.0000
  K   K2        1.0  0.71700  0.28300  0.25000  1.0000
  K   K3        1.0  0.35400  0.64600  0.43100  1.0000
  K   K4        1.0  0.64600  0.35400  0.56900  1.0000
  K   K5        1.0  0.28300  0.71700  0.75000  1.0000
  K   K6        1.0  0.64600  0.35400  0.93100  1.0000
  O   O1        1.0  0.30300  0.12800  0.11400  1.0000
  O   O2        1.0  0.87200  0.69700  0.11400  1.0000
  O   O3        1.0  0.30300  0.12800  0.38600  1.0000
  O   O4        1.0  0.87200  0.69700  0.38600  1.0000
  O   O5        1.0  0.12800  0.30300  0.61400  1.0000
  O   O6        1.0  0.69700  0.87200  0.61400  1.0000
  O   O7        1.0  0.12800  0.30300  0.88600  1.0000
  O   O8        1.0  0.69700  0.87200  0.88600  1.0000
  Pd  Pd1       1.0  0.00000  0.00000  0.00000  1.0000
  Pd  Pd2       1.0  0.07880  0.92100  0.25000  1.0000
  Pd  Pd3       1.0  0.00000  0.00000  0.50000  1.0000
  Pd  Pd4       1.0  0.92100  0.07880  0.75000  1.0000
