data_image0
_chemical_formula_structural       F12Ni4Rb2
_chemical_formula_sum              "F12 Ni4 Rb2"
_cell_length_a       6.90593
_cell_length_b       6.94756
_cell_length_c       6.94756
_cell_angle_alpha    118.637
_cell_angle_beta     119.802
_cell_angle_gamma    60.198

_space_group_name_H-M_alt    "P 1"
_space_group_IT_number       1

loop_
  _space_group_symop_operation_xyz
  'x, y, z'

loop_
  _atom_site_type_symbol
  _atom_site_label
  _atom_site_symmetry_multiplicity
  _atom_site_fract_x
  _atom_site_fract_y
  _atom_site_fract_z
  _atom_site_occupancy
  F   F1        1.0  0.32900  0.92000  0.17300  1.0000
  F   F2        1.0  0.92300  0.92000  0.17300  1.0000
  F   F3        1.0  0.92500  0.32500  0.17500  1.0000
  F   F4        1.0  0.66800  0.08210  0.41800  1.0000
  F   F5        1.0  0.07670  0.67300  0.42000  1.0000
  F   F6        1.0  0.67100  0.67300  0.42000  1.0000
  F   F7        1.0  0.32900  0.32700  0.58000  1.0000
  F   F8        1.0  0.92300  0.32700  0.58000  1.0000
  F   F9        1.0  0.33200  0.91800  0.58200  1.0000
  F   F10       1.0  0.07520  0.67500  0.82500  1.0000
  F   F11       1.0  0.07670  0.07950  0.82700  1.0000
  F   F12       1.0  0.67100  0.07950  0.82700  1.0000
  Ni  Ni1       1.0  0.00000  0.00000  0.00000  1.0000
  Ni  Ni2       1.0  0.00000  0.00000  0.50000  1.0000
  Ni  Ni3       1.0  0.50000  0.00000  0.50000  1.0000
  Ni  Ni4       1.0  0.00000  0.50000  0.50000  1.0000
  Rb  Rb1       1.0  0.37200  0.37800  0.12200  1.0000
  Rb  Rb2       1.0  0.62800  0.62200  0.87800  1.0000
