data_image0
_chemical_formula_structural       Eu6In4P8
_chemical_formula_sum              "Eu6 In4 P8"
_cell_length_a       16.0027
_cell_length_b       6.68293
_cell_length_c       4.28509
_cell_angle_alpha    90
_cell_angle_beta     90
_cell_angle_gamma    90

_space_group_name_H-M_alt    "P 1"
_space_group_IT_number       1

loop_
  _space_group_symop_operation_xyz
  'x, y, z'

loop_
  _atom_site_type_symbol
  _atom_site_label
  _atom_site_symmetry_multiplicity
  _atom_site_fract_x
  _atom_site_fract_y
  _atom_site_fract_z
  _atom_site_occupancy
  Eu  Eu1       1.0  0.30200  0.20700  0.00000  1.0000
  Eu  Eu2       1.0  0.50000  0.50000  0.00000  1.0000
  Eu  Eu3       1.0  0.69800  0.79300  0.00000  1.0000
  Eu  Eu4       1.0  0.00000  0.00000  0.50000  1.0000
  Eu  Eu5       1.0  0.80200  0.29300  0.50000  1.0000
  Eu  Eu6       1.0  0.19800  0.70700  0.50000  1.0000
  In  In1       1.0  0.08700  0.36100  0.00000  1.0000
  In  In2       1.0  0.91300  0.63900  0.00000  1.0000
  In  In3       1.0  0.58700  0.13900  0.50000  1.0000
  In  In4       1.0  0.41300  0.86100  0.50000  1.0000
  P   P1        1.0  0.93000  0.25300  0.00000  1.0000
  P   P2        1.0  0.67000  0.26200  0.00000  1.0000
  P   P3        1.0  0.33000  0.73800  0.00000  1.0000
  P   P4        1.0  0.07000  0.74700  0.00000  1.0000
  P   P5        1.0  0.17000  0.23800  0.50000  1.0000
  P   P6        1.0  0.43000  0.24700  0.50000  1.0000
  P   P7        1.0  0.57000  0.75300  0.50000  1.0000
  P   P8        1.0  0.83000  0.76200  0.50000  1.0000
