data_image0
_chemical_formula_structural       Mo2O12Rh4
_chemical_formula_sum              "Mo2 O12 Rh4"
_cell_length_a       4.61405
_cell_length_b       4.61405
_cell_length_c       9.16102
_cell_angle_alpha    90
_cell_angle_beta     90
_cell_angle_gamma    90

_space_group_name_H-M_alt    "P 1"
_space_group_IT_number       1

loop_
  _space_group_symop_operation_xyz
  'x, y, z'

loop_
  _atom_site_type_symbol
  _atom_site_label
  _atom_site_symmetry_multiplicity
  _atom_site_fract_x
  _atom_site_fract_y
  _atom_site_fract_z
  _atom_site_occupancy
  Mo  Mo1       1.0  0.00000  0.00000  0.00000  1.0000
  Mo  Mo2       1.0  0.50000  0.50000  0.50000  1.0000
  O   O1        1.0  0.30300  0.30300  0.00000  1.0000
  O   O2        1.0  0.69700  0.69700  0.00000  1.0000
  O   O3        1.0  0.80300  0.19700  0.15800  1.0000
  O   O4        1.0  0.19700  0.80300  0.15800  1.0000
  O   O5        1.0  0.30300  0.30300  0.34200  1.0000
  O   O6        1.0  0.69700  0.69700  0.34200  1.0000
  O   O7        1.0  0.80300  0.19700  0.50000  1.0000
  O   O8        1.0  0.19700  0.80300  0.50000  1.0000
  O   O9        1.0  0.30300  0.30300  0.65800  1.0000
  O   O10       1.0  0.69700  0.69700  0.65800  1.0000
  O   O11       1.0  0.80300  0.19700  0.84200  1.0000
  O   O12       1.0  0.19700  0.80300  0.84200  1.0000
  Rh  Rh1       1.0  0.50000  0.50000  0.16900  1.0000
  Rh  Rh2       1.0  0.00000  0.00000  0.33100  1.0000
  Rh  Rh3       1.0  0.00000  0.00000  0.66900  1.0000
  Rh  Rh4       1.0  0.50000  0.50000  0.83100  1.0000
