data_image0
_chemical_formula_structural       B4Cd4O10
_chemical_formula_sum              "B4 Cd4 O10"
_cell_length_a       6.34308
_cell_length_b       9.98928
_cell_length_c       3.44518
_cell_angle_alpha    90.5271
_cell_angle_beta     92.4417
_cell_angle_gamma    105.493

_space_group_name_H-M_alt    "P 1"
_space_group_IT_number       1

loop_
  _space_group_symop_operation_xyz
  'x, y, z'

loop_
  _atom_site_type_symbol
  _atom_site_label
  _atom_site_symmetry_multiplicity
  _atom_site_fract_x
  _atom_site_fract_y
  _atom_site_fract_z
  _atom_site_occupancy
  B   B1        1.0  0.21800  0.27500  0.52400  1.0000
  B   B2        1.0  0.67000  0.74800  0.54000  1.0000
  B   B3        1.0  0.01480  0.43600  0.87500  1.0000
  B   B4        1.0  0.47000  0.91000  0.89800  1.0000
  Cd  Cd1       1.0  0.99900  0.00078  0.98800  1.0000
  Cd  Cd2       1.0  0.68700  0.18300  0.43800  1.0000
  Cd  Cd3       1.0  0.11900  0.71600  0.45600  1.0000
  Cd  Cd4       1.0  0.56900  0.46900  0.95300  1.0000
  O   O1        1.0  0.26500  0.89400  0.02810  1.0000
  O   O2        1.0  0.42300  0.29200  0.39500  1.0000
  O   O3        1.0  0.63400  0.61100  0.45800  1.0000
  O   O4        1.0  0.04990  0.15700  0.48500  1.0000
  O   O5        1.0  0.86800  0.84200  0.48800  1.0000
  O   O6        1.0  0.49600  0.79000  0.70000  1.0000
  O   O7        1.0  0.19000  0.39500  0.71600  1.0000
  O   O8        1.0  0.82000  0.34100  0.93800  1.0000
  O   O9        1.0  0.64000  0.02750  0.94100  1.0000
  O   O10       1.0  0.04400  0.57400  0.94700  1.0000
