data_image0
_chemical_formula_structural       Na8O8Sn2
_chemical_formula_sum              "Na8 O8 Sn2"
_cell_length_a       8.80166
_cell_length_b       6.60105
_cell_length_c       5.87142
_cell_angle_alpha    124.421
_cell_angle_beta     97.9376
_cell_angle_gamma    99.4631

_space_group_name_H-M_alt    "P 1"
_space_group_IT_number       1

loop_
  _space_group_symop_operation_xyz
  'x, y, z'

loop_
  _atom_site_type_symbol
  _atom_site_label
  _atom_site_symmetry_multiplicity
  _atom_site_fract_x
  _atom_site_fract_y
  _atom_site_fract_z
  _atom_site_occupancy
  Na  Na1       1.0  0.19500  0.88800  0.16500  1.0000
  Na  Na2       1.0  0.56600  0.02090  0.28400  1.0000
  Na  Na3       1.0  0.59800  0.56000  0.31300  1.0000
  Na  Na4       1.0  0.99100  0.25500  0.49800  1.0000
  Na  Na5       1.0  0.00871  0.74500  0.50200  1.0000
  Na  Na6       1.0  0.40200  0.44000  0.68700  1.0000
  Na  Na7       1.0  0.43400  0.97900  0.71600  1.0000
  Na  Na8       1.0  0.80500  0.11200  0.83500  1.0000
  O   O1        1.0  0.38100  0.19900  0.18700  1.0000
  O   O2        1.0  0.04040  0.35100  0.19300  1.0000
  O   O3        1.0  0.37300  0.68100  0.20000  1.0000
  O   O4        1.0  0.80600  0.87800  0.36100  1.0000
  O   O5        1.0  0.19400  0.12200  0.63900  1.0000
  O   O6        1.0  0.62700  0.31900  0.80000  1.0000
  O   O7        1.0  0.96000  0.64900  0.80700  1.0000
  O   O8        1.0  0.61900  0.80100  0.81300  1.0000
  Sn  Sn1       1.0  0.23400  0.34200  0.06400  1.0000
  Sn  Sn2       1.0  0.76600  0.65800  0.93600  1.0000
