data_image0
_chemical_formula_structural       Li2Nb2O12W2
_chemical_formula_sum              "Li2 Nb2 O12 W2"
_cell_length_a       4.69491
_cell_length_b       4.69491
_cell_length_c       9.21173
_cell_angle_alpha    90
_cell_angle_beta     90
_cell_angle_gamma    90

_space_group_name_H-M_alt    "P 1"
_space_group_IT_number       1

loop_
  _space_group_symop_operation_xyz
  'x, y, z'

loop_
  _atom_site_type_symbol
  _atom_site_label
  _atom_site_symmetry_multiplicity
  _atom_site_fract_x
  _atom_site_fract_y
  _atom_site_fract_z
  _atom_site_occupancy
  Li  Li1       1.0  0.00000  0.50000  0.42100  1.0000
  Li  Li2       1.0  0.50000  0.00000  0.57900  1.0000
  Nb  Nb1       1.0  0.00000  0.50000  0.09220  1.0000
  Nb  Nb2       1.0  0.50000  0.00000  0.90800  1.0000
  O   O1        1.0  0.69500  0.19500  0.08220  1.0000
  O   O2        1.0  0.30500  0.80500  0.08220  1.0000
  O   O3        1.0  0.21300  0.28700  0.23400  1.0000
  O   O4        1.0  0.78700  0.71300  0.23400  1.0000
  O   O5        1.0  0.70200  0.20200  0.39900  1.0000
  O   O6        1.0  0.29800  0.79800  0.39900  1.0000
  O   O7        1.0  0.20200  0.29800  0.60100  1.0000
  O   O8        1.0  0.79800  0.70200  0.60100  1.0000
  O   O9        1.0  0.71300  0.21300  0.76600  1.0000
  O   O10       1.0  0.28700  0.78700  0.76600  1.0000
  O   O11       1.0  0.19500  0.30500  0.91800  1.0000
  O   O12       1.0  0.80500  0.69500  0.91800  1.0000
  W   W1        1.0  0.50000  0.00000  0.27500  1.0000
  W   W2        1.0  0.00000  0.50000  0.72500  1.0000
