data_image0
_chemical_formula_structural       Cl3Cu3O6Sr6
_chemical_formula_sum              "Cl3 Cu3 O6 Sr6"
_cell_length_a       3.99423
_cell_length_b       3.99423
_cell_length_c       27.6224
_cell_angle_alpha    90
_cell_angle_beta     90
_cell_angle_gamma    120

_space_group_name_H-M_alt    "P 1"
_space_group_IT_number       1

loop_
  _space_group_symop_operation_xyz
  'x, y, z'

loop_
  _atom_site_type_symbol
  _atom_site_label
  _atom_site_symmetry_multiplicity
  _atom_site_fract_x
  _atom_site_fract_y
  _atom_site_fract_z
  _atom_site_occupancy
  Cl  Cl1       1.0  0.00000  0.34900  0.16700  1.0000
  Cl  Cl2       1.0  0.65100  0.65100  0.50000  1.0000
  Cl  Cl3       1.0  0.34900  0.00000  0.83300  1.0000
  Cu  Cu1       1.0  0.67700  0.67700  0.00000  1.0000
  Cu  Cu2       1.0  0.32300  0.00000  0.33300  1.0000
  Cu  Cu3       1.0  0.00001  0.32300  0.66700  1.0000
  O   O1        1.0  0.67300  0.67900  0.06530  1.0000
  O   O2        1.0  0.32700  0.00659  0.26800  1.0000
  O   O3        1.0  0.32100  0.99300  0.39900  1.0000
  O   O4        1.0  0.99300  0.32000  0.60100  1.0000
  O   O5        1.0  0.00659  0.32700  0.73200  1.0000
  O   O6        1.0  0.68000  0.67300  0.93500  1.0000
  Sr  Sr1       1.0  0.34100  0.01300  0.08980  1.0000
  Sr  Sr2       1.0  0.65900  0.67200  0.24400  1.0000
  Sr  Sr3       1.0  0.98700  0.32800  0.42300  1.0000
  Sr  Sr4       1.0  0.32800  0.98700  0.57700  1.0000
  Sr  Sr5       1.0  0.67200  0.65900  0.75600  1.0000
  Sr  Sr6       1.0  0.01300  0.34100  0.91000  1.0000
