data_image0
_chemical_formula_structural       Ba6In4P8
_chemical_formula_sum              "Ba6 In4 P8"
_cell_length_a       7.16246
_cell_length_b       8.9478
_cell_length_c       8.9478
_cell_angle_alpha    75.6704
_cell_angle_beta     90.0626
_cell_angle_gamma    90.0626

_space_group_name_H-M_alt    "P 1"
_space_group_IT_number       1

loop_
  _space_group_symop_operation_xyz
  'x, y, z'

loop_
  _atom_site_type_symbol
  _atom_site_label
  _atom_site_symmetry_multiplicity
  _atom_site_fract_x
  _atom_site_fract_y
  _atom_site_fract_z
  _atom_site_occupancy
  Ba  Ba1       1.0  0.95600  0.74700  0.00622  1.0000
  Ba  Ba2       1.0  0.54400  0.99400  0.25300  1.0000
  Ba  Ba3       1.0  0.25000  0.59800  0.40200  1.0000
  Ba  Ba4       1.0  0.75000  0.40200  0.59800  1.0000
  Ba  Ba5       1.0  0.45600  0.00622  0.74700  1.0000
  Ba  Ba6       1.0  0.04440  0.25300  0.99400  1.0000
  In  In1       1.0  0.58400  0.41900  0.17400  1.0000
  In  In2       1.0  0.08390  0.17400  0.41900  1.0000
  In  In3       1.0  0.91600  0.82600  0.58100  1.0000
  In  In4       1.0  0.41600  0.58100  0.82600  1.0000
  P   P1        1.0  0.47300  0.70900  0.05860  1.0000
  P   P2        1.0  0.93100  0.42800  0.25700  1.0000
  P   P3        1.0  0.02750  0.94100  0.29100  1.0000
  P   P4        1.0  0.43100  0.25700  0.42800  1.0000
  P   P5        1.0  0.56900  0.74300  0.57200  1.0000
  P   P6        1.0  0.97300  0.05860  0.70900  1.0000
  P   P7        1.0  0.06870  0.57200  0.74300  1.0000
  P   P8        1.0  0.52700  0.29100  0.94100  1.0000
