data_image0
_chemical_formula_structural       Cu4K6O8
_chemical_formula_sum              "Cu4 K6 O8"
_cell_length_a       5.37447
_cell_length_b       5.37447
_cell_length_c       10.8441
_cell_angle_alpha    90
_cell_angle_beta     90
_cell_angle_gamma    111.18

_space_group_name_H-M_alt    "P 1"
_space_group_IT_number       1

loop_
  _space_group_symop_operation_xyz
  'x, y, z'

loop_
  _atom_site_type_symbol
  _atom_site_label
  _atom_site_symmetry_multiplicity
  _atom_site_fract_x
  _atom_site_fract_y
  _atom_site_fract_z
  _atom_site_occupancy
  Cu  Cu1       1.0  0.00000  0.00000  0.00000  1.0000
  Cu  Cu2       1.0  0.06280  0.93700  0.25000  1.0000
  Cu  Cu3       1.0  0.00000  0.00000  0.50000  1.0000
  Cu  Cu4       1.0  0.93700  0.06280  0.75000  1.0000
  K   K1        1.0  0.34600  0.65400  0.07020  1.0000
  K   K2        1.0  0.70800  0.29200  0.25000  1.0000
  K   K3        1.0  0.34600  0.65400  0.43000  1.0000
  K   K4        1.0  0.65400  0.34600  0.57000  1.0000
  K   K5        1.0  0.29200  0.70800  0.75000  1.0000
  K   K6        1.0  0.65400  0.34600  0.93000  1.0000
  O   O1        1.0  0.26900  0.14500  0.11800  1.0000
  O   O2        1.0  0.85500  0.73100  0.11800  1.0000
  O   O3        1.0  0.26900  0.14500  0.38200  1.0000
  O   O4        1.0  0.85500  0.73100  0.38200  1.0000
  O   O5        1.0  0.14500  0.26900  0.61800  1.0000
  O   O6        1.0  0.73100  0.85500  0.61800  1.0000
  O   O7        1.0  0.14500  0.26900  0.88200  1.0000
  O   O8        1.0  0.73100  0.85500  0.88200  1.0000
