data_image0
_chemical_formula_structural       Ge8U10
_chemical_formula_sum              "Ge8 U10"
_cell_length_a       8.57967
_cell_length_b       8.57967
_cell_length_c       5.81098
_cell_angle_alpha    90
_cell_angle_beta     90
_cell_angle_gamma    119.999

_space_group_name_H-M_alt    "P 1"
_space_group_IT_number       1

loop_
  _space_group_symop_operation_xyz
  'x, y, z'

loop_
  _atom_site_type_symbol
  _atom_site_label
  _atom_site_symmetry_multiplicity
  _atom_site_fract_x
  _atom_site_fract_y
  _atom_site_fract_z
  _atom_site_occupancy
  Ge  Ge1       1.0  0.00000  0.00000  0.00000  1.0000
  Ge  Ge2       1.0  0.62900  0.00001  0.25000  1.0000
  Ge  Ge3       1.0  0.00000  0.62900  0.25000  1.0000
  Ge  Ge4       1.0  0.37100  0.37100  0.25000  1.0000
  Ge  Ge5       1.0  0.00000  0.00000  0.50000  1.0000
  Ge  Ge6       1.0  0.37100  0.00000  0.75000  1.0000
  Ge  Ge7       1.0  0.00000  0.37100  0.75000  1.0000
  Ge  Ge8       1.0  0.62900  0.62900  0.75000  1.0000
  U   U1        1.0  0.66700  0.33300  0.00000  1.0000
  U   U2        1.0  0.33300  0.66700  0.00000  1.0000
  U   U3        1.0  0.29200  0.00001  0.25000  1.0000
  U   U4        1.0  0.00001  0.29200  0.25000  1.0000
  U   U5        1.0  0.70800  0.70800  0.25000  1.0000
  U   U6        1.0  0.66700  0.33300  0.50000  1.0000
  U   U7        1.0  0.33300  0.66700  0.50000  1.0000
  U   U8        1.0  0.70800  0.00000  0.75000  1.0000
  U   U9        1.0  0.00000  0.70800  0.75000  1.0000
  U   U10       1.0  0.29200  0.29200  0.75000  1.0000
