data_image0
_chemical_formula_structural       Ga12Ir6
_chemical_formula_sum              "Ga12 Ir6"
_cell_length_a       3.9337
_cell_length_b       6.84043
_cell_length_c       10.9776
_cell_angle_alpha    90
_cell_angle_beta     90
_cell_angle_gamma    73.2897

_space_group_name_H-M_alt    "P 1"
_space_group_IT_number       1

loop_
  _space_group_symop_operation_xyz
  'x, y, z'

loop_
  _atom_site_type_symbol
  _atom_site_label
  _atom_site_symmetry_multiplicity
  _atom_site_fract_x
  _atom_site_fract_y
  _atom_site_fract_z
  _atom_site_occupancy
  Ga  Ga1       1.0  0.82200  0.35700  0.01730  1.0000
  Ga  Ga2       1.0  0.44100  0.11700  0.10600  1.0000
  Ga  Ga3       1.0  0.23400  0.53200  0.25000  1.0000
  Ga  Ga4       1.0  0.04050  0.91900  0.25000  1.0000
  Ga  Ga5       1.0  0.44100  0.11700  0.39400  1.0000
  Ga  Ga6       1.0  0.82200  0.35700  0.48300  1.0000
  Ga  Ga7       1.0  0.17800  0.64300  0.51700  1.0000
  Ga  Ga8       1.0  0.55900  0.88300  0.60600  1.0000
  Ga  Ga9       1.0  0.96000  0.08090  0.75000  1.0000
  Ga  Ga10      1.0  0.76600  0.46800  0.75000  1.0000
  Ga  Ga11      1.0  0.55900  0.88300  0.89400  1.0000
  Ga  Ga12      1.0  0.17800  0.64300  0.98300  1.0000
  Ir  Ir1       1.0  0.64000  0.71900  0.12300  1.0000
  Ir  Ir2       1.0  0.85100  0.29800  0.25000  1.0000
  Ir  Ir3       1.0  0.64000  0.71900  0.37700  1.0000
  Ir  Ir4       1.0  0.36000  0.28100  0.62300  1.0000
  Ir  Ir5       1.0  0.14900  0.70200  0.75000  1.0000
  Ir  Ir6       1.0  0.36000  0.28100  0.87700  1.0000
