data_image0
_chemical_formula_structural       As12Ba6
_chemical_formula_sum              "As12 Ba6"
_cell_length_a       6.66416
_cell_length_b       12.7156
_cell_length_c       8.18707
_cell_angle_alpha    90
_cell_angle_beta     127.933
_cell_angle_gamma    90

_space_group_name_H-M_alt    "P 1"
_space_group_IT_number       1

loop_
  _space_group_symop_operation_xyz
  'x, y, z'

loop_
  _atom_site_type_symbol
  _atom_site_label
  _atom_site_symmetry_multiplicity
  _atom_site_fract_x
  _atom_site_fract_y
  _atom_site_fract_z
  _atom_site_occupancy
  As  As1       1.0  0.38400  0.34300  0.99900  1.0000
  As  As2       1.0  0.00485  0.01230  0.01060  1.0000
  As  As3       1.0  0.21200  0.84600  0.03730  1.0000
  As  As4       1.0  0.25800  0.15900  0.24700  1.0000
  As  As5       1.0  0.53000  0.61000  0.28700  1.0000
  As  As6       1.0  0.67300  0.42300  0.34400  1.0000
  As  As7       1.0  0.38400  0.65700  0.49900  1.0000
  As  As8       1.0  0.00485  0.98800  0.51100  1.0000
  As  As9       1.0  0.21200  0.15400  0.53700  1.0000
  As  As10      1.0  0.25800  0.84100  0.74700  1.0000
  As  As11      1.0  0.53000  0.39000  0.78700  1.0000
  As  As12      1.0  0.67300  0.57700  0.84400  1.0000
  Ba  Ba1       1.0  0.55300  0.08110  0.04440  1.0000
  Ba  Ba2       1.0  0.82700  0.77400  0.18100  1.0000
  Ba  Ba3       1.0  0.10400  0.42400  0.25000  1.0000
  Ba  Ba4       1.0  0.55300  0.91900  0.54400  1.0000
  Ba  Ba5       1.0  0.82700  0.22600  0.68100  1.0000
  Ba  Ba6       1.0  0.10400  0.57600  0.75000  1.0000
