data_image0
_chemical_formula_structural       BiNi2O10Sr5
_chemical_formula_sum              "Bi1 Ni2 O10 Sr5"
_cell_length_a       9.65662
_cell_length_b       5.29164
_cell_length_c       5.29164
_cell_angle_alpha    90
_cell_angle_beta     105.902
_cell_angle_gamma    105.902

_space_group_name_H-M_alt    "P 1"
_space_group_IT_number       1

loop_
  _space_group_symop_operation_xyz
  'x, y, z'

loop_
  _atom_site_type_symbol
  _atom_site_label
  _atom_site_symmetry_multiplicity
  _atom_site_fract_x
  _atom_site_fract_y
  _atom_site_fract_z
  _atom_site_occupancy
  Bi  Bi1       1.0  0.00000  0.50000  0.50000  1.0000
  Ni  Ni1       1.0  0.49000  0.24500  0.24500  1.0000
  Ni  Ni2       1.0  0.51000  0.75500  0.75500  1.0000
  O   O1        1.0  0.00000  0.50000  0.00000  1.0000
  O   O2        1.0  0.50000  0.00000  0.00000  1.0000
  O   O3        1.0  0.50000  0.50000  0.00000  1.0000
  O   O4        1.0  0.26500  0.13300  0.13300  1.0000
  O   O5        1.0  0.75400  0.37700  0.37700  1.0000
  O   O6        1.0  0.00000  0.00000  0.50000  1.0000
  O   O7        1.0  0.50000  0.00000  0.50000  1.0000
  O   O8        1.0  0.50000  0.50000  0.50000  1.0000
  O   O9        1.0  0.24600  0.62300  0.62300  1.0000
  O   O10       1.0  0.73500  0.86700  0.86700  1.0000
  Sr  Sr1       1.0  0.00000  0.00000  0.00000  1.0000
  Sr  Sr2       1.0  0.30000  0.65000  0.15000  1.0000
  Sr  Sr3       1.0  0.70000  0.85000  0.35000  1.0000
  Sr  Sr4       1.0  0.30000  0.15000  0.65000  1.0000
  Sr  Sr5       1.0  0.70000  0.35000  0.85000  1.0000
