data_image0
_chemical_formula_structural       Ca8N8Ti2
_chemical_formula_sum              "Ca8 N8 Ti2"
_cell_length_a       5.96302
_cell_length_b       5.99998
_cell_length_c       8.95441
_cell_angle_alpha    71.5872
_cell_angle_beta     79.3504
_cell_angle_gamma    68.0957

_space_group_name_H-M_alt    "P 1"
_space_group_IT_number       1

loop_
  _space_group_symop_operation_xyz
  'x, y, z'

loop_
  _atom_site_type_symbol
  _atom_site_label
  _atom_site_symmetry_multiplicity
  _atom_site_fract_x
  _atom_site_fract_y
  _atom_site_fract_z
  _atom_site_occupancy
  Ca  Ca1       1.0  0.26400  0.77200  0.01880  1.0000
  Ca  Ca2       1.0  0.77500  0.57900  0.17600  1.0000
  Ca  Ca3       1.0  0.76500  0.04540  0.39300  1.0000
  Ca  Ca4       1.0  0.27100  0.52000  0.42600  1.0000
  Ca  Ca5       1.0  0.72900  0.48000  0.57400  1.0000
  Ca  Ca6       1.0  0.23500  0.95500  0.60700  1.0000
  Ca  Ca7       1.0  0.22500  0.42100  0.82400  1.0000
  Ca  Ca8       1.0  0.73600  0.22800  0.98100  1.0000
  N   N1        1.0  0.11400  0.16900  0.07210  1.0000
  N   N2        1.0  0.48300  0.36800  0.19600  1.0000
  N   N3        1.0  0.49000  0.82200  0.36400  1.0000
  N   N4        1.0  0.02780  0.29200  0.39200  1.0000
  N   N5        1.0  0.97200  0.70800  0.60800  1.0000
  N   N6        1.0  0.51000  0.17800  0.63600  1.0000
  N   N7        1.0  0.51700  0.63200  0.80400  1.0000
  N   N8        1.0  0.88600  0.83100  0.92800  1.0000
  Ti  Ti1       1.0  0.28400  0.15200  0.24400  1.0000
  Ti  Ti2       1.0  0.71600  0.84800  0.75600  1.0000
