data_image0
_chemical_formula_structural       Ga2Mn2O10Sr4
_chemical_formula_sum              "Ga2 Mn2 O10 Sr4"
_cell_length_a       5.41281
_cell_length_b       5.58498
_cell_length_c       8.89332
_cell_angle_alpha    108.3
_cell_angle_beta     107.717
_cell_angle_gamma    90

_space_group_name_H-M_alt    "P 1"
_space_group_IT_number       1

loop_
  _space_group_symop_operation_xyz
  'x, y, z'

loop_
  _atom_site_type_symbol
  _atom_site_label
  _atom_site_symmetry_multiplicity
  _atom_site_fract_x
  _atom_site_fract_y
  _atom_site_fract_z
  _atom_site_occupancy
  Ga  Ga1       1.0  0.21700  0.31900  0.50000  1.0000
  Ga  Ga2       1.0  0.71700  0.68100  0.50000  1.0000
  Mn  Mn1       1.0  0.00605  0.00000  0.00000  1.0000
  Mn  Mn2       1.0  0.50600  0.50000  0.00000  1.0000
  O   O1        1.0  0.76100  0.25400  0.01380  1.0000
  O   O2        1.0  0.26100  0.25900  0.01380  1.0000
  O   O3        1.0  0.17200  0.09480  0.28900  1.0000
  O   O4        1.0  0.67200  0.69400  0.28900  1.0000
  O   O5        1.0  0.87000  0.37600  0.50000  1.0000
  O   O6        1.0  0.37000  0.62400  0.50000  1.0000
  O   O7        1.0  0.38300  0.30600  0.71100  1.0000
  O   O8        1.0  0.88300  0.90500  0.71100  1.0000
  O   O9        1.0  0.24700  0.74100  0.98600  1.0000
  O   O10       1.0  0.74700  0.74600  0.98600  1.0000
  Sr  Sr1       1.0  0.61300  0.09510  0.22200  1.0000
  Sr  Sr2       1.0  0.11300  0.62700  0.22200  1.0000
  Sr  Sr3       1.0  0.89000  0.37300  0.77800  1.0000
  Sr  Sr4       1.0  0.39000  0.90500  0.77800  1.0000
