data_image0
_chemical_formula_structural       Ga2In2O10Zn4
_chemical_formula_sum              "Ga2 In2 O10 Zn4"
_cell_length_a       3.30752
_cell_length_b       3.30754
_cell_length_c       22.5329
_cell_angle_alpha    90
_cell_angle_beta     90
_cell_angle_gamma    120

_space_group_name_H-M_alt    "P 1"
_space_group_IT_number       1

loop_
  _space_group_symop_operation_xyz
  'x, y, z'

loop_
  _atom_site_type_symbol
  _atom_site_label
  _atom_site_symmetry_multiplicity
  _atom_site_fract_x
  _atom_site_fract_y
  _atom_site_fract_z
  _atom_site_occupancy
  Ga  Ga1       1.0  0.00002  0.00005  0.25000  1.0000
  Ga  Ga2       1.0  0.00000  0.00000  0.75000  1.0000
  In  In1       1.0  0.00000  0.00000  0.00000  1.0000
  In  In2       1.0  0.00000  0.00000  0.50000  1.0000
  O   O1        1.0  0.66700  0.33300  0.04820  1.0000
  O   O2        1.0  0.00001  0.00002  0.16200  1.0000
  O   O3        1.0  0.66700  0.33300  0.25000  1.0000
  O   O4        1.0  0.00001  0.00002  0.33800  1.0000
  O   O5        1.0  0.66700  0.33300  0.45200  1.0000
  O   O6        1.0  0.33300  0.66700  0.54800  1.0000
  O   O7        1.0  0.00000  0.00000  0.66200  1.0000
  O   O8        1.0  0.33300  0.66700  0.75000  1.0000
  O   O9        1.0  0.00000  0.00000  0.83800  1.0000
  O   O10       1.0  0.33300  0.66700  0.95200  1.0000
  Zn  Zn1       1.0  0.66700  0.33300  0.13500  1.0000
  Zn  Zn2       1.0  0.66700  0.33300  0.36500  1.0000
  Zn  Zn3       1.0  0.33300  0.66700  0.63500  1.0000
  Zn  Zn4       1.0  0.33300  0.66700  0.86500  1.0000
