data_image0
_chemical_formula_structural       Ag8Rb4S6
_chemical_formula_sum              "Ag8 Rb4 S6"
_cell_length_a       4.33108
_cell_length_b       9.36475
_cell_length_c       11.9735
_cell_angle_alpha    108.125
_cell_angle_beta     90
_cell_angle_gamma    103.37

_space_group_name_H-M_alt    "P 1"
_space_group_IT_number       1

loop_
  _space_group_symop_operation_xyz
  'x, y, z'

loop_
  _atom_site_type_symbol
  _atom_site_label
  _atom_site_symmetry_multiplicity
  _atom_site_fract_x
  _atom_site_fract_y
  _atom_site_fract_z
  _atom_site_occupancy
  Ag  Ag1       1.0  0.58800  0.17700  0.00841  1.0000
  Ag  Ag2       1.0  0.01900  0.03790  0.13300  1.0000
  Ag  Ag3       1.0  0.01280  0.02550  0.37500  1.0000
  Ag  Ag4       1.0  0.41400  0.82900  0.41600  1.0000
  Ag  Ag5       1.0  0.58600  0.17100  0.58400  1.0000
  Ag  Ag6       1.0  0.98700  0.97400  0.62500  1.0000
  Ag  Ag7       1.0  0.98100  0.96200  0.86700  1.0000
  Ag  Ag8       1.0  0.41200  0.82300  0.99200  1.0000
  Rb  Rb1       1.0  0.81200  0.62500  0.15800  1.0000
  Rb  Rb2       1.0  0.66800  0.33600  0.34100  1.0000
  Rb  Rb3       1.0  0.33200  0.66400  0.65900  1.0000
  Rb  Rb4       1.0  0.18800  0.37500  0.84200  1.0000
  S   S1        1.0  0.15300  0.30500  0.10700  1.0000
  S   S2        1.0  0.46700  0.93400  0.22600  1.0000
  S   S3        1.0  0.86100  0.72100  0.45800  1.0000
  S   S4        1.0  0.13900  0.27900  0.54200  1.0000
  S   S5        1.0  0.53300  0.06600  0.77400  1.0000
  S   S6        1.0  0.84700  0.69500  0.89300  1.0000
