data_image0
_chemical_formula_structural       Au4Lu10Te4
_chemical_formula_sum              "Au4 Lu10 Te4"
_cell_length_a       7.79935
_cell_length_b       7.7967
_cell_length_c       8.50338
_cell_angle_alpha    90
_cell_angle_beta     62.703
_cell_angle_gamma    90

_space_group_name_H-M_alt    "P 1"
_space_group_IT_number       1

loop_
  _space_group_symop_operation_xyz
  'x, y, z'

loop_
  _atom_site_type_symbol
  _atom_site_label
  _atom_site_symmetry_multiplicity
  _atom_site_fract_x
  _atom_site_fract_y
  _atom_site_fract_z
  _atom_site_occupancy
  Au  Au1       1.0  0.36300  0.13500  0.00000  1.0000
  Au  Au2       1.0  0.86300  0.36500  0.00000  1.0000
  Au  Au3       1.0  0.13700  0.63500  0.00000  1.0000
  Au  Au4       1.0  0.63700  0.86500  0.00000  1.0000
  Lu  Lu1       1.0  0.00000  0.00000  0.00000  1.0000
  Lu  Lu2       1.0  0.50000  0.50000  0.00000  1.0000
  Lu  Lu3       1.0  0.54000  0.16100  0.24400  1.0000
  Lu  Lu4       1.0  0.04010  0.33900  0.24400  1.0000
  Lu  Lu5       1.0  0.71600  0.66100  0.24400  1.0000
  Lu  Lu6       1.0  0.21600  0.83900  0.24400  1.0000
  Lu  Lu7       1.0  0.78400  0.16100  0.75600  1.0000
  Lu  Lu8       1.0  0.28400  0.33900  0.75600  1.0000
  Lu  Lu9       1.0  0.96000  0.66100  0.75600  1.0000
  Lu  Lu10      1.0  0.46000  0.83900  0.75600  1.0000
  Te  Te1       1.0  0.79200  0.00000  0.41700  1.0000
  Te  Te2       1.0  0.29200  0.50000  0.41700  1.0000
  Te  Te3       1.0  0.20800  0.00000  0.58300  1.0000
  Te  Te4       1.0  0.70800  0.50000  0.58300  1.0000
