data_image0
_chemical_formula_structural       Dy3Ga9Ni6
_chemical_formula_sum              "Dy3 Ga9 Ni6"
_cell_length_a       8.9775
_cell_length_b       8.9775
_cell_length_c       4.06089
_cell_angle_alpha    90
_cell_angle_beta     90
_cell_angle_gamma    119.998

_space_group_name_H-M_alt    "P 1"
_space_group_IT_number       1

loop_
  _space_group_symop_operation_xyz
  'x, y, z'

loop_
  _atom_site_type_symbol
  _atom_site_label
  _atom_site_symmetry_multiplicity
  _atom_site_fract_x
  _atom_site_fract_y
  _atom_site_fract_z
  _atom_site_occupancy
  Dy  Dy1       1.0  0.66700  0.33300  0.00000  1.0000
  Dy  Dy2       1.0  0.33300  0.66700  0.00000  1.0000
  Dy  Dy3       1.0  0.00000  0.00000  0.50000  1.0000
  Ga  Ga1       1.0  0.29300  0.00000  0.00000  1.0000
  Ga  Ga2       1.0  0.70700  0.00001  0.00000  1.0000
  Ga  Ga3       1.0  0.29300  0.29300  0.00000  1.0000
  Ga  Ga4       1.0  0.00000  0.29300  0.00000  1.0000
  Ga  Ga5       1.0  0.70700  0.70700  0.00000  1.0000
  Ga  Ga6       1.0  0.00001  0.70700  0.00000  1.0000
  Ga  Ga7       1.0  0.50000  0.00000  0.50000  1.0000
  Ga  Ga8       1.0  0.00000  0.50000  0.50000  1.0000
  Ga  Ga9       1.0  0.50000  0.50000  0.50000  1.0000
  Ni  Ni1       1.0  0.36800  0.18400  0.50000  1.0000
  Ni  Ni2       1.0  0.81600  0.18400  0.50000  1.0000
  Ni  Ni3       1.0  0.18400  0.36800  0.50000  1.0000
  Ni  Ni4       1.0  0.81600  0.63200  0.50000  1.0000
  Ni  Ni5       1.0  0.63200  0.81600  0.50000  1.0000
  Ni  Ni6       1.0  0.18400  0.81600  0.50000  1.0000
