data_image0
_chemical_formula_structural       Si8Ti6U4
_chemical_formula_sum              "Si8 Ti6 U4"
_cell_length_a       6.86211
_cell_length_b       6.83464
_cell_length_c       6.96403
_cell_angle_alpha    90
_cell_angle_beta     110.77
_cell_angle_gamma    90

_space_group_name_H-M_alt    "P 1"
_space_group_IT_number       1

loop_
  _space_group_symop_operation_xyz
  'x, y, z'

loop_
  _atom_site_type_symbol
  _atom_site_label
  _atom_site_symmetry_multiplicity
  _atom_site_fract_x
  _atom_site_fract_y
  _atom_site_fract_z
  _atom_site_occupancy
  Si  Si1       1.0  0.91300  0.46400  0.11700  1.0000
  Si  Si2       1.0  0.52400  0.86600  0.13900  1.0000
  Si  Si3       1.0  0.47600  0.36600  0.36100  1.0000
  Si  Si4       1.0  0.08730  0.96400  0.38300  1.0000
  Si  Si5       1.0  0.91300  0.03630  0.61700  1.0000
  Si  Si6       1.0  0.52400  0.63400  0.63900  1.0000
  Si  Si7       1.0  0.47600  0.13400  0.86100  1.0000
  Si  Si8       1.0  0.08730  0.53600  0.88300  1.0000
  Ti  Ti1       1.0  0.50000  0.50000  0.00000  1.0000
  Ti  Ti2       1.0  0.74500  0.18400  0.24900  1.0000
  Ti  Ti3       1.0  0.25500  0.68400  0.25100  1.0000
  Ti  Ti4       1.0  0.50000  0.00000  0.50000  1.0000
  Ti  Ti5       1.0  0.74500  0.31600  0.74900  1.0000
  Ti  Ti6       1.0  0.25500  0.81600  0.75100  1.0000
  U   U1        1.0  0.15200  0.13000  0.05100  1.0000
  U   U2        1.0  0.84800  0.63000  0.44900  1.0000
  U   U3        1.0  0.15200  0.37000  0.55100  1.0000
  U   U4        1.0  0.84800  0.87000  0.94900  1.0000
