data_image0
_chemical_formula_structural       Cr10P6Zr2
_chemical_formula_sum              "Cr10 P6 Zr2"
_cell_length_a       9.34325
_cell_length_b       3.64568
_cell_length_c       6.88585
_cell_angle_alpha    90
_cell_angle_beta     100.463
_cell_angle_gamma    90

_space_group_name_H-M_alt    "P 1"
_space_group_IT_number       1

loop_
  _space_group_symop_operation_xyz
  'x, y, z'

loop_
  _atom_site_type_symbol
  _atom_site_label
  _atom_site_symmetry_multiplicity
  _atom_site_fract_x
  _atom_site_fract_y
  _atom_site_fract_z
  _atom_site_occupancy
  Cr  Cr1       1.0  0.08140  0.75000  0.08340  1.0000
  Cr  Cr2       1.0  0.50600  0.25000  0.13000  1.0000
  Cr  Cr3       1.0  0.27700  0.25000  0.31600  1.0000
  Cr  Cr4       1.0  0.50900  0.75000  0.37700  1.0000
  Cr  Cr5       1.0  0.07610  0.75000  0.45800  1.0000
  Cr  Cr6       1.0  0.92400  0.25000  0.54200  1.0000
  Cr  Cr7       1.0  0.49100  0.25000  0.62300  1.0000
  Cr  Cr8       1.0  0.72300  0.75000  0.68400  1.0000
  Cr  Cr9       1.0  0.49400  0.75000  0.87000  1.0000
  Cr  Cr10      1.0  0.91900  0.25000  0.91700  1.0000
  P   P1        1.0  0.33100  0.75000  0.09490  1.0000
  P   P2        1.0  0.01310  0.25000  0.24900  1.0000
  P   P3        1.0  0.67500  0.25000  0.43400  1.0000
  P   P4        1.0  0.32500  0.75000  0.56600  1.0000
  P   P5        1.0  0.98700  0.75000  0.75100  1.0000
  P   P6        1.0  0.66900  0.25000  0.90500  1.0000
  Zr  Zr1       1.0  0.77900  0.75000  0.19100  1.0000
  Zr  Zr2       1.0  0.22100  0.25000  0.80900  1.0000
