data_image0
_chemical_formula_structural       B4In5Ir9
_chemical_formula_sum              "B4 In5 Ir9"
_cell_length_a       5.63525
_cell_length_b       5.63525
_cell_length_c       10.4084
_cell_angle_alpha    90
_cell_angle_beta     90
_cell_angle_gamma    119.999

_space_group_name_H-M_alt    "P 1"
_space_group_IT_number       1

loop_
  _space_group_symop_operation_xyz
  'x, y, z'

loop_
  _atom_site_type_symbol
  _atom_site_label
  _atom_site_symmetry_multiplicity
  _atom_site_fract_x
  _atom_site_fract_y
  _atom_site_fract_z
  _atom_site_occupancy
  B   B1        1.0  0.66700  0.33300  0.14600  1.0000
  B   B2        1.0  0.33300  0.66700  0.14600  1.0000
  B   B3        1.0  0.66700  0.33300  0.85400  1.0000
  B   B4        1.0  0.33300  0.66700  0.85400  1.0000
  In  In1       1.0  0.00002  0.00002  0.00000  1.0000
  In  In2       1.0  0.00000  0.00000  0.34700  1.0000
  In  In3       1.0  0.66700  0.33300  0.50000  1.0000
  In  In4       1.0  0.33300  0.66700  0.50000  1.0000
  In  In5       1.0  0.00000  0.00000  0.65300  1.0000
  Ir  Ir1       1.0  0.47900  0.00000  0.00000  1.0000
  Ir  Ir2       1.0  0.00000  0.47900  0.00000  1.0000
  Ir  Ir3       1.0  0.52100  0.52100  0.00000  1.0000
  Ir  Ir4       1.0  0.52100  0.52100  0.27500  1.0000
  Ir  Ir5       1.0  0.47900  0.00000  0.27500  1.0000
  Ir  Ir6       1.0  0.00000  0.47900  0.27500  1.0000
  Ir  Ir7       1.0  0.47900  0.00000  0.72500  1.0000
  Ir  Ir8       1.0  0.00000  0.47900  0.72500  1.0000
  Ir  Ir9       1.0  0.52100  0.52100  0.72500  1.0000
