data_image0
_chemical_formula_structural       La6Pd10Si2
_chemical_formula_sum              "La6 Pd10 Si2"
_cell_length_a       7.50205
_cell_length_b       7.67738
_cell_length_c       8.51701
_cell_angle_alpha    116.789
_cell_angle_beta     116.13
_cell_angle_gamma    90

_space_group_name_H-M_alt    "P 1"
_space_group_IT_number       1

loop_
  _space_group_symop_operation_xyz
  'x, y, z'

loop_
  _atom_site_type_symbol
  _atom_site_label
  _atom_site_symmetry_multiplicity
  _atom_site_fract_x
  _atom_site_fract_y
  _atom_site_fract_z
  _atom_site_occupancy
  La  La1       1.0  0.75000  0.38300  0.00000  1.0000
  La  La2       1.0  0.25000  0.61700  0.00000  1.0000
  La  La3       1.0  0.45000  0.18000  0.40000  1.0000
  La  La4       1.0  0.95000  0.22000  0.40000  1.0000
  La  La5       1.0  0.05000  0.78000  0.60000  1.0000
  La  La6       1.0  0.55000  0.82000  0.60000  1.0000
  Pd  Pd1       1.0  0.00000  0.00000  0.00000  1.0000
  Pd  Pd2       1.0  0.50000  0.00000  0.00000  1.0000
  Pd  Pd3       1.0  0.19300  0.45500  0.28400  1.0000
  Pd  Pd4       1.0  0.59100  0.45500  0.28400  1.0000
  Pd  Pd5       1.0  0.09110  0.82900  0.28400  1.0000
  Pd  Pd6       1.0  0.69300  0.82900  0.28400  1.0000
  Pd  Pd7       1.0  0.30700  0.17100  0.71600  1.0000
  Pd  Pd8       1.0  0.90900  0.17100  0.71600  1.0000
  Pd  Pd9       1.0  0.40900  0.54500  0.71600  1.0000
  Pd  Pd10      1.0  0.80700  0.54500  0.71600  1.0000
  Si  Si1       1.0  0.25000  0.21300  0.00000  1.0000
  Si  Si2       1.0  0.75000  0.78700  0.00000  1.0000
