data_image0
_chemical_formula_structural       Cr2O12Te2Yb2
_chemical_formula_sum              "Cr2 O12 Te2 Yb2"
_cell_length_a       5.09554
_cell_length_b       5.09628
_cell_length_c       9.65484
_cell_angle_alpha    90.0084
_cell_angle_beta     89.9958
_cell_angle_gamma    120.005

_space_group_name_H-M_alt    "P 1"
_space_group_IT_number       1

loop_
  _space_group_symop_operation_xyz
  'x, y, z'

loop_
  _atom_site_type_symbol
  _atom_site_label
  _atom_site_symmetry_multiplicity
  _atom_site_fract_x
  _atom_site_fract_y
  _atom_site_fract_z
  _atom_site_occupancy
  Cr  Cr1       1.0  0.33300  0.66700  0.25000  1.0000
  Cr  Cr2       1.0  0.66700  0.33300  0.75000  1.0000
  O   O1        1.0  0.36500  0.99900  0.14000  1.0000
  O   O2        1.0  0.63300  0.63500  0.14000  1.0000
  O   O3        1.0  0.00146  0.36700  0.14000  1.0000
  O   O4        1.0  0.00146  0.63500  0.36000  1.0000
  O   O5        1.0  0.63300  0.99800  0.36000  1.0000
  O   O6        1.0  0.36500  0.36700  0.36000  1.0000
  O   O7        1.0  0.63500  0.63300  0.64000  1.0000
  O   O8        1.0  0.36700  0.00160  0.64000  1.0000
  O   O9        1.0  0.99900  0.36500  0.64000  1.0000
  O   O10       1.0  0.99900  0.63300  0.86000  1.0000
  O   O11       1.0  0.36700  0.36500  0.86000  1.0000
  O   O12       1.0  0.63500  0.00146  0.86000  1.0000
  Te  Te1       1.0  0.66700  0.33300  0.25000  1.0000
  Te  Te2       1.0  0.33300  0.66700  0.75000  1.0000
  Yb  Yb1       1.0  0.00000  0.00000  0.00000  1.0000
  Yb  Yb2       1.0  0.00000  1.00000  0.50000  1.0000
