data_image0
_chemical_formula_structural       Ba2C8O8
_chemical_formula_sum              "Ba2 C8 O8"
_cell_length_a       6.30912
_cell_length_b       6.30912
_cell_length_c       7.63554
_cell_angle_alpha    114.402
_cell_angle_beta     114.402
_cell_angle_gamma    90

_space_group_name_H-M_alt    "P 1"
_space_group_IT_number       1

loop_
  _space_group_symop_operation_xyz
  'x, y, z'

loop_
  _atom_site_type_symbol
  _atom_site_label
  _atom_site_symmetry_multiplicity
  _atom_site_fract_x
  _atom_site_fract_y
  _atom_site_fract_z
  _atom_site_occupancy
  Ba  Ba1       1.0  0.25000  0.25000  0.50000  1.0000
  Ba  Ba2       1.0  0.75000  0.75000  0.50000  1.0000
  C   C1        1.0  0.47700  0.14100  0.11800  1.0000
  C   C2        1.0  0.97700  0.47700  0.11800  1.0000
  C   C3        1.0  0.14100  0.64100  0.11800  1.0000
  C   C4        1.0  0.64100  0.97700  0.11800  1.0000
  C   C5        1.0  0.35900  0.02290  0.88200  1.0000
  C   C6        1.0  0.85900  0.35900  0.88200  1.0000
  C   C7        1.0  0.02290  0.52300  0.88200  1.0000
  C   C8        1.0  0.52300  0.85900  0.88200  1.0000
  O   O1        1.0  0.45100  0.31300  0.26500  1.0000
  O   O2        1.0  0.95100  0.45100  0.26500  1.0000
  O   O3        1.0  0.31300  0.81300  0.26500  1.0000
  O   O4        1.0  0.81300  0.95100  0.26500  1.0000
  O   O5        1.0  0.18700  0.04870  0.73500  1.0000
  O   O6        1.0  0.68700  0.18700  0.73500  1.0000
  O   O7        1.0  0.04870  0.54900  0.73500  1.0000
  O   O8        1.0  0.54900  0.68700  0.73500  1.0000
