data_image0
_chemical_formula_structural       F12K4Tb2
_chemical_formula_sum              "F12 K4 Tb2"
_cell_length_a       6.49432
_cell_length_b       6.49432
_cell_length_c       7.085
_cell_angle_alpha    90.9807
_cell_angle_beta     90.9807
_cell_angle_gamma    120.211

_space_group_name_H-M_alt    "P 1"
_space_group_IT_number       1

loop_
  _space_group_symop_operation_xyz
  'x, y, z'

loop_
  _atom_site_type_symbol
  _atom_site_label
  _atom_site_symmetry_multiplicity
  _atom_site_fract_x
  _atom_site_fract_y
  _atom_site_fract_z
  _atom_site_occupancy
  F   F1        1.0  0.05900  0.84300  0.05030  1.0000
  F   F2        1.0  0.34100  0.30600  0.20300  1.0000
  F   F3        1.0  0.58700  0.99500  0.21800  1.0000
  F   F4        1.0  0.00514  0.41300  0.28200  1.0000
  F   F5        1.0  0.69400  0.65900  0.29700  1.0000
  F   F6        1.0  0.15700  0.94100  0.45000  1.0000
  F   F7        1.0  0.84300  0.05900  0.55000  1.0000
  F   F8        1.0  0.30600  0.34100  0.70300  1.0000
  F   F9        1.0  0.99500  0.58700  0.71800  1.0000
  F   F10       1.0  0.41300  0.00514  0.78200  1.0000
  F   F11       1.0  0.65900  0.69400  0.79700  1.0000
  F   F12       1.0  0.94100  0.15700  0.95000  1.0000
  K   K1        1.0  0.30600  0.63100  0.99800  1.0000
  K   K2        1.0  0.69400  0.36900  0.00205  1.0000
  K   K3        1.0  0.63100  0.30600  0.49800  1.0000
  K   K4        1.0  0.36900  0.69400  0.50200  1.0000
  Tb  Tb1       1.0  0.95400  0.04590  0.25000  1.0000
  Tb  Tb2       1.0  0.04590  0.95400  0.75000  1.0000
