data_image0
_chemical_formula_structural       Ag2Bi6S10
_chemical_formula_sum              "Ag2 Bi6 S10"
_cell_length_a       4.05184
_cell_length_b       7.09332
_cell_length_c       16.609
_cell_angle_alpha    94.8951
_cell_angle_beta     90
_cell_angle_gamma    106.595

_space_group_name_H-M_alt    "P 1"
_space_group_IT_number       1

loop_
  _space_group_symop_operation_xyz
  'x, y, z'

loop_
  _atom_site_type_symbol
  _atom_site_label
  _atom_site_symmetry_multiplicity
  _atom_site_fract_x
  _atom_site_fract_y
  _atom_site_fract_z
  _atom_site_occupancy
  Ag  Ag1       1.0  0.00000  0.00000  0.00000  1.0000
  Ag  Ag2       1.0  0.50000  0.00000  0.50000  1.0000
  Bi  Bi1       1.0  0.73700  0.47500  0.10900  1.0000
  Bi  Bi2       1.0  0.47500  0.94900  0.21800  1.0000
  Bi  Bi3       1.0  0.22100  0.44200  0.39300  1.0000
  Bi  Bi4       1.0  0.77900  0.55800  0.60700  1.0000
  Bi  Bi5       1.0  0.52500  0.05090  0.78200  1.0000
  Bi  Bi6       1.0  0.26300  0.52500  0.89100  1.0000
  S   S1        1.0  0.35500  0.71100  0.05690  1.0000
  S   S2        1.0  0.08980  0.18000  0.14100  1.0000
  S   S3        1.0  0.84500  0.69000  0.25700  1.0000
  S   S4        1.0  0.57600  0.15300  0.36400  1.0000
  S   S5        1.0  0.84900  0.69800  0.46600  1.0000
  S   S6        1.0  0.15100  0.30200  0.53400  1.0000
  S   S7        1.0  0.42400  0.84700  0.63600  1.0000
  S   S8        1.0  0.15500  0.31000  0.74300  1.0000
  S   S9        1.0  0.91000  0.82000  0.85900  1.0000
  S   S10       1.0  0.64500  0.28900  0.94300  1.0000
