data_image0
_chemical_formula_structural       Ge2O12Te4
_chemical_formula_sum              "Ge2 O12 Te4"
_cell_length_a       5.21846
_cell_length_b       6.8545
_cell_length_c       7.2566
_cell_angle_alpha    90
_cell_angle_beta     91.8863
_cell_angle_gamma    90

_space_group_name_H-M_alt    "P 1"
_space_group_IT_number       1

loop_
  _space_group_symop_operation_xyz
  'x, y, z'

loop_
  _atom_site_type_symbol
  _atom_site_label
  _atom_site_symmetry_multiplicity
  _atom_site_fract_x
  _atom_site_fract_y
  _atom_site_fract_z
  _atom_site_occupancy
  Ge  Ge1       1.0  0.50000  0.50000  1.00000  1.0000
  Ge  Ge2       1.0  0.00000  0.00000  0.50000  1.0000
  O   O1        1.0  0.80800  0.35100  0.99100  1.0000
  O   O2        1.0  0.19200  0.64900  0.00878  1.0000
  O   O3        1.0  0.32300  0.27300  0.08400  1.0000
  O   O4        1.0  0.57000  0.57600  0.24800  1.0000
  O   O5        1.0  0.93000  0.07630  0.25200  1.0000
  O   O6        1.0  0.17700  0.77300  0.41600  1.0000
  O   O7        1.0  0.30800  0.14900  0.49100  1.0000
  O   O8        1.0  0.69200  0.85100  0.50900  1.0000
  O   O9        1.0  0.82300  0.22700  0.58400  1.0000
  O   O10       1.0  0.06970  0.92400  0.74800  1.0000
  O   O11       1.0  0.43000  0.42400  0.75200  1.0000
  O   O12       1.0  0.67700  0.72700  0.91600  1.0000
  Te  Te1       1.0  0.02500  0.34300  0.21400  1.0000
  Te  Te2       1.0  0.47500  0.84300  0.28600  1.0000
  Te  Te3       1.0  0.52500  0.15700  0.71400  1.0000
  Te  Te4       1.0  0.97500  0.65700  0.78600  1.0000
