data_image0
_chemical_formula_structural       Ba4C2CuLiO10
_chemical_formula_sum              "Ba4 C2 Cu1 Li1 O10"
_cell_length_a       5.75186
_cell_length_b       5.75186
_cell_length_c       8.64506
_cell_angle_alpha    109.431
_cell_angle_beta     109.431
_cell_angle_gamma    90

_space_group_name_H-M_alt    "P 1"
_space_group_IT_number       1

loop_
  _space_group_symop_operation_xyz
  'x, y, z'

loop_
  _atom_site_type_symbol
  _atom_site_label
  _atom_site_symmetry_multiplicity
  _atom_site_fract_x
  _atom_site_fract_y
  _atom_site_fract_z
  _atom_site_occupancy
  Ba  Ba1       1.0  0.61800  0.11800  0.23600  1.0000
  Ba  Ba2       1.0  0.11800  0.61800  0.23600  1.0000
  Ba  Ba3       1.0  0.88200  0.38200  0.76400  1.0000
  Ba  Ba4       1.0  0.38200  0.88200  0.76400  1.0000
  C   C1        1.0  0.72900  0.72900  0.45800  1.0000
  C   C2        1.0  0.27100  0.27100  0.54200  1.0000
  Cu  Cu1       1.0  0.00000  0.00000  0.00000  1.0000
  Li  Li1       1.0  0.50000  0.50000  0.00000  1.0000
  O   O1        1.0  0.22600  0.22600  0.99500  1.0000
  O   O2        1.0  0.76800  0.76800  0.99500  1.0000
  O   O3        1.0  0.77400  0.23200  0.00528  1.0000
  O   O4        1.0  0.23200  0.77400  0.00528  1.0000
  O   O5        1.0  0.64300  0.64300  0.28600  1.0000
  O   O6        1.0  0.09080  0.09080  0.46000  1.0000
  O   O7        1.0  0.37000  0.37000  0.46000  1.0000
  O   O8        1.0  0.90900  0.63000  0.54000  1.0000
  O   O9        1.0  0.63000  0.90900  0.54000  1.0000
  O   O10       1.0  0.35700  0.35700  0.71400  1.0000
