data_image0
_chemical_formula_structural       B3BiCd4O10
_chemical_formula_sum              "B3 Bi1 Cd4 O10"
_cell_length_a       3.50304
_cell_length_b       8.04396
_cell_length_c       8.9099
_cell_angle_alpha    63.1661
_cell_angle_beta     94.4092
_cell_angle_gamma    99.8059

_space_group_name_H-M_alt    "P 1"
_space_group_IT_number       1

loop_
  _space_group_symop_operation_xyz
  'x, y, z'

loop_
  _atom_site_type_symbol
  _atom_site_label
  _atom_site_symmetry_multiplicity
  _atom_site_fract_x
  _atom_site_fract_y
  _atom_site_fract_z
  _atom_site_occupancy
  B   B1        1.0  0.20900  0.82000  0.00000  1.0000
  B   B2        1.0  0.58500  0.18900  0.39900  1.0000
  B   B3        1.0  0.58500  0.58800  0.60100  1.0000
  Bi  Bi1       1.0  0.49800  0.44000  0.00000  1.0000
  Cd  Cd1       1.0  0.83000  0.96800  0.22800  1.0000
  Cd  Cd2       1.0  0.14900  0.52400  0.36100  1.0000
  Cd  Cd3       1.0  0.14900  0.88500  0.63900  1.0000
  Cd  Cd4       1.0  0.83000  0.19600  0.77200  1.0000
  O   O1        1.0  0.91900  0.25300  0.00000  1.0000
  O   O2        1.0  0.08700  0.64700  0.00000  1.0000
  O   O3        1.0  0.26900  0.82700  0.15200  1.0000
  O   O4        1.0  0.58500  0.38200  0.29200  1.0000
  O   O5        1.0  0.38300  0.05490  0.35400  1.0000
  O   O6        1.0  0.79800  0.67900  0.45600  1.0000
  O   O7        1.0  0.79800  0.13500  0.54400  1.0000
  O   O8        1.0  0.38300  0.40900  0.64600  1.0000
  O   O9        1.0  0.58500  0.67400  0.70800  1.0000
  O   O10       1.0  0.26900  0.97900  0.84800  1.0000
