data_image0
_chemical_formula_structural       Ba8K2O2Sb6
_chemical_formula_sum              "Ba8 K2 O2 Sb6"
_cell_length_a       8.90582
_cell_length_b       8.90582
_cell_length_c       10.4938
_cell_angle_alpha    115.109
_cell_angle_beta     115.109
_cell_angle_gamma    90

_space_group_name_H-M_alt    "P 1"
_space_group_IT_number       1

loop_
  _space_group_symop_operation_xyz
  'x, y, z'

loop_
  _atom_site_type_symbol
  _atom_site_label
  _atom_site_symmetry_multiplicity
  _atom_site_fract_x
  _atom_site_fract_y
  _atom_site_fract_z
  _atom_site_occupancy
  Ba  Ba1       1.0  0.49500  0.31300  0.30800  1.0000
  Ba  Ba2       1.0  0.99500  0.49500  0.30800  1.0000
  Ba  Ba3       1.0  0.31300  0.81300  0.30800  1.0000
  Ba  Ba4       1.0  0.81300  0.99500  0.30800  1.0000
  Ba  Ba5       1.0  0.18700  0.00489  0.69200  1.0000
  Ba  Ba6       1.0  0.68700  0.18700  0.69200  1.0000
  Ba  Ba7       1.0  0.00489  0.50500  0.69200  1.0000
  Ba  Ba8       1.0  0.50500  0.68700  0.69200  1.0000
  K   K1        1.0  0.00000  0.00000  0.00000  1.0000
  K   K2        1.0  0.50000  0.50000  0.00000  1.0000
  O   O1        1.0  0.75000  0.25000  0.50000  1.0000
  O   O2        1.0  0.25000  0.75000  0.50000  1.0000
  Sb  Sb1       1.0  0.61600  0.11600  0.00000  1.0000
  Sb  Sb2       1.0  0.11600  0.38400  0.00000  1.0000
  Sb  Sb3       1.0  0.88400  0.61600  0.00000  1.0000
  Sb  Sb4       1.0  0.38400  0.88400  0.00000  1.0000
  Sb  Sb5       1.0  0.25000  0.25000  0.50000  1.0000
  Sb  Sb6       1.0  0.75000  0.75000  0.50000  1.0000
