data_image0
_chemical_formula_structural       Fe4Te4Y10
_chemical_formula_sum              "Fe4 Te4 Y10"
_cell_length_a       3.94479
_cell_length_b       7.7972
_cell_length_c       15.2021
_cell_angle_alpha    90
_cell_angle_beta     90
_cell_angle_gamma    75.3471

_space_group_name_H-M_alt    "P 1"
_space_group_IT_number       1

loop_
  _space_group_symop_operation_xyz
  'x, y, z'

loop_
  _atom_site_type_symbol
  _atom_site_label
  _atom_site_symmetry_multiplicity
  _atom_site_fract_x
  _atom_site_fract_y
  _atom_site_fract_z
  _atom_site_occupancy
  Fe  Fe1       1.0  0.17000  0.65900  0.25000  1.0000
  Fe  Fe2       1.0  0.59600  0.80900  0.25000  1.0000
  Fe  Fe3       1.0  0.40400  0.19100  0.75000  1.0000
  Fe  Fe4       1.0  0.83000  0.34100  0.75000  1.0000
  Te  Te1       1.0  0.38300  0.23500  0.03970  1.0000
  Te  Te2       1.0  0.38300  0.23500  0.46000  1.0000
  Te  Te3       1.0  0.61700  0.76500  0.54000  1.0000
  Te  Te4       1.0  0.61700  0.76500  0.96000  1.0000
  Y   Y1        1.0  0.03840  0.92300  0.11900  1.0000
  Y   Y2        1.0  0.74300  0.51400  0.12800  1.0000
  Y   Y3        1.0  0.39700  0.20600  0.25000  1.0000
  Y   Y4        1.0  0.74300  0.51400  0.37200  1.0000
  Y   Y5        1.0  0.03840  0.92300  0.38100  1.0000
  Y   Y6        1.0  0.96200  0.07680  0.61900  1.0000
  Y   Y7        1.0  0.25700  0.48600  0.62800  1.0000
  Y   Y8        1.0  0.60300  0.79400  0.75000  1.0000
  Y   Y9        1.0  0.25700  0.48600  0.87200  1.0000
  Y   Y10       1.0  0.96200  0.07680  0.88100  1.0000
