data_image0
_chemical_formula_structural       C8Cu2O8
_chemical_formula_sum              "C8 Cu2 O8"
_cell_length_a       5.57046
_cell_length_b       6.97676
_cell_length_c       6.97676
_cell_angle_alpha    101.432
_cell_angle_beta     111.191
_cell_angle_gamma    68.8092

_space_group_name_H-M_alt    "P 1"
_space_group_IT_number       1

loop_
  _space_group_symop_operation_xyz
  'x, y, z'

loop_
  _atom_site_type_symbol
  _atom_site_label
  _atom_site_symmetry_multiplicity
  _atom_site_fract_x
  _atom_site_fract_y
  _atom_site_fract_z
  _atom_site_occupancy
  C   C1        1.0  0.37700  0.64600  0.03130  1.0000
  C   C2        1.0  0.40000  0.43700  0.06010  1.0000
  C   C3        1.0  0.87700  0.96900  0.35400  1.0000
  C   C4        1.0  0.10000  0.06010  0.43700  1.0000
  C   C5        1.0  0.90000  0.94000  0.56300  1.0000
  C   C6        1.0  0.12300  0.03130  0.64600  1.0000
  C   C7        1.0  0.60000  0.56300  0.94000  1.0000
  C   C8        1.0  0.62300  0.35400  0.96900  1.0000
  Cu  Cu1       1.0  0.25000  0.09440  0.09440  1.0000
  Cu  Cu2       1.0  0.75000  0.90600  0.90600  1.0000
  O   O1        1.0  0.21500  0.81700  0.06950  1.0000
  O   O2        1.0  0.27500  0.37500  0.13900  1.0000
  O   O3        1.0  0.71500  0.93100  0.18300  1.0000
  O   O4        1.0  0.22500  0.13900  0.37500  1.0000
  O   O5        1.0  0.77500  0.86100  0.62500  1.0000
  O   O6        1.0  0.28500  0.06950  0.81700  1.0000
  O   O7        1.0  0.72500  0.62500  0.86100  1.0000
  O   O8        1.0  0.78500  0.18300  0.93100  1.0000
