data_image0
_chemical_formula_structural       Al4P8Sr6
_chemical_formula_sum              "Al4 P8 Sr6"
_cell_length_a       6.68264
_cell_length_b       8.34617
_cell_length_c       8.34617
_cell_angle_alpha    75.4573
_cell_angle_beta     90.8399
_cell_angle_gamma    90.8399

_space_group_name_H-M_alt    "P 1"
_space_group_IT_number       1

loop_
  _space_group_symop_operation_xyz
  'x, y, z'

loop_
  _atom_site_type_symbol
  _atom_site_label
  _atom_site_symmetry_multiplicity
  _atom_site_fract_x
  _atom_site_fract_y
  _atom_site_fract_z
  _atom_site_occupancy
  Al  Al1       1.0  0.58000  0.41800  0.17300  1.0000
  Al  Al2       1.0  0.08030  0.17300  0.41800  1.0000
  Al  Al3       1.0  0.92000  0.82700  0.58200  1.0000
  Al  Al4       1.0  0.42000  0.58200  0.82700  1.0000
  P   P1        1.0  0.47500  0.70500  0.05900  1.0000
  P   P2        1.0  0.92200  0.42000  0.26000  1.0000
  P   P3        1.0  0.02460  0.94100  0.29500  1.0000
  P   P4        1.0  0.42200  0.26000  0.42000  1.0000
  P   P5        1.0  0.57800  0.74000  0.58000  1.0000
  P   P6        1.0  0.97500  0.05900  0.70500  1.0000
  P   P7        1.0  0.07760  0.58000  0.74000  1.0000
  P   P8        1.0  0.52500  0.29500  0.94100  1.0000
  Sr  Sr1       1.0  0.95800  0.74700  0.00840  1.0000
  Sr  Sr2       1.0  0.54200  0.99200  0.25300  1.0000
  Sr  Sr3       1.0  0.25000  0.59800  0.40200  1.0000
  Sr  Sr4       1.0  0.75000  0.40200  0.59800  1.0000
  Sr  Sr5       1.0  0.45800  0.00840  0.74700  1.0000
  Sr  Sr6       1.0  0.04170  0.25300  0.99200  1.0000
