data_image0
_chemical_formula_structural       Cs2Cu6Se8Ti2
_chemical_formula_sum              "Cs2 Cu6 Se8 Ti2"
_cell_length_a       5.81614
_cell_length_b       7.79326
_cell_length_c       10.2635
_cell_angle_alpha    90
_cell_angle_beta     106.443
_cell_angle_gamma    90

_space_group_name_H-M_alt    "P 1"
_space_group_IT_number       1

loop_
  _space_group_symop_operation_xyz
  'x, y, z'

loop_
  _atom_site_type_symbol
  _atom_site_label
  _atom_site_symmetry_multiplicity
  _atom_site_fract_x
  _atom_site_fract_y
  _atom_site_fract_z
  _atom_site_occupancy
  Cs  Cs1       1.0  0.20000  0.25000  0.37800  1.0000
  Cs  Cs2       1.0  0.80000  0.75000  0.62200  1.0000
  Cu  Cu1       1.0  0.28000  0.50700  0.00231  1.0000
  Cu  Cu2       1.0  0.28000  0.99300  0.00231  1.0000
  Cu  Cu3       1.0  0.35000  0.75000  0.20200  1.0000
  Cu  Cu4       1.0  0.65000  0.25000  0.79800  1.0000
  Cu  Cu5       1.0  0.72000  0.00722  0.99800  1.0000
  Cu  Cu6       1.0  0.72000  0.49300  0.99800  1.0000
  Se  Se1       1.0  0.02220  0.25000  0.00397  1.0000
  Se  Se2       1.0  0.61500  0.00442  0.21400  1.0000
  Se  Se3       1.0  0.61500  0.49600  0.21400  1.0000
  Se  Se4       1.0  0.19300  0.75000  0.39800  1.0000
  Se  Se5       1.0  0.80700  0.25000  0.60200  1.0000
  Se  Se6       1.0  0.38500  0.50400  0.78600  1.0000
  Se  Se7       1.0  0.38500  0.99600  0.78600  1.0000
  Se  Se8       1.0  0.97800  0.75000  0.99600  1.0000
  Ti  Ti1       1.0  0.85400  0.75000  0.20700  1.0000
  Ti  Ti2       1.0  0.14600  0.25000  0.79300  1.0000
