data_image0
_chemical_formula_structural       Cu4Mo6Se8
_chemical_formula_sum              "Cu4 Mo6 Se8"
_cell_length_a       6.83711
_cell_length_b       6.89364
_cell_length_c       8.0124
_cell_angle_alpha    70.6994
_cell_angle_beta     72.8582
_cell_angle_gamma    84.527

_space_group_name_H-M_alt    "P 1"
_space_group_IT_number       1

loop_
  _space_group_symop_operation_xyz
  'x, y, z'

loop_
  _atom_site_type_symbol
  _atom_site_label
  _atom_site_symmetry_multiplicity
  _atom_site_fract_x
  _atom_site_fract_y
  _atom_site_fract_z
  _atom_site_occupancy
  Cu  Cu1       1.0  0.22200  0.03350  0.06650  1.0000
  Cu  Cu2       1.0  0.46700  0.71300  0.08500  1.0000
  Cu  Cu3       1.0  0.53300  0.28700  0.91500  1.0000
  Cu  Cu4       1.0  0.77800  0.96600  0.93400  1.0000
  Mo  Mo1       1.0  0.50700  0.01190  0.25800  1.0000
  Mo  Mo2       1.0  0.78100  0.07950  0.41200  1.0000
  Mo  Mo3       1.0  0.42100  0.28100  0.45400  1.0000
  Mo  Mo4       1.0  0.57900  0.71900  0.54600  1.0000
  Mo  Mo5       1.0  0.21900  0.92000  0.58800  1.0000
  Mo  Mo6       1.0  0.49300  0.98800  0.74200  1.0000
  Se  Se1       1.0  0.69300  0.37000  0.13200  1.0000
  Se  Se2       1.0  0.86400  0.82100  0.22800  1.0000
  Se  Se3       1.0  0.16300  0.21900  0.29600  1.0000
  Se  Se4       1.0  0.29300  0.66600  0.40600  1.0000
  Se  Se5       1.0  0.70700  0.33400  0.59400  1.0000
  Se  Se6       1.0  0.83700  0.78100  0.70400  1.0000
  Se  Se7       1.0  0.13600  0.17900  0.77200  1.0000
  Se  Se8       1.0  0.30700  0.63000  0.86800  1.0000
