data_image0
_chemical_formula_structural       Ga9Ni6Y3
_chemical_formula_sum              "Ga9 Ni6 Y3"
_cell_length_a       9.24135
_cell_length_b       9.24135
_cell_length_c       3.86067
_cell_angle_alpha    90
_cell_angle_beta     90
_cell_angle_gamma    119.996

_space_group_name_H-M_alt    "P 1"
_space_group_IT_number       1

loop_
  _space_group_symop_operation_xyz
  'x, y, z'

loop_
  _atom_site_type_symbol
  _atom_site_label
  _atom_site_symmetry_multiplicity
  _atom_site_fract_x
  _atom_site_fract_y
  _atom_site_fract_z
  _atom_site_occupancy
  Ga  Ga1       1.0  0.50000  0.00004  0.50000  1.0000
  Ga  Ga2       1.0  0.36700  0.18400  0.50000  1.0000
  Ga  Ga3       1.0  0.81600  0.18400  0.50000  1.0000
  Ga  Ga4       1.0  0.18400  0.36700  0.50000  1.0000
  Ga  Ga5       1.0  0.00004  0.50000  0.50000  1.0000
  Ga  Ga6       1.0  0.50000  0.50000  0.50000  1.0000
  Ga  Ga7       1.0  0.81600  0.63300  0.50000  1.0000
  Ga  Ga8       1.0  0.63300  0.81600  0.50000  1.0000
  Ga  Ga9       1.0  0.18400  0.81600  0.50000  1.0000
  Ni  Ni1       1.0  0.28900  0.00003  0.00000  1.0000
  Ni  Ni2       1.0  0.71100  0.00003  0.00000  1.0000
  Ni  Ni3       1.0  0.28900  0.28900  0.00000  1.0000
  Ni  Ni4       1.0  0.00003  0.28900  0.00000  1.0000
  Ni  Ni5       1.0  0.71100  0.71100  0.00000  1.0000
  Ni  Ni6       1.0  0.00003  0.71100  0.00000  1.0000
  Y   Y1        1.0  0.66700  0.33300  0.00000  1.0000
  Y   Y2        1.0  0.33300  0.66700  0.00000  1.0000
  Y   Y3        1.0  0.00000  0.00000  0.50000  1.0000
