data_image0
_chemical_formula_structural       Cs6I10Mn2
_chemical_formula_sum              "Cs6 I10 Mn2"
_cell_length_a       10.3935
_cell_length_b       10.3935
_cell_length_c       11.0957
_cell_angle_alpha    117.928
_cell_angle_beta     117.928
_cell_angle_gamma    90

_space_group_name_H-M_alt    "P 1"
_space_group_IT_number       1

loop_
  _space_group_symop_operation_xyz
  'x, y, z'

loop_
  _atom_site_type_symbol
  _atom_site_label
  _atom_site_symmetry_multiplicity
  _atom_site_fract_x
  _atom_site_fract_y
  _atom_site_fract_z
  _atom_site_occupancy
  Cs  Cs1       1.0  0.65700  0.15700  0.00000  1.0000
  Cs  Cs2       1.0  0.15700  0.34300  0.00000  1.0000
  Cs  Cs3       1.0  0.84300  0.65700  0.00000  1.0000
  Cs  Cs4       1.0  0.34300  0.84300  0.00000  1.0000
  Cs  Cs5       1.0  0.25000  0.25000  0.50000  1.0000
  Cs  Cs6       1.0  0.75000  0.75000  0.50000  1.0000
  I   I1        1.0  0.00000  0.00000  0.00000  1.0000
  I   I2        1.0  0.50000  0.50000  0.00000  1.0000
  I   I3        1.0  0.80000  0.00778  0.30800  1.0000
  I   I4        1.0  0.50800  0.30000  0.30800  1.0000
  I   I5        1.0  0.00778  0.50800  0.30800  1.0000
  I   I6        1.0  0.30000  0.80000  0.30800  1.0000
  I   I7        1.0  0.70000  0.20000  0.69200  1.0000
  I   I8        1.0  0.99200  0.49200  0.69200  1.0000
  I   I9        1.0  0.49200  0.70000  0.69200  1.0000
  I   I10       1.0  0.20000  0.99200  0.69200  1.0000
  Mn  Mn1       1.0  0.75000  0.25000  0.50000  1.0000
  Mn  Mn2       1.0  0.25000  0.75000  0.50000  1.0000
