data_image0
_chemical_formula_structural       N4Nd8Se6
_chemical_formula_sum              "N4 Nd8 Se6"
_cell_length_a       6.47091
_cell_length_b       8.31505
_cell_length_c       8.31505
_cell_angle_alpha    75.6665
_cell_angle_beta     90.231
_cell_angle_gamma    90.231

_space_group_name_H-M_alt    "P 1"
_space_group_IT_number       1

loop_
  _space_group_symop_operation_xyz
  'x, y, z'

loop_
  _atom_site_type_symbol
  _atom_site_label
  _atom_site_symmetry_multiplicity
  _atom_site_fract_x
  _atom_site_fract_y
  _atom_site_fract_z
  _atom_site_occupancy
  N   N1        1.0  0.58500  0.32900  0.08160  1.0000
  N   N2        1.0  0.08530  0.08160  0.32900  1.0000
  N   N3        1.0  0.91500  0.91800  0.67100  1.0000
  N   N4        1.0  0.41500  0.67100  0.91800  1.0000
  Nd  Nd1       1.0  0.92800  0.24500  0.08510  1.0000
  Nd  Nd2       1.0  0.53000  0.55700  0.19000  1.0000
  Nd  Nd3       1.0  0.42800  0.08510  0.24500  1.0000
  Nd  Nd4       1.0  0.97000  0.81000  0.44300  1.0000
  Nd  Nd5       1.0  0.02980  0.19000  0.55700  1.0000
  Nd  Nd6       1.0  0.57200  0.91500  0.75500  1.0000
  Nd  Nd7       1.0  0.47000  0.44300  0.81000  1.0000
  Nd  Nd8       1.0  0.07180  0.75500  0.91500  1.0000
  Se  Se1       1.0  0.75000  0.90300  0.09700  1.0000
  Se  Se2       1.0  0.03580  0.51600  0.25400  1.0000
  Se  Se3       1.0  0.46400  0.74600  0.48400  1.0000
  Se  Se4       1.0  0.53600  0.25400  0.51600  1.0000
  Se  Se5       1.0  0.96400  0.48400  0.74600  1.0000
  Se  Se6       1.0  0.25000  0.09700  0.90300  1.0000
