data_image0
_chemical_formula_structural       Bi10Ce6Mn2
_chemical_formula_sum              "Bi10 Ce6 Mn2"
_cell_length_a       9.78135
_cell_length_b       9.78135
_cell_length_c       6.52055
_cell_angle_alpha    90
_cell_angle_beta     90
_cell_angle_gamma    119.998

_space_group_name_H-M_alt    "P 1"
_space_group_IT_number       1

loop_
  _space_group_symop_operation_xyz
  'x, y, z'

loop_
  _atom_site_type_symbol
  _atom_site_label
  _atom_site_symmetry_multiplicity
  _atom_site_fract_x
  _atom_site_fract_y
  _atom_site_fract_z
  _atom_site_occupancy
  Bi  Bi1       1.0  0.66700  0.33300  0.00001  1.0000
  Bi  Bi2       1.0  0.33300  0.66700  0.00001  1.0000
  Bi  Bi3       1.0  0.25100  0.00000  0.25000  1.0000
  Bi  Bi4       1.0  0.00000  0.25100  0.25000  1.0000
  Bi  Bi5       1.0  0.74900  0.74900  0.25000  1.0000
  Bi  Bi6       1.0  0.66700  0.33300  0.50000  1.0000
  Bi  Bi7       1.0  0.33300  0.66700  0.50000  1.0000
  Bi  Bi8       1.0  0.74900  0.00001  0.75000  1.0000
  Bi  Bi9       1.0  0.00001  0.74900  0.75000  1.0000
  Bi  Bi10      1.0  0.25100  0.25100  0.75000  1.0000
  Ce  Ce1       1.0  0.62100  0.00000  0.25000  1.0000
  Ce  Ce2       1.0  0.00000  0.62100  0.25000  1.0000
  Ce  Ce3       1.0  0.37900  0.37900  0.25000  1.0000
  Ce  Ce4       1.0  0.37900  0.00000  0.75000  1.0000
  Ce  Ce5       1.0  0.00000  0.37900  0.75000  1.0000
  Ce  Ce6       1.0  0.62100  0.62100  0.75000  1.0000
  Mn  Mn1       1.0  0.00001  0.00001  0.00000  1.0000
  Mn  Mn2       1.0  0.00000  0.00000  0.50000  1.0000
