data_image0
_chemical_formula_structural       Hg2I4O12
_chemical_formula_sum              "Hg2 I4 O12"
_cell_length_a       5.76146
_cell_length_b       5.53537
_cell_length_c       8.88191
_cell_angle_alpha    90
_cell_angle_beta     103.057
_cell_angle_gamma    90

_space_group_name_H-M_alt    "P 1"
_space_group_IT_number       1

loop_
  _space_group_symop_operation_xyz
  'x, y, z'

loop_
  _atom_site_type_symbol
  _atom_site_label
  _atom_site_symmetry_multiplicity
  _atom_site_fract_x
  _atom_site_fract_y
  _atom_site_fract_z
  _atom_site_occupancy
  Hg  Hg1       1.0  0.07050  0.75300  0.17400  1.0000
  Hg  Hg2       1.0  0.93000  0.25300  0.82600  1.0000
  I   I1        1.0  0.43900  0.23200  0.15200  1.0000
  I   I2        1.0  0.72800  0.76900  0.43600  1.0000
  I   I3        1.0  0.27200  0.26900  0.56400  1.0000
  I   I4        1.0  0.56100  0.73200  0.84800  1.0000
  O   O1        1.0  0.34100  0.99600  0.00580  1.0000
  O   O2        1.0  0.17200  0.42100  0.06410  1.0000
  O   O3        1.0  0.76000  0.93900  0.26000  1.0000
  O   O4        1.0  0.30100  0.07980  0.30000  1.0000
  O   O5        1.0  0.47500  0.56900  0.34900  1.0000
  O   O6        1.0  0.96800  0.56100  0.41600  1.0000
  O   O7        1.0  0.03190  0.06150  0.58400  1.0000
  O   O8        1.0  0.52500  0.06900  0.65100  1.0000
  O   O9        1.0  0.69900  0.58000  0.70000  1.0000
  O   O10       1.0  0.24000  0.43900  0.74000  1.0000
  O   O11       1.0  0.82800  0.92100  0.93600  1.0000
  O   O12       1.0  0.65900  0.49600  0.99400  1.0000
