data_image0
_chemical_formula_structural       Cl11IrPr6
_chemical_formula_sum              "Cl11 Ir1 Pr6"
_cell_length_a       7.38452
_cell_length_b       8.27224
_cell_length_c       8.27224
_cell_angle_alpha    101.712
_cell_angle_beta     92.8446
_cell_angle_gamma    92.8446

_space_group_name_H-M_alt    "P 1"
_space_group_IT_number       1

loop_
  _space_group_symop_operation_xyz
  'x, y, z'

loop_
  _atom_site_type_symbol
  _atom_site_label
  _atom_site_symmetry_multiplicity
  _atom_site_fract_x
  _atom_site_fract_y
  _atom_site_fract_z
  _atom_site_occupancy
  Cl  Cl1       1.0  0.50000  0.00000  0.00000  1.0000
  Cl  Cl2       1.0  0.63600  0.66000  0.09490  1.0000
  Cl  Cl3       1.0  0.05600  0.49200  0.20400  1.0000
  Cl  Cl4       1.0  0.63500  0.30700  0.30700  1.0000
  Cl  Cl5       1.0  0.36400  0.90500  0.34000  1.0000
  Cl  Cl6       1.0  0.05600  0.20400  0.49200  1.0000
  Cl  Cl7       1.0  0.94400  0.79600  0.50800  1.0000
  Cl  Cl8       1.0  0.63600  0.09490  0.66000  1.0000
  Cl  Cl9       1.0  0.36500  0.69300  0.69300  1.0000
  Cl  Cl10      1.0  0.94400  0.50800  0.79600  1.0000
  Cl  Cl11      1.0  0.36400  0.34000  0.90500  1.0000
  Ir  Ir1       1.0  0.00000  0.00000  0.00000  1.0000
  Pr  Pr1       1.0  0.22800  0.70700  0.01700  1.0000
  Pr  Pr2       1.0  0.24100  0.19600  0.19600  1.0000
  Pr  Pr3       1.0  0.77200  0.98300  0.29300  1.0000
  Pr  Pr4       1.0  0.22800  0.01700  0.70700  1.0000
  Pr  Pr5       1.0  0.75900  0.80400  0.80400  1.0000
  Pr  Pr6       1.0  0.77200  0.29300  0.98300  1.0000
