data_image0
_chemical_formula_structural       F12Rb4Tb2
_chemical_formula_sum              "F12 Rb4 Tb2"
_cell_length_a       6.78592
_cell_length_b       6.72372
_cell_length_c       7.18091
_cell_angle_alpha    91.0064
_cell_angle_beta     91.9947
_cell_angle_gamma    59.6935

_space_group_name_H-M_alt    "P 1"
_space_group_IT_number       1

loop_
  _space_group_symop_operation_xyz
  'x, y, z'

loop_
  _atom_site_type_symbol
  _atom_site_label
  _atom_site_symmetry_multiplicity
  _atom_site_fract_x
  _atom_site_fract_y
  _atom_site_fract_z
  _atom_site_occupancy
  F   F1        1.0  0.85300  0.21100  0.04860  1.0000
  F   F2        1.0  0.29800  0.02570  0.21800  1.0000
  F   F3        1.0  1.00000  0.60100  0.22100  1.0000
  F   F4        1.0  0.39900  0.60100  0.27900  1.0000
  F   F5        1.0  0.67700  0.02570  0.28200  1.0000
  F   F6        1.0  0.93600  0.21100  0.45100  1.0000
  F   F7        1.0  0.06360  0.78900  0.54900  1.0000
  F   F8        1.0  0.32300  0.97400  0.71800  1.0000
  F   F9        1.0  0.60100  0.39900  0.72100  1.0000
  F   F10       1.0  0.00044  0.39900  0.77900  1.0000
  F   F11       1.0  0.70200  0.97400  0.78200  1.0000
  F   F12       1.0  0.14700  0.78900  0.95100  1.0000
  Rb  Rb1       1.0  0.36800  0.31800  0.00056  1.0000
  Rb  Rb2       1.0  0.31400  0.31800  0.49900  1.0000
  Rb  Rb3       1.0  0.68600  0.68200  0.50100  1.0000
  Rb  Rb4       1.0  0.63200  0.68200  0.99900  1.0000
  Tb  Tb1       1.0  0.04320  0.91400  0.25000  1.0000
  Tb  Tb2       1.0  0.95700  0.08640  0.75000  1.0000
