data_image0
_chemical_formula_structural       Au4Eu4Sn10
_chemical_formula_sum              "Au4 Eu4 Sn10"
_cell_length_a       9.45987
_cell_length_b       4.6323
_cell_length_c       10.4449
_cell_angle_alpha    90
_cell_angle_beta     91.8599
_cell_angle_gamma    90

_space_group_name_H-M_alt    "P 1"
_space_group_IT_number       1

loop_
  _space_group_symop_operation_xyz
  'x, y, z'

loop_
  _atom_site_type_symbol
  _atom_site_label
  _atom_site_symmetry_multiplicity
  _atom_site_fract_x
  _atom_site_fract_y
  _atom_site_fract_z
  _atom_site_occupancy
  Au  Au1       1.0  0.82100  0.25000  0.02770  1.0000
  Au  Au2       1.0  0.14400  0.25000  0.37200  1.0000
  Au  Au3       1.0  0.85600  0.75000  0.62800  1.0000
  Au  Au4       1.0  0.17900  0.75000  0.97200  1.0000
  Eu  Eu1       1.0  0.90300  0.75000  0.24600  1.0000
  Eu  Eu2       1.0  0.35800  0.75000  0.24700  1.0000
  Eu  Eu3       1.0  0.64200  0.25000  0.75300  1.0000
  Eu  Eu4       1.0  0.09660  0.25000  0.75400  1.0000
  Sn  Sn1       1.0  0.61500  0.75000  0.01750  1.0000
  Sn  Sn2       1.0  0.10700  0.25000  0.11300  1.0000
  Sn  Sn3       1.0  0.62900  0.25000  0.24300  1.0000
  Sn  Sn4       1.0  0.86400  0.25000  0.47600  1.0000
  Sn  Sn5       1.0  0.60500  0.75000  0.47800  1.0000
  Sn  Sn6       1.0  0.39500  0.25000  0.52200  1.0000
  Sn  Sn7       1.0  0.13600  0.75000  0.52400  1.0000
  Sn  Sn8       1.0  0.37100  0.75000  0.75700  1.0000
  Sn  Sn9       1.0  0.89300  0.75000  0.88700  1.0000
  Sn  Sn10      1.0  0.38500  0.25000  0.98300  1.0000
