data_image0
_chemical_formula_structural       Ba2F10I2Pb4
_chemical_formula_sum              "Ba2 F10 I2 Pb4"
_cell_length_a       5.97546
_cell_length_b       5.97546
_cell_length_c       9.75309
_cell_angle_alpha    90
_cell_angle_beta     90
_cell_angle_gamma    90

_space_group_name_H-M_alt    "P 1"
_space_group_IT_number       1

loop_
  _space_group_symop_operation_xyz
  'x, y, z'

loop_
  _atom_site_type_symbol
  _atom_site_label
  _atom_site_symmetry_multiplicity
  _atom_site_fract_x
  _atom_site_fract_y
  _atom_site_fract_z
  _atom_site_occupancy
  Ba  Ba1       1.0  0.75000  0.25000  0.00000  1.0000
  Ba  Ba2       1.0  0.25000  0.75000  0.00000  1.0000
  F   F1        1.0  0.25000  0.25000  0.03390  1.0000
  F   F2        1.0  0.51400  0.51400  0.18500  1.0000
  F   F3        1.0  0.98600  0.51400  0.18500  1.0000
  F   F4        1.0  0.51400  0.98600  0.18500  1.0000
  F   F5        1.0  0.98600  0.98600  0.18500  1.0000
  F   F6        1.0  0.01420  0.01420  0.81500  1.0000
  F   F7        1.0  0.48600  0.01420  0.81500  1.0000
  F   F8        1.0  0.01420  0.48600  0.81500  1.0000
  F   F9        1.0  0.48600  0.48600  0.81500  1.0000
  F   F10       1.0  0.75000  0.75000  0.96600  1.0000
  I   I1        1.0  0.75000  0.25000  0.50000  1.0000
  I   I2        1.0  0.25000  0.75000  0.50000  1.0000
  Pb  Pb1       1.0  0.25000  0.25000  0.27500  1.0000
  Pb  Pb2       1.0  0.75000  0.75000  0.31800  1.0000
  Pb  Pb3       1.0  0.25000  0.25000  0.68200  1.0000
  Pb  Pb4       1.0  0.75000  0.75000  0.72500  1.0000
