data_image0
_chemical_formula_structural       I2La10Pb6
_chemical_formula_sum              "I2 La10 Pb6"
_cell_length_a       9.85193
_cell_length_b       9.85193
_cell_length_c       7.09838
_cell_angle_alpha    90
_cell_angle_beta     90
_cell_angle_gamma    120

_space_group_name_H-M_alt    "P 1"
_space_group_IT_number       1

loop_
  _space_group_symop_operation_xyz
  'x, y, z'

loop_
  _atom_site_type_symbol
  _atom_site_label
  _atom_site_symmetry_multiplicity
  _atom_site_fract_x
  _atom_site_fract_y
  _atom_site_fract_z
  _atom_site_occupancy
  I   I1        1.0  0.00000  0.00000  0.00000  1.0000
  I   I2        1.0  1.00000  1.00000  0.50000  1.0000
  La  La1       1.0  0.66700  0.33300  0.00000  1.0000
  La  La2       1.0  0.33300  0.66700  0.00000  1.0000
  La  La3       1.0  0.72500  0.72500  0.25000  1.0000
  La  La4       1.0  0.27500  0.99999  0.25000  1.0000
  La  La5       1.0  1.00000  0.27500  0.25000  1.0000
  La  La6       1.0  0.66700  0.33300  0.50000  1.0000
  La  La7       1.0  0.33300  0.66700  0.50000  1.0000
  La  La8       1.0  0.27500  0.27500  0.75000  1.0000
  La  La9       1.0  0.72500  0.00001  0.75000  1.0000
  La  La10      1.0  0.00001  0.72500  0.75000  1.0000
  Pb  Pb1       1.0  0.61500  0.00000  0.25000  1.0000
  Pb  Pb2       1.0  0.00000  0.61500  0.25000  1.0000
  Pb  Pb3       1.0  0.38500  0.38500  0.25000  1.0000
  Pb  Pb4       1.0  0.38500  1.00000  0.75000  1.0000
  Pb  Pb5       1.0  1.00000  0.38500  0.75000  1.0000
  Pb  Pb6       1.0  0.61500  0.61500  0.75000  1.0000
