data_image0
_chemical_formula_structural       O8Rb8Sn2
_chemical_formula_sum              "O8 Rb8 Sn2"
_cell_length_a       6.7738
_cell_length_b       6.7759
_cell_length_c       10.1009
_cell_angle_alpha    71.4955
_cell_angle_beta     79.1248
_cell_angle_gamma    66.6304

_space_group_name_H-M_alt    "P 1"
_space_group_IT_number       1

loop_
  _space_group_symop_operation_xyz
  'x, y, z'

loop_
  _atom_site_type_symbol
  _atom_site_label
  _atom_site_symmetry_multiplicity
  _atom_site_fract_x
  _atom_site_fract_y
  _atom_site_fract_z
  _atom_site_occupancy
  O   O1        1.0  0.12600  0.16100  0.09380  1.0000
  O   O2        1.0  0.46500  0.33600  0.18800  1.0000
  O   O3        1.0  0.45300  0.84900  0.35300  1.0000
  O   O4        1.0  0.03460  0.30300  0.37400  1.0000
  O   O5        1.0  0.96500  0.69700  0.62600  1.0000
  O   O6        1.0  0.54700  0.15100  0.64700  1.0000
  O   O7        1.0  0.53500  0.66400  0.81200  1.0000
  O   O8        1.0  0.87400  0.83900  0.90600  1.0000
  Rb  Rb1       1.0  0.23600  0.76200  0.03210  1.0000
  Rb  Rb2       1.0  0.74100  0.59500  0.16300  1.0000
  Rb  Rb3       1.0  0.78600  0.03220  0.37800  1.0000
  Rb  Rb4       1.0  0.27700  0.50900  0.44000  1.0000
  Rb  Rb5       1.0  0.72300  0.49100  0.56000  1.0000
  Rb  Rb6       1.0  0.21400  0.96800  0.62200  1.0000
  Rb  Rb7       1.0  0.25900  0.40500  0.83700  1.0000
  Rb  Rb8       1.0  0.76400  0.23800  0.96800  1.0000
  Sn  Sn1       1.0  0.27500  0.15600  0.24700  1.0000
  Sn  Sn2       1.0  0.72500  0.84400  0.75300  1.0000
