data_image0
_chemical_formula_structural       Al16Ca24N32
_chemical_formula_sum              "Al16 Ca24 N32"
_cell_length_a       5.78252
_cell_length_b       10.6376
_cell_length_c       15.7762
_cell_angle_alpha    90
_cell_angle_beta     90
_cell_angle_gamma    90

_space_group_name_H-M_alt    "P 1"
_space_group_IT_number       1

loop_
  _space_group_symop_operation_xyz
  'x, y, z'

loop_
  _atom_site_type_symbol
  _atom_site_label
  _atom_site_symmetry_multiplicity
  _atom_site_fract_x
  _atom_site_fract_y
  _atom_site_fract_z
  _atom_site_occupancy
  Al  Al1       1.0  0.48300  0.00827  0.00704  1.0000
  Al  Al2       1.0  0.01670  0.99200  0.50700  1.0000
  Al  Al3       1.0  0.98300  0.49200  0.99300  1.0000
  Al  Al4       1.0  0.51700  0.50800  0.49300  1.0000
  Al  Al5       1.0  0.24100  0.24300  0.12900  1.0000
  Al  Al6       1.0  0.25900  0.75700  0.62900  1.0000
  Al  Al7       1.0  0.74100  0.25700  0.87100  1.0000
  Al  Al8       1.0  0.75900  0.74300  0.37100  1.0000
  Al  Al9       1.0  0.24200  0.74700  0.24800  1.0000
  Al  Al10      1.0  0.25800  0.25300  0.74800  1.0000
  Al  Al11      1.0  0.74200  0.75300  0.75200  1.0000
  Al  Al12      1.0  0.75800  0.24700  0.25200  1.0000
  Al  Al13      1.0  0.00641  0.01700  0.13100  1.0000
  Al  Al14      1.0  0.49400  0.98300  0.63100  1.0000
  Al  Al15      1.0  0.50600  0.48300  0.86900  1.0000
  Al  Al16      1.0  0.99400  0.51700  0.36900  1.0000
  Ca  Ca1       1.0  0.29300  0.24400  0.56100  1.0000
  Ca  Ca2       1.0  0.20700  0.75600  0.06120  1.0000
  Ca  Ca3       1.0  0.79300  0.25600  0.43900  1.0000
  Ca  Ca4       1.0  0.70700  0.74400  0.93900  1.0000
  Ca  Ca5       1.0  0.26300  0.26300  0.33300  1.0000
  Ca  Ca6       1.0  0.23700  0.73700  0.83300  1.0000
  Ca  Ca7       1.0  0.76300  0.23700  0.66700  1.0000
  Ca  Ca8       1.0  0.73700  0.76300  0.16700  1.0000
  Ca  Ca9       1.0  0.02870  0.50600  0.18000  1.0000
  Ca  Ca10      1.0  0.47100  0.49400  0.68000  1.0000
  Ca  Ca11      1.0  0.52900  0.99400  0.82000  1.0000
  Ca  Ca12      1.0  0.97100  0.00624  0.32000  1.0000
  Ca  Ca13      1.0  0.77900  0.23200  0.05870  1.0000
  Ca  Ca14      1.0  0.72100  0.76800  0.55900  1.0000
  Ca  Ca15      1.0  0.27900  0.26800  0.94100  1.0000
  Ca  Ca16      1.0  0.22100  0.73200  0.44100  1.0000
  Ca  Ca17      1.0  0.50100  0.48900  0.07300  1.0000
  Ca  Ca18      1.0  0.99900  0.51100  0.57300  1.0000
  Ca  Ca19      1.0  0.00067  0.01120  0.92700  1.0000
  Ca  Ca20      1.0  0.49900  0.98900  0.42700  1.0000
  Ca  Ca21      1.0  0.46100  0.02200  0.20600  1.0000
  Ca  Ca22      1.0  0.03890  0.97800  0.70600  1.0000
  Ca  Ca23      1.0  0.96100  0.47800  0.79400  1.0000
  Ca  Ca24      1.0  0.53900  0.52200  0.29400  1.0000
  N   N1        1.0  0.52700  0.29600  0.17200  1.0000
  N   N2        1.0  0.97300  0.70400  0.67200  1.0000
  N   N3        1.0  0.02710  0.20400  0.82800  1.0000
  N   N4        1.0  0.47300  0.79600  0.32800  1.0000
  N   N5        1.0  0.28500  0.47200  0.41100  1.0000
  N   N6        1.0  0.21500  0.52800  0.91100  1.0000
  N   N7        1.0  0.78500  0.02800  0.58900  1.0000
  N   N8        1.0  0.71500  0.97200  0.08930  1.0000
  N   N9        1.0  0.12000  0.37300  0.06570  1.0000
  N   N10       1.0  0.38000  0.62700  0.56600  1.0000
  N   N11       1.0  0.62000  0.12700  0.93400  1.0000
  N   N12       1.0  0.88000  0.87300  0.43400  1.0000
  N   N13       1.0  0.62000  0.13100  0.32700  1.0000
  N   N14       1.0  0.88000  0.86900  0.82700  1.0000
  N   N15       1.0  0.12000  0.36900  0.67300  1.0000
  N   N16       1.0  0.38000  0.63100  0.17300  1.0000
  N   N17       1.0  0.22200  0.09670  0.05380  1.0000
  N   N18       1.0  0.27800  0.90300  0.55400  1.0000
  N   N19       1.0  0.72200  0.40300  0.94600  1.0000
  N   N20       1.0  0.77800  0.59700  0.44600  1.0000
  N   N21       1.0  0.02670  0.16400  0.20500  1.0000
  N   N22       1.0  0.47300  0.83600  0.70500  1.0000
  N   N23       1.0  0.52700  0.33600  0.79500  1.0000
  N   N24       1.0  0.97300  0.66400  0.29500  1.0000
  N   N25       1.0  0.13400  0.12700  0.44200  1.0000
  N   N26       1.0  0.36600  0.87300  0.94200  1.0000
  N   N27       1.0  0.63400  0.37300  0.55800  1.0000
  N   N28       1.0  0.86600  0.62700  0.05820  1.0000
  N   N29       1.0  0.37300  0.11600  0.68900  1.0000
  N   N30       1.0  0.12700  0.88400  0.18900  1.0000
  N   N31       1.0  0.87300  0.38400  0.31100  1.0000
  N   N32       1.0  0.62700  0.61600  0.81100  1.0000
