data_image0
_chemical_formula_structural       K2Na2Nd2O10Ta2
_chemical_formula_sum              "K2 Na2 Nd2 O10 Ta2"
_cell_length_a       5.72252
_cell_length_b       5.72252
_cell_length_c       8.2283
_cell_angle_alpha    90
_cell_angle_beta     90
_cell_angle_gamma    90

_space_group_name_H-M_alt    "P 1"
_space_group_IT_number       1

loop_
  _space_group_symop_operation_xyz
  'x, y, z'

loop_
  _atom_site_type_symbol
  _atom_site_label
  _atom_site_symmetry_multiplicity
  _atom_site_fract_x
  _atom_site_fract_y
  _atom_site_fract_z
  _atom_site_occupancy
  K   K1        1.0  0.75000  0.25000  0.00000  1.0000
  K   K2        1.0  0.25000  0.75000  0.00000  1.0000
  Na  Na1       1.0  0.75000  0.75000  0.24000  1.0000
  Na  Na2       1.0  0.25000  0.25000  0.76000  1.0000
  Nd  Nd1       1.0  0.75000  0.25000  0.50000  1.0000
  Nd  Nd2       1.0  0.25000  0.75000  0.50000  1.0000
  O   O1        1.0  0.25000  0.25000  0.03200  1.0000
  O   O2        1.0  0.01820  0.01820  0.32800  1.0000
  O   O3        1.0  0.48200  0.01820  0.32800  1.0000
  O   O4        1.0  0.01820  0.48200  0.32800  1.0000
  O   O5        1.0  0.48200  0.48200  0.32800  1.0000
  O   O6        1.0  0.51800  0.51800  0.67200  1.0000
  O   O7        1.0  0.98200  0.51800  0.67200  1.0000
  O   O8        1.0  0.51800  0.98200  0.67200  1.0000
  O   O9        1.0  0.98200  0.98200  0.67200  1.0000
  O   O10       1.0  0.75000  0.75000  0.96800  1.0000
  Ta  Ta1       1.0  0.25000  0.25000  0.25800  1.0000
  Ta  Ta2       1.0  0.75000  0.75000  0.74200  1.0000
