data_image0
_chemical_formula_structural       Br12Ta2Te4
_chemical_formula_sum              "Br12 Ta2 Te4"
_cell_length_a       6.95147
_cell_length_b       7.20925
_cell_length_c       12.5946
_cell_angle_alpha    95.5887
_cell_angle_beta     98.4204
_cell_angle_gamma    84.4614

_space_group_name_H-M_alt    "P 1"
_space_group_IT_number       1

loop_
  _space_group_symop_operation_xyz
  'x, y, z'

loop_
  _atom_site_type_symbol
  _atom_site_label
  _atom_site_symmetry_multiplicity
  _atom_site_fract_x
  _atom_site_fract_y
  _atom_site_fract_z
  _atom_site_occupancy
  Br  Br1       1.0  0.90700  0.24700  0.01090  1.0000
  Br  Br2       1.0  0.62700  0.63200  0.13500  1.0000
  Br  Br3       1.0  0.49800  0.15700  0.14000  1.0000
  Br  Br4       1.0  0.11100  0.47500  0.26100  1.0000
  Br  Br5       1.0  0.96300  0.01880  0.26500  1.0000
  Br  Br6       1.0  0.69500  0.41800  0.38200  1.0000
  Br  Br7       1.0  0.30500  0.58200  0.61800  1.0000
  Br  Br8       1.0  0.03700  0.98100  0.73500  1.0000
  Br  Br9       1.0  0.88900  0.52500  0.73900  1.0000
  Br  Br10      1.0  0.50200  0.84300  0.86000  1.0000
  Br  Br11      1.0  0.37300  0.36800  0.86500  1.0000
  Br  Br12      1.0  0.09320  0.75300  0.98900  1.0000
  Ta  Ta1       1.0  0.79500  0.33000  0.18700  1.0000
  Ta  Ta2       1.0  0.20500  0.67000  0.81300  1.0000
  Te  Te1       1.0  0.42100  0.84300  0.37100  1.0000
  Te  Te2       1.0  0.26300  0.16100  0.47200  1.0000
  Te  Te3       1.0  0.73700  0.83900  0.52800  1.0000
  Te  Te4       1.0  0.57900  0.15700  0.62900  1.0000
