data_image0
_chemical_formula_structural       Al2Br14Se2
_chemical_formula_sum              "Al2 Br14 Se2"
_cell_length_a       6.8226
_cell_length_b       6.68505
_cell_length_c       14.6321
_cell_angle_alpha    90
_cell_angle_beta     102.622
_cell_angle_gamma    90

_space_group_name_H-M_alt    "P 1"
_space_group_IT_number       1

loop_
  _space_group_symop_operation_xyz
  'x, y, z'

loop_
  _atom_site_type_symbol
  _atom_site_label
  _atom_site_symmetry_multiplicity
  _atom_site_fract_x
  _atom_site_fract_y
  _atom_site_fract_z
  _atom_site_occupancy
  Al  Al1       1.0  0.70200  0.00239  0.33700  1.0000
  Al  Al2       1.0  0.70200  0.99800  0.83700  1.0000
  Br  Br1       1.0  0.19600  0.81500  0.10400  1.0000
  Br  Br2       1.0  0.87800  0.38200  0.10400  1.0000
  Br  Br3       1.0  0.48100  0.14100  0.20800  1.0000
  Br  Br4       1.0  0.67300  0.65800  0.33000  1.0000
  Br  Br5       1.0  0.02510  0.11700  0.33500  1.0000
  Br  Br6       1.0  0.25500  0.60800  0.46000  1.0000
  Br  Br7       1.0  0.63000  0.12700  0.47500  1.0000
  Br  Br8       1.0  0.19600  0.18500  0.60400  1.0000
  Br  Br9       1.0  0.87800  0.61800  0.60400  1.0000
  Br  Br10      1.0  0.48100  0.85900  0.70800  1.0000
  Br  Br11      1.0  0.67300  0.34200  0.83000  1.0000
  Br  Br12      1.0  0.02510  0.88300  0.83500  1.0000
  Br  Br13      1.0  0.25500  0.39200  0.96000  1.0000
  Br  Br14      1.0  0.63000  0.87300  0.97500  1.0000
  Se  Se1       1.0  0.99500  0.58900  0.99700  1.0000
  Se  Se2       1.0  0.99500  0.41100  0.49700  1.0000
