data_image0
_chemical_formula_structural       Cr10P6U2
_chemical_formula_sum              "Cr10 P6 U2"
_cell_length_a       9.47763
_cell_length_b       3.72721
_cell_length_c       6.75705
_cell_angle_alpha    90
_cell_angle_beta     98.1992
_cell_angle_gamma    90

_space_group_name_H-M_alt    "P 1"
_space_group_IT_number       1

loop_
  _space_group_symop_operation_xyz
  'x, y, z'

loop_
  _atom_site_type_symbol
  _atom_site_label
  _atom_site_symmetry_multiplicity
  _atom_site_fract_x
  _atom_site_fract_y
  _atom_site_fract_z
  _atom_site_occupancy
  Cr  Cr1       1.0  0.10200  0.75000  0.08460  1.0000
  Cr  Cr2       1.0  0.50900  0.25000  0.16200  1.0000
  Cr  Cr3       1.0  0.27900  0.25000  0.32300  1.0000
  Cr  Cr4       1.0  0.51300  0.75000  0.39600  1.0000
  Cr  Cr5       1.0  0.06980  0.75000  0.45900  1.0000
  Cr  Cr6       1.0  0.93000  0.25000  0.54100  1.0000
  Cr  Cr7       1.0  0.48700  0.25000  0.60400  1.0000
  Cr  Cr8       1.0  0.72100  0.75000  0.67700  1.0000
  Cr  Cr9       1.0  0.49100  0.75000  0.83800  1.0000
  Cr  Cr10      1.0  0.89800  0.25000  0.91500  1.0000
  P   P1        1.0  0.34800  0.75000  0.10100  1.0000
  P   P2        1.0  0.02060  0.25000  0.23700  1.0000
  P   P3        1.0  0.68800  0.25000  0.44300  1.0000
  P   P4        1.0  0.31200  0.75000  0.55700  1.0000
  P   P5        1.0  0.97900  0.75000  0.76300  1.0000
  P   P6        1.0  0.65200  0.25000  0.89900  1.0000
  U   U1        1.0  0.78400  0.75000  0.17900  1.0000
  U   U2        1.0  0.21600  0.25000  0.82100  1.0000
