data_image0
_chemical_formula_structural       Ge8Mo6U4
_chemical_formula_sum              "Ge8 Mo6 U4"
_cell_length_a       7.02233
_cell_length_b       7.02108
_cell_length_c       6.93984
_cell_angle_alpha    90
_cell_angle_beta     110.063
_cell_angle_gamma    90

_space_group_name_H-M_alt    "P 1"
_space_group_IT_number       1

loop_
  _space_group_symop_operation_xyz
  'x, y, z'

loop_
  _atom_site_type_symbol
  _atom_site_label
  _atom_site_symmetry_multiplicity
  _atom_site_fract_x
  _atom_site_fract_y
  _atom_site_fract_z
  _atom_site_occupancy
  Ge  Ge1       1.0  0.90400  0.45200  0.13500  1.0000
  Ge  Ge2       1.0  0.49600  0.85900  0.13800  1.0000
  Ge  Ge3       1.0  0.50400  0.35900  0.36200  1.0000
  Ge  Ge4       1.0  0.09630  0.95200  0.36500  1.0000
  Ge  Ge5       1.0  0.90400  0.04790  0.63500  1.0000
  Ge  Ge6       1.0  0.49600  0.64100  0.63800  1.0000
  Ge  Ge7       1.0  0.50400  0.14100  0.86200  1.0000
  Ge  Ge8       1.0  0.09630  0.54800  0.86500  1.0000
  Mo  Mo1       1.0  0.50000  0.50000  0.00000  1.0000
  Mo  Mo2       1.0  0.75700  0.15400  0.24500  1.0000
  Mo  Mo3       1.0  0.24300  0.65400  0.25500  1.0000
  Mo  Mo4       1.0  0.50000  0.00000  0.50000  1.0000
  Mo  Mo5       1.0  0.75700  0.34600  0.74500  1.0000
  Mo  Mo6       1.0  0.24300  0.84600  0.75500  1.0000
  U   U1        1.0  0.18400  0.16400  0.04920  1.0000
  U   U2        1.0  0.81600  0.66400  0.45100  1.0000
  U   U3        1.0  0.18400  0.33600  0.54900  1.0000
  U   U4        1.0  0.81600  0.83600  0.95100  1.0000
