data_image0
_chemical_formula_structural       BO4P
_chemical_formula_sum              "B1 O4 P1"
_cell_length_a       4.28601
_cell_length_b       4.28601
_cell_length_c       4.48567
_cell_angle_alpha    118.538
_cell_angle_beta     118.538
_cell_angle_gamma    90

_space_group_name_H-M_alt    "P 1"
_space_group_IT_number       1

loop_
  _space_group_symop_operation_xyz
  'x, y, z'

loop_
  _atom_site_type_symbol
  _atom_site_label
  _atom_site_symmetry_multiplicity
  _atom_site_fract_x
  _atom_site_fract_y
  _atom_site_fract_z
  _atom_site_occupancy
  B   B1        1.0  0.25000  0.75000  0.50000  1.0000
  O   O1        1.0  0.97500  0.38700  0.25300  1.0000
  O   O2        1.0  0.27900  0.86700  0.25300  1.0000
  O   O3        1.0  0.13300  0.02510  0.74700  1.0000
  O   O4        1.0  0.61300  0.72100  0.74700  1.0000
  P   P1        1.0  0.00000  0.00000  0.00000  1.0000
