data_image0
_chemical_formula_structural       As2Li2O12U2
_chemical_formula_sum              "As2 Li2 O12 U2"
_cell_length_a       5.0091
_cell_length_b       5.2677
_cell_length_c       10.1613
_cell_angle_alpha    90.1908
_cell_angle_beta     97.7032
_cell_angle_gamma    105.766

_space_group_name_H-M_alt    "P 1"
_space_group_IT_number       1

loop_
  _space_group_symop_operation_xyz
  'x, y, z'

loop_
  _atom_site_type_symbol
  _atom_site_label
  _atom_site_symmetry_multiplicity
  _atom_site_fract_x
  _atom_site_fract_y
  _atom_site_fract_z
  _atom_site_occupancy
  As  As1       1.0  0.58100  0.97100  0.25700  1.0000
  As  As2       1.0  0.41900  0.02910  0.74300  1.0000
  Li  Li1       1.0  0.95000  0.55100  0.22900  1.0000
  Li  Li2       1.0  0.04970  0.44900  0.77100  1.0000
  O   O1        1.0  0.75100  0.68700  0.00921  1.0000
  O   O2        1.0  0.80300  0.17300  0.16200  1.0000
  O   O3        1.0  0.26000  0.83200  0.16400  1.0000
  O   O4        1.0  0.72000  0.72800  0.32300  1.0000
  O   O5        1.0  0.53700  0.15400  0.38500  1.0000
  O   O6        1.0  0.17200  0.48100  0.39800  1.0000
  O   O7        1.0  0.82800  0.51900  0.60200  1.0000
  O   O8        1.0  0.46300  0.84600  0.61500  1.0000
  O   O9        1.0  0.28000  0.27200  0.67700  1.0000
  O   O10       1.0  0.74000  0.16800  0.83600  1.0000
  O   O11       1.0  0.19700  0.82700  0.83800  1.0000
  O   O12       1.0  0.24900  0.31300  0.99100  1.0000
  U   U1        1.0  0.00000  0.00000  0.00000  1.0000
  U   U2        1.0  0.50000  0.50000  0.50000  1.0000
