data_image0
_chemical_formula_structural       Er12Ni4Sn2
_chemical_formula_sum              "Er12 Ni4 Sn2"
_cell_length_a       8.32516
_cell_length_b       8.32516
_cell_length_c       8.32516
_cell_angle_alpha    109.763
_cell_angle_beta     105.941
_cell_angle_gamma    112.782

_space_group_name_H-M_alt    "P 1"
_space_group_IT_number       1

loop_
  _space_group_symop_operation_xyz
  'x, y, z'

loop_
  _atom_site_type_symbol
  _atom_site_label
  _atom_site_symmetry_multiplicity
  _atom_site_fract_x
  _atom_site_fract_y
  _atom_site_fract_z
  _atom_site_occupancy
  Er  Er1       1.0  0.73400  0.29500  0.02880  1.0000
  Er  Er2       1.0  0.20900  0.39200  0.18300  1.0000
  Er  Er3       1.0  0.79100  0.97400  0.18300  1.0000
  Er  Er4       1.0  0.13300  0.80800  0.32500  1.0000
  Er  Er5       1.0  0.51700  0.19200  0.32500  1.0000
  Er  Er6       1.0  0.73400  0.70500  0.43900  1.0000
  Er  Er7       1.0  0.26600  0.29500  0.56100  1.0000
  Er  Er8       1.0  0.86700  0.19200  0.67500  1.0000
  Er  Er9       1.0  0.48300  0.80800  0.67500  1.0000
  Er  Er10      1.0  0.20900  0.02620  0.81700  1.0000
  Er  Er11      1.0  0.79100  0.60800  0.81700  1.0000
  Er  Er12      1.0  0.26600  0.70500  0.97100  1.0000
  Ni  Ni1       1.0  0.12400  0.00000  0.12400  1.0000
  Ni  Ni2       1.0  0.50000  0.85100  0.35100  1.0000
  Ni  Ni3       1.0  0.50000  0.14900  0.64900  1.0000
  Ni  Ni4       1.0  0.87600  0.00000  0.87600  1.0000
  Sn  Sn1       1.0  0.50000  0.50000  0.00000  1.0000
  Sn  Sn2       1.0  0.00000  0.50000  0.50000  1.0000
