data_image0
_chemical_formula_structural       B6C4Nb8
_chemical_formula_sum              "B6 C4 Nb8"
_cell_length_a       18.9972
_cell_length_b       3.25659
_cell_length_c       3.14981
_cell_angle_alpha    90
_cell_angle_beta     90
_cell_angle_gamma    94.917

_space_group_name_H-M_alt    "P 1"
_space_group_IT_number       1

loop_
  _space_group_symop_operation_xyz
  'x, y, z'

loop_
  _atom_site_type_symbol
  _atom_site_label
  _atom_site_symmetry_multiplicity
  _atom_site_fract_x
  _atom_site_fract_y
  _atom_site_fract_z
  _atom_site_occupancy
  B   B1        1.0  0.02360  0.01180  0.25000  1.0000
  B   B2        1.0  0.12100  0.06030  0.25000  1.0000
  B   B3        1.0  0.82900  0.91500  0.25000  1.0000
  B   B4        1.0  0.17100  0.08540  0.75000  1.0000
  B   B5        1.0  0.87900  0.94000  0.75000  1.0000
  B   B6        1.0  0.97600  0.98800  0.75000  1.0000
  C   C1        1.0  0.32300  0.66200  0.25000  1.0000
  C   C2        1.0  0.56000  0.78000  0.25000  1.0000
  C   C3        1.0  0.44000  0.22000  0.75000  1.0000
  C   C4        1.0  0.67700  0.33800  0.75000  1.0000
  Nb  Nb1       1.0  0.92800  0.46400  0.25000  1.0000
  Nb  Nb2       1.0  0.21100  0.60500  0.25000  1.0000
  Nb  Nb3       1.0  0.43900  0.71900  0.25000  1.0000
  Nb  Nb4       1.0  0.67600  0.83800  0.25000  1.0000
  Nb  Nb5       1.0  0.32400  0.16200  0.75000  1.0000
  Nb  Nb6       1.0  0.56100  0.28100  0.75000  1.0000
  Nb  Nb7       1.0  0.78900  0.39500  0.75000  1.0000
  Nb  Nb8       1.0  0.07170  0.53600  0.75000  1.0000
