data_image0
_chemical_formula_structural       BaI4O12Pd
_chemical_formula_sum              "Ba1 I4 O12 Pd1"
_cell_length_a       5.67621
_cell_length_b       7.2573
_cell_length_c       7.96021
_cell_angle_alpha    105.412
_cell_angle_beta     93.7691
_cell_angle_gamma    112.706

_space_group_name_H-M_alt    "P 1"
_space_group_IT_number       1

loop_
  _space_group_symop_operation_xyz
  'x, y, z'

loop_
  _atom_site_type_symbol
  _atom_site_label
  _atom_site_symmetry_multiplicity
  _atom_site_fract_x
  _atom_site_fract_y
  _atom_site_fract_z
  _atom_site_occupancy
  Ba  Ba1       1.0  0.04010  0.74600  0.74300  1.0000
  I   I1        1.0  0.71700  0.05520  0.09390  1.0000
  I   I2        1.0  0.33300  0.42600  0.43400  1.0000
  I   I3        1.0  0.65200  0.08780  0.59900  1.0000
  I   I4        1.0  0.34700  0.39500  0.92300  1.0000
  O   O1        1.0  0.36500  0.97100  0.11400  1.0000
  O   O2        1.0  0.46900  0.40300  0.14500  1.0000
  O   O3        1.0  0.85000  0.07040  0.31700  1.0000
  O   O4        1.0  0.08930  0.51100  0.34400  1.0000
  O   O5        1.0  0.30800  0.94800  0.47200  1.0000
  O   O6        1.0  0.60700  0.68700  0.52200  1.0000
  O   O7        1.0  0.66100  0.34700  0.61600  1.0000
  O   O8        1.0  0.19800  0.42700  0.64000  1.0000
  O   O9        1.0  0.52800  0.07430  0.80700  1.0000
  O   O10       1.0  0.06150  0.14000  0.85000  1.0000
  O   O11       1.0  0.70600  0.80000  0.97100  1.0000
  O   O12       1.0  0.13100  0.53600  0.98300  1.0000
  Pd  Pd1       1.0  0.23300  0.74100  0.23000  1.0000
