data_image0
_chemical_formula_structural       As2O6Sr
_chemical_formula_sum              "As2 O6 Sr1"
_cell_length_a       4.89505
_cell_length_b       4.89507
_cell_length_c       5.38251
_cell_angle_alpha    90.0005
_cell_angle_beta     89.9998
_cell_angle_gamma    120

_space_group_name_H-M_alt    "P 1"
_space_group_IT_number       1

loop_
  _space_group_symop_operation_xyz
  'x, y, z'

loop_
  _atom_site_type_symbol
  _atom_site_label
  _atom_site_symmetry_multiplicity
  _atom_site_fract_x
  _atom_site_fract_y
  _atom_site_fract_z
  _atom_site_occupancy
  As  As1       1.0  0.66700  0.33300  0.50000  1.0000
  As  As2       1.0  0.33300  0.66700  0.50000  1.0000
  O   O1        1.0  0.38200  0.00000  0.30500  1.0000
  O   O2        1.0  0.61800  0.61800  0.30500  1.0000
  O   O3        1.0  0.00000  0.38200  0.30500  1.0000
  O   O4        1.0  0.00000  0.61800  0.69500  1.0000
  O   O5        1.0  0.61800  0.00000  0.69500  1.0000
  O   O6        1.0  0.38200  0.38200  0.69500  1.0000
  Sr  Sr1       1.0  0.00000  0.00000  0.00000  1.0000
