data_image0
_chemical_formula_structural       In6S10Tl2
_chemical_formula_sum              "In6 S10 Tl2"
_cell_length_a       3.88579
_cell_length_b       10.4785
_cell_length_c       11.8071
_cell_angle_alpha    105.291
_cell_angle_beta     99.4713
_cell_angle_gamma    100.685

_space_group_name_H-M_alt    "P 1"
_space_group_IT_number       1

loop_
  _space_group_symop_operation_xyz
  'x, y, z'

loop_
  _atom_site_type_symbol
  _atom_site_label
  _atom_site_symmetry_multiplicity
  _atom_site_fract_x
  _atom_site_fract_y
  _atom_site_fract_z
  _atom_site_occupancy
  In  In1       1.0  0.00000  0.00000  0.00000  1.0000
  In  In2       1.0  0.74100  0.28900  0.19400  1.0000
  In  In3       1.0  0.73900  0.07650  0.40200  1.0000
  In  In4       1.0  0.50000  0.50000  0.50000  1.0000
  In  In5       1.0  0.26100  0.92300  0.59800  1.0000
  In  In6       1.0  0.25900  0.71100  0.80600  1.0000
  S   S1        1.0  0.16400  0.27900  0.04870  1.0000
  S   S2        1.0  0.59200  0.02860  0.15600  1.0000
  S   S3        1.0  0.93300  0.52100  0.34400  1.0000
  S   S4        1.0  0.13100  0.89200  0.37100  1.0000
  S   S5        1.0  0.31600  0.24400  0.38700  1.0000
  S   S6        1.0  0.68400  0.75600  0.61300  1.0000
  S   S7        1.0  0.86900  0.10800  0.62900  1.0000
  S   S8        1.0  0.06730  0.47900  0.65600  1.0000
  S   S9        1.0  0.40800  0.97100  0.84400  1.0000
  S   S10       1.0  0.83600  0.72100  0.95100  1.0000
  Tl  Tl1       1.0  0.43700  0.67500  0.19900  1.0000
  Tl  Tl2       1.0  0.56300  0.32500  0.80100  1.0000
