data_image0
_chemical_formula_structural       C4La4N8O2
_chemical_formula_sum              "C4 La4 N8 O2"
_cell_length_a       6.06923
_cell_length_b       6.21679
_cell_length_c       7.40342
_cell_angle_alpha    114.826
_cell_angle_beta     103.121
_cell_angle_gamma    90

_space_group_name_H-M_alt    "P 1"
_space_group_IT_number       1

loop_
  _space_group_symop_operation_xyz
  'x, y, z'

loop_
  _atom_site_type_symbol
  _atom_site_label
  _atom_site_symmetry_multiplicity
  _atom_site_fract_x
  _atom_site_fract_y
  _atom_site_fract_z
  _atom_site_occupancy
  C   C1        1.0  0.11100  0.87900  0.30600  1.0000
  C   C2        1.0  0.61100  0.42700  0.30600  1.0000
  C   C3        1.0  0.88900  0.12100  0.69400  1.0000
  C   C4        1.0  0.38900  0.57300  0.69400  1.0000
  La  La1       1.0  0.57500  0.88600  0.20100  1.0000
  La  La2       1.0  0.07540  0.31500  0.20100  1.0000
  La  La3       1.0  0.42500  0.11400  0.79900  1.0000
  La  La4       1.0  0.92500  0.68500  0.79900  1.0000
  N   N1        1.0  0.46800  0.47500  0.18400  1.0000
  N   N2        1.0  0.96800  0.70800  0.18400  1.0000
  N   N3        1.0  0.75400  0.36600  0.41800  1.0000
  N   N4        1.0  0.25400  0.05230  0.41800  1.0000
  N   N5        1.0  0.74600  0.94800  0.58200  1.0000
  N   N6        1.0  0.24600  0.63400  0.58200  1.0000
  N   N7        1.0  0.53200  0.52500  0.81600  1.0000
  N   N8        1.0  0.03170  0.29200  0.81600  1.0000
  O   O1        1.0  0.25000  0.97400  1.00000  1.0000
  O   O2        1.0  0.75000  0.02610  0.00000  1.0000
