data_image0
_chemical_formula_structural       Ag4Cs4S8Ti2
_chemical_formula_sum              "Ag4 Cs4 S8 Ti2"
_cell_length_a       6.07768
_cell_length_b       6.07768
_cell_length_c       13.8912
_cell_angle_alpha    90
_cell_angle_beta     90
_cell_angle_gamma    90

_space_group_name_H-M_alt    "P 1"
_space_group_IT_number       1

loop_
  _space_group_symop_operation_xyz
  'x, y, z'

loop_
  _atom_site_type_symbol
  _atom_site_label
  _atom_site_symmetry_multiplicity
  _atom_site_fract_x
  _atom_site_fract_y
  _atom_site_fract_z
  _atom_site_occupancy
  Ag  Ag1       1.0  0.50000  0.00000  0.25000  1.0000
  Ag  Ag2       1.0  0.00000  0.50000  0.25000  1.0000
  Ag  Ag3       1.0  0.50000  0.00000  0.75000  1.0000
  Ag  Ag4       1.0  0.00000  0.50000  0.75000  1.0000
  Cs  Cs1       1.0  0.23300  0.23300  0.00000  1.0000
  Cs  Cs2       1.0  0.76700  0.76700  0.00000  1.0000
  Cs  Cs3       1.0  0.76700  0.23300  0.50000  1.0000
  Cs  Cs4       1.0  0.23300  0.76700  0.50000  1.0000
  S   S1        1.0  0.71400  0.28600  0.15000  1.0000
  S   S2        1.0  0.28600  0.71400  0.15000  1.0000
  S   S3        1.0  0.28600  0.28600  0.35000  1.0000
  S   S4        1.0  0.71400  0.71400  0.35000  1.0000
  S   S5        1.0  0.28600  0.28600  0.65000  1.0000
  S   S6        1.0  0.71400  0.71400  0.65000  1.0000
  S   S7        1.0  0.71400  0.28600  0.85000  1.0000
  S   S8        1.0  0.28600  0.71400  0.85000  1.0000
  Ti  Ti1       1.0  0.50000  0.50000  0.25000  1.0000
  Ti  Ti2       1.0  0.50000  0.50000  0.75000  1.0000
