data_image0
_chemical_formula_structural       O12Re4Sc2
_chemical_formula_sum              "O12 Re4 Sc2"
_cell_length_a       5.62973
_cell_length_b       4.82626
_cell_length_c       7.49037
_cell_angle_alpha    90
_cell_angle_beta     97.7
_cell_angle_gamma    90

_space_group_name_H-M_alt    "P 1"
_space_group_IT_number       1

loop_
  _space_group_symop_operation_xyz
  'x, y, z'

loop_
  _atom_site_type_symbol
  _atom_site_label
  _atom_site_symmetry_multiplicity
  _atom_site_fract_x
  _atom_site_fract_y
  _atom_site_fract_z
  _atom_site_occupancy
  O   O1        1.0  0.34200  0.73200  0.07040  1.0000
  O   O2        1.0  0.84200  0.76800  0.07040  1.0000
  O   O3        1.0  0.42100  0.21700  0.24900  1.0000
  O   O4        1.0  0.92100  0.28300  0.24900  1.0000
  O   O5        1.0  0.17400  0.82400  0.38400  1.0000
  O   O6        1.0  0.67400  0.67600  0.38400  1.0000
  O   O7        1.0  0.32600  0.32400  0.61600  1.0000
  O   O8        1.0  0.82600  0.17600  0.61600  1.0000
  O   O9        1.0  0.57900  0.78300  0.75100  1.0000
  O   O10       1.0  0.07910  0.71700  0.75100  1.0000
  O   O11       1.0  0.15800  0.23200  0.93000  1.0000
  O   O12       1.0  0.65800  0.26800  0.93000  1.0000
  Re  Re1       1.0  0.12800  0.00907  0.15100  1.0000
  Re  Re2       1.0  0.62800  0.49100  0.15100  1.0000
  Re  Re3       1.0  0.37200  0.50900  0.84900  1.0000
  Re  Re4       1.0  0.87200  0.99100  0.84900  1.0000
  Sc  Sc1       1.0  0.00000  0.50000  0.50000  1.0000
  Sc  Sc2       1.0  0.50000  0.00000  0.50000  1.0000
