data_image0
_chemical_formula_structural       Au6Sn6Yb6
_chemical_formula_sum              "Au6 Sn6 Yb6"
_cell_length_a       4.74789
_cell_length_b       8.20369
_cell_length_c       11.9223
_cell_angle_alpha    110.124
_cell_angle_beta     101.485
_cell_angle_gamma    90

_space_group_name_H-M_alt    "P 1"
_space_group_IT_number       1

loop_
  _space_group_symop_operation_xyz
  'x, y, z'

loop_
  _atom_site_type_symbol
  _atom_site_label
  _atom_site_symmetry_multiplicity
  _atom_site_fract_x
  _atom_site_fract_y
  _atom_site_fract_z
  _atom_site_occupancy
  Au  Au1       1.0  0.57700  0.74500  0.15400  1.0000
  Au  Au2       1.0  0.10000  0.26600  0.20000  1.0000
  Au  Au3       1.0  0.73800  0.57300  0.47500  1.0000
  Au  Au4       1.0  0.26200  0.09830  0.52500  1.0000
  Au  Au5       1.0  0.90000  0.06560  0.80000  1.0000
  Au  Au6       1.0  0.42300  0.59000  0.84600  1.0000
  Sn  Sn1       1.0  0.06810  0.90600  0.13600  1.0000
  Sn  Sn2       1.0  0.59400  0.43000  0.18800  1.0000
  Sn  Sn3       1.0  0.23500  0.40000  0.47000  1.0000
  Sn  Sn4       1.0  0.76500  0.93000  0.53000  1.0000
  Sn  Sn5       1.0  0.40600  0.24200  0.81200  1.0000
  Sn  Sn6       1.0  0.93200  0.76900  0.86400  1.0000
  Yb  Yb1       1.0  0.50000  0.03330  0.00000  1.0000
  Yb  Yb2       1.0  0.00000  0.46900  0.00000  1.0000
  Yb  Yb3       1.0  0.66500  0.13400  0.33100  1.0000
  Yb  Yb4       1.0  0.16800  0.70200  0.33600  1.0000
  Yb  Yb5       1.0  0.83200  0.36500  0.66400  1.0000
  Yb  Yb6       1.0  0.33500  0.80300  0.66900  1.0000
