data_image0
_chemical_formula_structural       Cl12Ta2Te4
_chemical_formula_sum              "Cl12 Ta2 Te4"
_cell_length_a       6.58923
_cell_length_b       7.55059
_cell_length_c       11.222
_cell_angle_alpha    100.602
_cell_angle_beta     102.73
_cell_angle_gamma    88.4386

_space_group_name_H-M_alt    "P 1"
_space_group_IT_number       1

loop_
  _space_group_symop_operation_xyz
  'x, y, z'

loop_
  _atom_site_type_symbol
  _atom_site_label
  _atom_site_symmetry_multiplicity
  _atom_site_fract_x
  _atom_site_fract_y
  _atom_site_fract_z
  _atom_site_occupancy
  Cl  Cl1       1.0  0.13600  0.71600  0.00241  1.0000
  Cl  Cl2       1.0  0.46200  0.19100  0.11200  1.0000
  Cl  Cl3       1.0  0.65400  0.61800  0.17700  1.0000
  Cl  Cl4       1.0  0.92900  0.03690  0.22700  1.0000
  Cl  Cl5       1.0  0.12400  0.45400  0.28200  1.0000
  Cl  Cl6       1.0  0.72100  0.36800  0.39800  1.0000
  Cl  Cl7       1.0  0.27900  0.63200  0.60200  1.0000
  Cl  Cl8       1.0  0.87600  0.54600  0.71800  1.0000
  Cl  Cl9       1.0  0.07110  0.96300  0.77300  1.0000
  Cl  Cl10      1.0  0.34600  0.38200  0.82300  1.0000
  Cl  Cl11      1.0  0.53800  0.80900  0.88800  1.0000
  Cl  Cl12      1.0  0.86400  0.28400  0.99800  1.0000
  Ta  Ta1       1.0  0.78700  0.32800  0.19300  1.0000
  Ta  Ta2       1.0  0.21300  0.67200  0.80700  1.0000
  Te  Te1       1.0  0.38100  0.90200  0.32900  1.0000
  Te  Te2       1.0  0.73600  0.84500  0.49400  1.0000
  Te  Te3       1.0  0.26400  0.15500  0.50600  1.0000
  Te  Te4       1.0  0.61900  0.09780  0.67100  1.0000
