data_image0
_chemical_formula_structural       Cl12K4Pu2
_chemical_formula_sum              "Cl12 K4 Pu2"
_cell_length_a       7.2267
_cell_length_b       7.38367
_cell_length_c       10.263
_cell_angle_alpha    90
_cell_angle_beta     90.4258
_cell_angle_gamma    90

_space_group_name_H-M_alt    "P 1"
_space_group_IT_number       1

loop_
  _space_group_symop_operation_xyz
  'x, y, z'

loop_
  _atom_site_type_symbol
  _atom_site_label
  _atom_site_symmetry_multiplicity
  _atom_site_fract_x
  _atom_site_fract_y
  _atom_site_fract_z
  _atom_site_occupancy
  Cl  Cl1       1.0  0.25000  0.25100  0.99800  1.0000
  Cl  Cl2       1.0  0.25000  0.74900  0.99800  1.0000
  Cl  Cl3       1.0  0.75000  0.25100  0.00249  1.0000
  Cl  Cl4       1.0  0.75000  0.74900  0.00249  1.0000
  Cl  Cl5       1.0  0.49100  0.50000  0.24800  1.0000
  Cl  Cl6       1.0  0.00850  0.00000  0.25200  1.0000
  Cl  Cl7       1.0  0.74900  0.24900  0.49800  1.0000
  Cl  Cl8       1.0  0.74900  0.75100  0.49800  1.0000
  Cl  Cl9       1.0  0.25100  0.24900  0.50200  1.0000
  Cl  Cl10      1.0  0.25100  0.75100  0.50200  1.0000
  Cl  Cl11      1.0  0.99100  0.00000  0.74800  1.0000
  Cl  Cl12      1.0  0.50900  0.50000  0.75200  1.0000
  K   K1        1.0  0.00807  0.50000  0.22900  1.0000
  K   K2        1.0  0.49200  0.00000  0.27100  1.0000
  K   K3        1.0  0.50800  0.00000  0.72900  1.0000
  K   K4        1.0  0.99200  0.50000  0.77100  1.0000
  Pu  Pu1       1.0  0.00000  0.00000  0.00000  1.0000
  Pu  Pu2       1.0  0.50000  0.50000  0.50000  1.0000
