data_image0
_chemical_formula_structural       O12Pb2V4
_chemical_formula_sum              "O12 Pb2 V4"
_cell_length_a       3.68858
_cell_length_b       7.92979
_cell_length_c       9.35361
_cell_angle_alpha    110.367
_cell_angle_beta     90
_cell_angle_gamma    103.449

_space_group_name_H-M_alt    "P 1"
_space_group_IT_number       1

loop_
  _space_group_symop_operation_xyz
  'x, y, z'

loop_
  _atom_site_type_symbol
  _atom_site_label
  _atom_site_symmetry_multiplicity
  _atom_site_fract_x
  _atom_site_fract_y
  _atom_site_fract_z
  _atom_site_occupancy
  O   O1        1.0  0.66600  0.33300  0.03260  1.0000
  O   O2        1.0  0.51000  0.01940  0.17000  1.0000
  O   O3        1.0  0.89100  0.78300  0.20500  1.0000
  O   O4        1.0  0.33200  0.66400  0.30500  1.0000
  O   O5        1.0  0.72600  0.45300  0.37000  1.0000
  O   O6        1.0  0.08990  0.18000  0.45300  1.0000
  O   O7        1.0  0.91000  0.82000  0.54700  1.0000
  O   O8        1.0  0.27400  0.54700  0.63000  1.0000
  O   O9        1.0  0.66800  0.33600  0.69500  1.0000
  O   O10       1.0  0.10900  0.21700  0.79500  1.0000
  O   O11       1.0  0.49000  0.98100  0.83000  1.0000
  O   O12       1.0  0.33400  0.66700  0.96700  1.0000
  Pb  Pb1       1.0  0.12700  0.25300  0.22000  1.0000
  Pb  Pb2       1.0  0.87300  0.74700  0.78000  1.0000
  V   V1        1.0  0.39600  0.79200  0.15300  1.0000
  V   V2        1.0  0.83700  0.67300  0.36800  1.0000
  V   V3        1.0  0.16300  0.32700  0.63200  1.0000
  V   V4        1.0  0.60400  0.20800  0.84700  1.0000
