data_image0
_chemical_formula_structural       K8O6Sb4
_chemical_formula_sum              "K8 O6 Sb4"
_cell_length_a       6.22385
_cell_length_b       6.22251
_cell_length_c       14.298
_cell_angle_alpha    90
_cell_angle_beta     90
_cell_angle_gamma    120.007

_space_group_name_H-M_alt    "P 1"
_space_group_IT_number       1

loop_
  _space_group_symop_operation_xyz
  'x, y, z'

loop_
  _atom_site_type_symbol
  _atom_site_label
  _atom_site_symmetry_multiplicity
  _atom_site_fract_x
  _atom_site_fract_y
  _atom_site_fract_z
  _atom_site_occupancy
  K   K1        1.0  0.00000  0.00000  0.00829  1.0000
  K   K2        1.0  0.33300  0.66700  0.05620  1.0000
  K   K3        1.0  0.00000  0.00000  0.26400  1.0000
  K   K4        1.0  0.33300  0.66700  0.39100  1.0000
  K   K5        1.0  0.00000  0.00000  0.50800  1.0000
  K   K6        1.0  0.66700  0.33300  0.55600  1.0000
  K   K7        1.0  0.00000  0.00000  0.76400  1.0000
  K   K8        1.0  0.66700  0.33300  0.89100  1.0000
  O   O1        1.0  0.82500  0.64900  0.39100  1.0000
  O   O2        1.0  0.35000  0.17500  0.39100  1.0000
  O   O3        1.0  0.82500  0.17500  0.39100  1.0000
  O   O4        1.0  0.17500  0.35100  0.89100  1.0000
  O   O5        1.0  0.17500  0.82500  0.89100  1.0000
  O   O6        1.0  0.65000  0.82500  0.89100  1.0000
  Sb  Sb1       1.0  0.66700  0.33300  0.13700  1.0000
  Sb  Sb2       1.0  0.66700  0.33400  0.32900  1.0000
  Sb  Sb3       1.0  0.33300  0.66700  0.63700  1.0000
  Sb  Sb4       1.0  0.33300  0.66600  0.82900  1.0000
