data_image0
_chemical_formula_structural       I2O12Pb2Rb2
_chemical_formula_sum              "I2 O12 Pb2 Rb2"
_cell_length_a       5.47567
_cell_length_b       5.47567
_cell_length_c       11.9987
_cell_angle_alpha    89.9989
_cell_angle_beta     90.0011
_cell_angle_gamma    119.993

_space_group_name_H-M_alt    "P 1"
_space_group_IT_number       1

loop_
  _space_group_symop_operation_xyz
  'x, y, z'

loop_
  _atom_site_type_symbol
  _atom_site_label
  _atom_site_symmetry_multiplicity
  _atom_site_fract_x
  _atom_site_fract_y
  _atom_site_fract_z
  _atom_site_occupancy
  I   I1        1.0  0.33300  0.66700  0.25000  1.0000
  I   I2        1.0  0.66700  0.33300  0.75000  1.0000
  O   O1        1.0  0.60100  0.96100  0.15600  1.0000
  O   O2        1.0  0.36000  0.39900  0.15600  1.0000
  O   O3        1.0  0.03880  0.64000  0.15600  1.0000
  O   O4        1.0  0.60100  0.64000  0.34400  1.0000
  O   O5        1.0  0.36000  0.96100  0.34400  1.0000
  O   O6        1.0  0.03880  0.39900  0.34400  1.0000
  O   O7        1.0  0.39900  0.03880  0.65600  1.0000
  O   O8        1.0  0.96100  0.36000  0.65600  1.0000
  O   O9        1.0  0.64000  0.60100  0.65600  1.0000
  O   O10       1.0  0.64000  0.03880  0.84400  1.0000
  O   O11       1.0  0.39900  0.36000  0.84400  1.0000
  O   O12       1.0  0.96100  0.60100  0.84400  1.0000
  Pb  Pb1       1.0  0.66700  0.33300  0.25000  1.0000
  Pb  Pb2       1.0  0.33300  0.66700  0.75000  1.0000
  Rb  Rb1       1.0  0.00001  0.00001  0.00000  1.0000
  Rb  Rb2       1.0  1.00000  1.00000  0.50000  1.0000
