data_image0
_chemical_formula_structural       K4Mn6S8
_chemical_formula_sum              "K4 Mn6 S8"
_cell_length_a       7.26093
_cell_length_b       5.95072
_cell_length_c       11.0558
_cell_angle_alpha    90
_cell_angle_beta     112.3
_cell_angle_gamma    90

_space_group_name_H-M_alt    "P 1"
_space_group_IT_number       1

loop_
  _space_group_symop_operation_xyz
  'x, y, z'

loop_
  _atom_site_type_symbol
  _atom_site_label
  _atom_site_symmetry_multiplicity
  _atom_site_fract_x
  _atom_site_fract_y
  _atom_site_fract_z
  _atom_site_occupancy
  K   K1        1.0  0.50000  0.00000  0.00000  1.0000
  K   K2        1.0  0.50000  0.50900  0.25000  1.0000
  K   K3        1.0  0.50000  0.00000  0.50000  1.0000
  K   K4        1.0  0.50000  0.49100  0.75000  1.0000
  Mn  Mn1       1.0  0.99900  0.75000  0.03000  1.0000
  Mn  Mn2       1.0  0.00000  0.24900  0.25000  1.0000
  Mn  Mn3       1.0  0.00120  0.75000  0.47000  1.0000
  Mn  Mn4       1.0  0.99900  0.25000  0.53000  1.0000
  Mn  Mn5       1.0  0.00000  0.75100  0.75000  1.0000
  Mn  Mn6       1.0  0.00120  0.25000  0.97000  1.0000
  S   S1        1.0  0.78900  0.46600  0.06270  1.0000
  S   S2        1.0  0.21100  0.03190  0.16800  1.0000
  S   S3        1.0  0.78900  0.03190  0.33200  1.0000
  S   S4        1.0  0.21100  0.46600  0.43700  1.0000
  S   S5        1.0  0.78900  0.53400  0.56300  1.0000
  S   S6        1.0  0.21100  0.96800  0.66800  1.0000
  S   S7        1.0  0.78900  0.96800  0.83200  1.0000
  S   S8        1.0  0.21100  0.53400  0.93700  1.0000
