data_image0
_chemical_formula_structural       Cl12Pu2Rb4
_chemical_formula_sum              "Cl12 Pu2 Rb4"
_cell_length_a       7.31155
_cell_length_b       7.31152
_cell_length_c       12.0314
_cell_angle_alpha    90
_cell_angle_beta     90
_cell_angle_gamma    120

_space_group_name_H-M_alt    "P 1"
_space_group_IT_number       1

loop_
  _space_group_symop_operation_xyz
  'x, y, z'

loop_
  _atom_site_type_symbol
  _atom_site_label
  _atom_site_symmetry_multiplicity
  _atom_site_fract_x
  _atom_site_fract_y
  _atom_site_fract_z
  _atom_site_occupancy
  Cl  Cl1       1.0  0.00392  0.50200  0.11100  1.0000
  Cl  Cl2       1.0  0.49800  0.50200  0.11100  1.0000
  Cl  Cl3       1.0  0.49800  0.99600  0.11100  1.0000
  Cl  Cl4       1.0  0.16200  0.83800  0.35500  1.0000
  Cl  Cl5       1.0  0.67600  0.83800  0.35500  1.0000
  Cl  Cl6       1.0  0.16200  0.32400  0.35500  1.0000
  Cl  Cl7       1.0  0.50200  0.00393  0.61100  1.0000
  Cl  Cl8       1.0  0.50200  0.49800  0.61100  1.0000
  Cl  Cl9       1.0  0.99600  0.49800  0.61100  1.0000
  Cl  Cl10      1.0  0.32400  0.16200  0.85500  1.0000
  Cl  Cl11      1.0  0.83800  0.16200  0.85500  1.0000
  Cl  Cl12      1.0  0.83800  0.67600  0.85500  1.0000
  Pu  Pu1       1.0  0.33300  0.66700  0.23900  1.0000
  Pu  Pu2       1.0  0.66700  0.33300  0.73900  1.0000
  Rb  Rb1       1.0  0.00000  0.00000  0.09990  1.0000
  Rb  Rb2       1.0  0.66700  0.33300  0.37100  1.0000
  Rb  Rb3       1.0  0.00000  0.00000  0.60000  1.0000
  Rb  Rb4       1.0  0.33300  0.66700  0.87100  1.0000
