data_image0
_chemical_formula_structural       B8Dy2Rh8
_chemical_formula_sum              "B8 Dy2 Rh8"
_cell_length_a       5.33197
_cell_length_b       5.33197
_cell_length_c       7.45975
_cell_angle_alpha    90
_cell_angle_beta     90
_cell_angle_gamma    90

_space_group_name_H-M_alt    "P 1"
_space_group_IT_number       1

loop_
  _space_group_symop_operation_xyz
  'x, y, z'

loop_
  _atom_site_type_symbol
  _atom_site_label
  _atom_site_symmetry_multiplicity
  _atom_site_fract_x
  _atom_site_fract_y
  _atom_site_fract_z
  _atom_site_occupancy
  B   B1        1.0  0.25000  0.08120  0.10100  1.0000
  B   B2        1.0  0.25000  0.41900  0.10100  1.0000
  B   B3        1.0  0.58100  0.75000  0.39900  1.0000
  B   B4        1.0  0.91900  0.75000  0.39900  1.0000
  B   B5        1.0  0.08120  0.25000  0.60100  1.0000
  B   B6        1.0  0.41900  0.25000  0.60100  1.0000
  B   B7        1.0  0.75000  0.58100  0.89900  1.0000
  B   B8        1.0  0.75000  0.91900  0.89900  1.0000
  Dy  Dy1       1.0  0.75000  0.25000  0.25000  1.0000
  Dy  Dy2       1.0  0.25000  0.75000  0.75000  1.0000
  Rh  Rh1       1.0  0.00158  0.75000  0.10400  1.0000
  Rh  Rh2       1.0  0.49800  0.75000  0.10400  1.0000
  Rh  Rh3       1.0  0.25000  0.99800  0.39600  1.0000
  Rh  Rh4       1.0  0.25000  0.50200  0.39600  1.0000
  Rh  Rh5       1.0  0.75000  0.00158  0.60400  1.0000
  Rh  Rh6       1.0  0.75000  0.49800  0.60400  1.0000
  Rh  Rh7       1.0  0.99800  0.25000  0.89600  1.0000
  Rh  Rh8       1.0  0.50200  0.25000  0.89600  1.0000
