data_image0
_chemical_formula_structural       I4InLiO12
_chemical_formula_sum              "I4 In1 Li1 O12"
_cell_length_a       4.80582
_cell_length_b       6.43
_cell_length_c       8.49786
_cell_angle_alpha    85.2763
_cell_angle_beta     89.5522
_cell_angle_gamma    89.2523

_space_group_name_H-M_alt    "P 1"
_space_group_IT_number       1

loop_
  _space_group_symop_operation_xyz
  'x, y, z'

loop_
  _atom_site_type_symbol
  _atom_site_label
  _atom_site_symmetry_multiplicity
  _atom_site_fract_x
  _atom_site_fract_y
  _atom_site_fract_z
  _atom_site_occupancy
  I   I1        1.0  0.50900  0.80200  0.15700  1.0000
  I   I2        1.0  0.00592  0.28100  0.23100  1.0000
  I   I3        1.0  0.99400  0.71900  0.76900  1.0000
  I   I4        1.0  0.49100  0.19800  0.84300  1.0000
  In  In1       1.0  0.50000  0.50000  0.50000  1.0000
  Li  Li1       1.0  0.50000  0.00000  0.50000  1.0000
  O   O1        1.0  0.74700  0.61900  0.06860  1.0000
  O   O2        1.0  0.71100  0.04260  0.09910  1.0000
  O   O3        1.0  0.22300  0.49300  0.30200  1.0000
  O   O4        1.0  0.22300  0.06060  0.30400  1.0000
  O   O5        1.0  0.65400  0.77100  0.36200  1.0000
  O   O6        1.0  0.75700  0.26400  0.39800  1.0000
  O   O7        1.0  0.24300  0.73600  0.60200  1.0000
  O   O8        1.0  0.34600  0.22900  0.63800  1.0000
  O   O9        1.0  0.77700  0.93900  0.69600  1.0000
  O   O10       1.0  0.77700  0.50700  0.69800  1.0000
  O   O11       1.0  0.28900  0.95700  0.90100  1.0000
  O   O12       1.0  0.25300  0.38100  0.93100  1.0000
