data_image0
_chemical_formula_structural       Al9Lu3Ni6
_chemical_formula_sum              "Al9 Lu3 Ni6"
_cell_length_a       8.92333
_cell_length_b       8.92333
_cell_length_c       4.0538
_cell_angle_alpha    90
_cell_angle_beta     90
_cell_angle_gamma    119.999

_space_group_name_H-M_alt    "P 1"
_space_group_IT_number       1

loop_
  _space_group_symop_operation_xyz
  'x, y, z'

loop_
  _atom_site_type_symbol
  _atom_site_label
  _atom_site_symmetry_multiplicity
  _atom_site_fract_x
  _atom_site_fract_y
  _atom_site_fract_z
  _atom_site_occupancy
  Al  Al1       1.0  0.50000  0.00002  0.00000  1.0000
  Al  Al2       1.0  0.50000  0.50000  0.00000  1.0000
  Al  Al3       1.0  0.00002  0.50000  0.00000  1.0000
  Al  Al4       1.0  0.70200  0.00000  0.50000  1.0000
  Al  Al5       1.0  0.29800  0.00001  0.50000  1.0000
  Al  Al6       1.0  0.29800  0.29800  0.50000  1.0000
  Al  Al7       1.0  0.00001  0.29800  0.50000  1.0000
  Al  Al8       1.0  0.00000  0.70200  0.50000  1.0000
  Al  Al9       1.0  0.70200  0.70200  0.50000  1.0000
  Lu  Lu1       1.0  0.00000  0.00000  0.00000  1.0000
  Lu  Lu2       1.0  0.66700  0.33300  0.50000  1.0000
  Lu  Lu3       1.0  0.33300  0.66700  0.50000  1.0000
  Ni  Ni1       1.0  0.36400  0.18200  0.00000  1.0000
  Ni  Ni2       1.0  0.81800  0.18200  0.00000  1.0000
  Ni  Ni3       1.0  0.18200  0.36400  0.00000  1.0000
  Ni  Ni4       1.0  0.81800  0.63600  0.00000  1.0000
  Ni  Ni5       1.0  0.18200  0.81800  0.00000  1.0000
  Ni  Ni6       1.0  0.63600  0.81800  0.00000  1.0000
