data_image0
_chemical_formula_structural       N4O8
_chemical_formula_sum              "N4 O8"
_cell_length_a       5.52269
_cell_length_b       4.41482
_cell_length_c       6.0375
_cell_angle_alpha    90
_cell_angle_beta     118.242
_cell_angle_gamma    90

_space_group_name_H-M_alt    "P 1"
_space_group_IT_number       1

loop_
  _space_group_symop_operation_xyz
  'x, y, z'

loop_
  _atom_site_type_symbol
  _atom_site_label
  _atom_site_symmetry_multiplicity
  _atom_site_fract_x
  _atom_site_fract_y
  _atom_site_fract_z
  _atom_site_occupancy
  N   N1        1.0  0.17000  0.99500  0.02050  1.0000
  N   N2        1.0  0.83000  0.49500  0.48000  1.0000
  N   N3        1.0  0.17000  0.50500  0.52000  1.0000
  N   N4        1.0  0.83000  0.00455  0.98000  1.0000
  O   O1        1.0  0.78300  0.79700  0.08300  1.0000
  O   O2        1.0  0.30100  0.78600  0.14700  1.0000
  O   O3        1.0  0.69900  0.28600  0.35300  1.0000
  O   O4        1.0  0.21700  0.29700  0.41700  1.0000
  O   O5        1.0  0.78300  0.70300  0.58300  1.0000
  O   O6        1.0  0.30100  0.71400  0.64700  1.0000
  O   O7        1.0  0.69900  0.21400  0.85300  1.0000
  O   O8        1.0  0.21700  0.20300  0.91700  1.0000
