data_image0
_chemical_formula_structural       F14Pb2Ta2
_chemical_formula_sum              "F14 Pb2 Ta2"
_cell_length_a       4.77762
_cell_length_b       7.17577
_cell_length_c       6.6289
_cell_angle_alpha    90
_cell_angle_beta     93.9724
_cell_angle_gamma    90

_space_group_name_H-M_alt    "P 1"
_space_group_IT_number       1

loop_
  _space_group_symop_operation_xyz
  'x, y, z'

loop_
  _atom_site_type_symbol
  _atom_site_label
  _atom_site_symmetry_multiplicity
  _atom_site_fract_x
  _atom_site_fract_y
  _atom_site_fract_z
  _atom_site_occupancy
  F   F1        1.0  0.86900  0.25000  0.05230  1.0000
  F   F2        1.0  0.61500  0.75000  0.07380  1.0000
  F   F3        1.0  0.31400  0.03000  0.19800  1.0000
  F   F4        1.0  0.31400  0.47000  0.19800  1.0000
  F   F5        1.0  0.80600  0.07010  0.35800  1.0000
  F   F6        1.0  0.80600  0.43000  0.35800  1.0000
  F   F7        1.0  0.41000  0.25000  0.48900  1.0000
  F   F8        1.0  0.59000  0.75000  0.51100  1.0000
  F   F9        1.0  0.19400  0.57000  0.64200  1.0000
  F   F10       1.0  0.19400  0.93000  0.64200  1.0000
  F   F11       1.0  0.68600  0.53000  0.80200  1.0000
  F   F12       1.0  0.68600  0.97000  0.80200  1.0000
  F   F13       1.0  0.38500  0.25000  0.92600  1.0000
  F   F14       1.0  0.13100  0.75000  0.94800  1.0000
  Pb  Pb1       1.0  0.02930  0.75000  0.31600  1.0000
  Pb  Pb2       1.0  0.97100  0.25000  0.68400  1.0000
  Ta  Ta1       1.0  0.54200  0.25000  0.21000  1.0000
  Ta  Ta2       1.0  0.45800  0.75000  0.79000  1.0000
