data_image0
_chemical_formula_structural       Au7IP10
_chemical_formula_sum              "Au7 I1 P10"
_cell_length_a       6.25788
_cell_length_b       6.25788
_cell_length_c       11.3892
_cell_angle_alpha    90
_cell_angle_beta     90
_cell_angle_gamma    120.001

_space_group_name_H-M_alt    "P 1"
_space_group_IT_number       1

loop_
  _space_group_symop_operation_xyz
  'x, y, z'

loop_
  _atom_site_type_symbol
  _atom_site_label
  _atom_site_symmetry_multiplicity
  _atom_site_fract_x
  _atom_site_fract_y
  _atom_site_fract_z
  _atom_site_occupancy
  Au  Au1       1.0  0.45200  0.00002  0.00000  1.0000
  Au  Au2       1.0  0.00002  0.45200  0.00000  1.0000
  Au  Au3       1.0  0.54800  0.54800  0.00000  1.0000
  Au  Au4       1.0  0.00001  0.00001  0.23200  1.0000
  Au  Au5       1.0  0.66700  0.33300  0.50000  1.0000
  Au  Au6       1.0  0.33300  0.66700  0.50000  1.0000
  Au  Au7       1.0  0.00001  0.00001  0.76800  1.0000
  I   I1        1.0  0.00000  0.00000  0.50000  1.0000
  P   P1        1.0  0.62400  0.62400  0.20300  1.0000
  P   P2        1.0  0.37600  0.00002  0.20300  1.0000
  P   P3        1.0  0.00002  0.37600  0.20300  1.0000
  P   P4        1.0  0.66700  0.33300  0.29400  1.0000
  P   P5        1.0  0.33300  0.66700  0.29400  1.0000
  P   P6        1.0  0.66700  0.33300  0.70600  1.0000
  P   P7        1.0  0.33300  0.66700  0.70600  1.0000
  P   P8        1.0  0.37600  0.00002  0.79700  1.0000
  P   P9        1.0  0.00002  0.37600  0.79700  1.0000
  P   P10       1.0  0.62400  0.62400  0.79700  1.0000
