data_image0
_chemical_formula_structural       B2Ge6Ta10
_chemical_formula_sum              "B2 Ge6 Ta10"
_cell_length_a       7.7313
_cell_length_b       7.7313
_cell_length_c       5.36329
_cell_angle_alpha    90
_cell_angle_beta     90
_cell_angle_gamma    120

_space_group_name_H-M_alt    "P 1"
_space_group_IT_number       1

loop_
  _space_group_symop_operation_xyz
  'x, y, z'

loop_
  _atom_site_type_symbol
  _atom_site_label
  _atom_site_symmetry_multiplicity
  _atom_site_fract_x
  _atom_site_fract_y
  _atom_site_fract_z
  _atom_site_occupancy
  B   B1        1.0  0.00000  0.00000  0.00000  1.0000
  B   B2        1.0  0.00000  1.00000  0.50000  1.0000
  Ge  Ge1       1.0  0.59900  0.00000  0.25000  1.0000
  Ge  Ge2       1.0  1.00000  0.59900  0.25000  1.0000
  Ge  Ge3       1.0  0.40100  0.40100  0.25000  1.0000
  Ge  Ge4       1.0  0.40100  0.00000  0.75000  1.0000
  Ge  Ge5       1.0  0.00000  0.40100  0.75000  1.0000
  Ge  Ge6       1.0  0.59900  0.59900  0.75000  1.0000
  Ta  Ta1       1.0  0.66700  0.33300  0.00000  1.0000
  Ta  Ta2       1.0  0.33300  0.66700  0.00000  1.0000
  Ta  Ta3       1.0  0.24300  1.00000  0.25000  1.0000
  Ta  Ta4       1.0  0.00000  0.24300  0.25000  1.0000
  Ta  Ta5       1.0  0.75700  0.75700  0.25000  1.0000
  Ta  Ta6       1.0  0.66700  0.33300  0.50000  1.0000
  Ta  Ta7       1.0  0.33300  0.66700  0.50000  1.0000
  Ta  Ta8       1.0  0.75700  0.00000  0.75000  1.0000
  Ta  Ta9       1.0  0.24300  0.24300  0.75000  1.0000
  Ta  Ta10      1.0  0.00000  0.75700  0.75000  1.0000
