data_image0
_chemical_formula_structural       Ge6Hf6Pd6
_chemical_formula_sum              "Ge6 Hf6 Pd6"
_cell_length_a       6.70952
_cell_length_b       3.96565
_cell_length_c       11.5327
_cell_angle_alpha    90
_cell_angle_beta     90.1219
_cell_angle_gamma    90

_space_group_name_H-M_alt    "P 1"
_space_group_IT_number       1

loop_
  _space_group_symop_operation_xyz
  'x, y, z'

loop_
  _atom_site_type_symbol
  _atom_site_label
  _atom_site_symmetry_multiplicity
  _atom_site_fract_x
  _atom_site_fract_y
  _atom_site_fract_z
  _atom_site_occupancy
  Ge  Ge1       1.0  0.74900  0.75000  0.08420  1.0000
  Ge  Ge2       1.0  0.26200  0.25000  0.25000  1.0000
  Ge  Ge3       1.0  0.75100  0.25000  0.41600  1.0000
  Ge  Ge4       1.0  0.24900  0.75000  0.58400  1.0000
  Ge  Ge5       1.0  0.73800  0.75000  0.75000  1.0000
  Ge  Ge6       1.0  0.25100  0.25000  0.91600  1.0000
  Hf  Hf1       1.0  0.33900  0.75000  0.07940  1.0000
  Hf  Hf2       1.0  0.97000  0.75000  0.29200  1.0000
  Hf  Hf3       1.0  0.46800  0.75000  0.37800  1.0000
  Hf  Hf4       1.0  0.53200  0.25000  0.62200  1.0000
  Hf  Hf5       1.0  0.02950  0.25000  0.70800  1.0000
  Hf  Hf6       1.0  0.66100  0.25000  0.92100  1.0000
  Pd  Pd1       1.0  0.00325  0.25000  0.09100  1.0000
  Pd  Pd2       1.0  0.62800  0.25000  0.20600  1.0000
  Pd  Pd3       1.0  0.14300  0.25000  0.45900  1.0000
  Pd  Pd4       1.0  0.85700  0.75000  0.54100  1.0000
  Pd  Pd5       1.0  0.37200  0.75000  0.79400  1.0000
  Pd  Pd6       1.0  0.99700  0.75000  0.90900  1.0000
