data_image0
_chemical_formula_structural       B8Ir8Th2
_chemical_formula_sum              "B8 Ir8 Th2"
_cell_length_a       7.75836
_cell_length_b       7.75836
_cell_length_c       3.96261
_cell_angle_alpha    90
_cell_angle_beta     90
_cell_angle_gamma    90

_space_group_name_H-M_alt    "P 1"
_space_group_IT_number       1

loop_
  _space_group_symop_operation_xyz
  'x, y, z'

loop_
  _atom_site_type_symbol
  _atom_site_label
  _atom_site_symmetry_multiplicity
  _atom_site_fract_x
  _atom_site_fract_y
  _atom_site_fract_z
  _atom_site_occupancy
  B   B1        1.0  0.02990  0.59100  0.14200  1.0000
  B   B2        1.0  0.47000  0.90900  0.14200  1.0000
  B   B3        1.0  0.90900  0.02990  0.35800  1.0000
  B   B4        1.0  0.59100  0.47000  0.35800  1.0000
  B   B5        1.0  0.40900  0.53000  0.64200  1.0000
  B   B6        1.0  0.09090  0.97000  0.64200  1.0000
  B   B7        1.0  0.53000  0.09090  0.85800  1.0000
  B   B8        1.0  0.97000  0.40900  0.85800  1.0000
  Ir  Ir1       1.0  0.41400  0.64300  0.14000  1.0000
  Ir  Ir2       1.0  0.08550  0.85700  0.14000  1.0000
  Ir  Ir3       1.0  0.64300  0.08550  0.36000  1.0000
  Ir  Ir4       1.0  0.85700  0.41400  0.36000  1.0000
  Ir  Ir5       1.0  0.14300  0.58600  0.64000  1.0000
  Ir  Ir6       1.0  0.35700  0.91400  0.64000  1.0000
  Ir  Ir7       1.0  0.91400  0.14300  0.86000  1.0000
  Ir  Ir8       1.0  0.58600  0.35700  0.86000  1.0000
  Th  Th1       1.0  0.25000  0.25000  0.25000  1.0000
  Th  Th2       1.0  0.75000  0.75000  0.75000  1.0000
