data_image0
_chemical_formula_structural       Al2Ce4Ge12
_chemical_formula_sum              "Al2 Ce4 Ge12"
_cell_length_a       6.11249
_cell_length_b       6.11249
_cell_length_c       10.8359
_cell_angle_alpha    97.9318
_cell_angle_beta     97.9318
_cell_angle_gamma    92.5762

_space_group_name_H-M_alt    "P 1"
_space_group_IT_number       1

loop_
  _space_group_symop_operation_xyz
  'x, y, z'

loop_
  _atom_site_type_symbol
  _atom_site_label
  _atom_site_symmetry_multiplicity
  _atom_site_fract_x
  _atom_site_fract_y
  _atom_site_fract_z
  _atom_site_occupancy
  Al  Al1       1.0  0.80000  0.80000  0.19400  1.0000
  Al  Al2       1.0  0.20000  0.20000  0.80600  1.0000
  Ce  Ce1       1.0  0.83700  0.33300  0.33600  1.0000
  Ce  Ce2       1.0  0.33300  0.83700  0.33600  1.0000
  Ce  Ce3       1.0  0.66700  0.16300  0.66400  1.0000
  Ce  Ce4       1.0  0.16300  0.66700  0.66400  1.0000
  Ge  Ge1       1.0  0.06940  0.06940  0.11400  1.0000
  Ge  Ge2       1.0  0.49300  0.06580  0.11400  1.0000
  Ge  Ge3       1.0  0.06580  0.49300  0.11400  1.0000
  Ge  Ge4       1.0  0.48800  0.48800  0.11400  1.0000
  Ge  Ge5       1.0  0.36100  0.36100  0.41900  1.0000
  Ge  Ge6       1.0  0.85400  0.85400  0.43600  1.0000
  Ge  Ge7       1.0  0.14600  0.14600  0.56400  1.0000
  Ge  Ge8       1.0  0.63900  0.63900  0.58100  1.0000
  Ge  Ge9       1.0  0.51200  0.51200  0.88600  1.0000
  Ge  Ge10      1.0  0.93400  0.50700  0.88600  1.0000
  Ge  Ge11      1.0  0.50700  0.93400  0.88600  1.0000
  Ge  Ge12      1.0  0.93100  0.93100  0.88600  1.0000
