data_image0
_chemical_formula_structural       Al3Cs2F12Li
_chemical_formula_sum              "Al3 Cs2 F12 Li1"
_cell_length_a       6.87377
_cell_length_b       6.87377
_cell_length_c       6.87377
_cell_angle_alpha    59.9387
_cell_angle_beta     59.9387
_cell_angle_gamma    59.9386

_space_group_name_H-M_alt    "P 1"
_space_group_IT_number       1

loop_
  _space_group_symop_operation_xyz
  'x, y, z'

loop_
  _atom_site_type_symbol
  _atom_site_label
  _atom_site_symmetry_multiplicity
  _atom_site_fract_x
  _atom_site_fract_y
  _atom_site_fract_z
  _atom_site_occupancy
  Al  Al1       1.0  0.00000  0.00000  0.50000  1.0000
  Al  Al2       1.0  1.00000  0.50000  0.00000  1.0000
  Al  Al3       1.0  0.50000  0.00000  0.00000  1.0000
  Cs  Cs1       1.0  0.37400  0.37400  0.37400  1.0000
  Cs  Cs2       1.0  0.62600  0.62600  0.62600  1.0000
  F   F1        1.0  0.68800  0.68800  0.07300  1.0000
  F   F2        1.0  0.65900  0.07380  0.07380  1.0000
  F   F3        1.0  0.07380  0.65900  0.07380  1.0000
  F   F4        1.0  0.31200  0.92700  0.31200  1.0000
  F   F5        1.0  0.92700  0.31200  0.31200  1.0000
  F   F6        1.0  0.92600  0.92600  0.34100  1.0000
  F   F7        1.0  0.07380  0.07380  0.65900  1.0000
  F   F8        1.0  0.07300  0.68800  0.68800  1.0000
  F   F9        1.0  0.68800  0.07300  0.68800  1.0000
  F   F10       1.0  0.34100  0.92600  0.92600  1.0000
  F   F11       1.0  0.92600  0.34100  0.92600  1.0000
  F   F12       1.0  0.31200  0.31200  0.92700  1.0000
  Li  Li1       1.0  0.00000  0.00000  0.00000  1.0000
