data_image0
_chemical_formula_structural       Al6Ge8Pr4
_chemical_formula_sum              "Al6 Ge8 Pr4"
_cell_length_a       6.07594
_cell_length_b       8.05636
_cell_length_c       8.15437
_cell_angle_alpha    90
_cell_angle_beta     68.1266
_cell_angle_gamma    90

_space_group_name_H-M_alt    "P 1"
_space_group_IT_number       1

loop_
  _space_group_symop_operation_xyz
  'x, y, z'

loop_
  _atom_site_type_symbol
  _atom_site_label
  _atom_site_symmetry_multiplicity
  _atom_site_fract_x
  _atom_site_fract_y
  _atom_site_fract_z
  _atom_site_occupancy
  Al  Al1       1.0  0.00000  0.00000  0.00000  1.0000
  Al  Al2       1.0  0.50000  0.50000  0.00000  1.0000
  Al  Al3       1.0  0.03340  0.75000  0.43300  1.0000
  Al  Al4       1.0  0.53300  0.75000  0.43300  1.0000
  Al  Al5       1.0  0.46700  0.25000  0.56700  1.0000
  Al  Al6       1.0  0.96700  0.25000  0.56700  1.0000
  Ge  Ge1       1.0  0.20200  0.75000  0.09660  1.0000
  Ge  Ge2       1.0  0.70200  0.75000  0.09660  1.0000
  Ge  Ge3       1.0  0.81400  0.05060  0.37100  1.0000
  Ge  Ge4       1.0  0.31400  0.44900  0.37100  1.0000
  Ge  Ge5       1.0  0.68600  0.55100  0.62900  1.0000
  Ge  Ge6       1.0  0.18600  0.94900  0.62900  1.0000
  Ge  Ge7       1.0  0.29800  0.25000  0.90300  1.0000
  Ge  Ge8       1.0  0.79800  0.25000  0.90300  1.0000
  Pr  Pr1       1.0  0.38600  0.08220  0.22800  1.0000
  Pr  Pr2       1.0  0.88600  0.41800  0.22800  1.0000
  Pr  Pr3       1.0  0.11400  0.58200  0.77200  1.0000
  Pr  Pr4       1.0  0.61400  0.91800  0.77200  1.0000
