data_image0
_chemical_formula_structural       As2ClNd5O10
_chemical_formula_sum              "As2 Cl1 Nd5 O10"
_cell_length_a       5.67819
_cell_length_b       6.83791
_cell_length_c       8.82509
_cell_angle_alpha    95.6846
_cell_angle_beta     108.766
_cell_angle_gamma    114.532

_space_group_name_H-M_alt    "P 1"
_space_group_IT_number       1

loop_
  _space_group_symop_operation_xyz
  'x, y, z'

loop_
  _atom_site_type_symbol
  _atom_site_label
  _atom_site_symmetry_multiplicity
  _atom_site_fract_x
  _atom_site_fract_y
  _atom_site_fract_z
  _atom_site_occupancy
  As  As1       1.0  0.18300  0.96900  0.39700  1.0000
  As  As2       1.0  0.81700  0.03050  0.60300  1.0000
  Cl  Cl1       1.0  0.50000  0.50000  0.50000  1.0000
  Nd  Nd1       1.0  0.00000  0.00000  0.00000  1.0000
  Nd  Nd2       1.0  0.38400  0.63700  0.13100  1.0000
  Nd  Nd3       1.0  0.79400  0.29400  0.29300  1.0000
  Nd  Nd4       1.0  0.20600  0.70600  0.70700  1.0000
  Nd  Nd5       1.0  0.61600  0.36300  0.86900  1.0000
  O   O1        1.0  0.45800  0.32500  0.08380  1.0000
  O   O2        1.0  0.95100  0.32500  0.08380  1.0000
  O   O3        1.0  0.34400  0.96700  0.24900  1.0000
  O   O4        1.0  0.87200  0.96700  0.24900  1.0000
  O   O5        1.0  0.04220  0.68300  0.40100  1.0000
  O   O6        1.0  0.95800  0.31700  0.59900  1.0000
  O   O7        1.0  0.12800  0.03280  0.75100  1.0000
  O   O8        1.0  0.65600  0.03280  0.75100  1.0000
  O   O9        1.0  0.04860  0.67500  0.91600  1.0000
  O   O10       1.0  0.54200  0.67500  0.91600  1.0000
