data_image0
_chemical_formula_structural       As8S10
_chemical_formula_sum              "As8 S10"
_cell_length_a       8.19915
_cell_length_b       8.29562
_cell_length_c       7.48926
_cell_angle_alpha    90
_cell_angle_beta     101.56
_cell_angle_gamma    90

_space_group_name_H-M_alt    "P 1"
_space_group_IT_number       1

loop_
  _space_group_symop_operation_xyz
  'x, y, z'

loop_
  _atom_site_type_symbol
  _atom_site_label
  _atom_site_symmetry_multiplicity
  _atom_site_fract_x
  _atom_site_fract_y
  _atom_site_fract_z
  _atom_site_occupancy
  As  As1       1.0  0.97700  0.75000  0.20100  1.0000
  As  As2       1.0  0.60900  0.51300  0.25700  1.0000
  As  As3       1.0  0.60900  0.98700  0.25700  1.0000
  As  As4       1.0  0.05030  0.25000  0.46200  1.0000
  As  As5       1.0  0.95000  0.75000  0.53800  1.0000
  As  As6       1.0  0.39100  0.01350  0.74300  1.0000
  As  As7       1.0  0.39100  0.48700  0.74300  1.0000
  As  As8       1.0  0.02330  0.25000  0.79900  1.0000
  S   S1        1.0  0.81500  0.53500  0.09550  1.0000
  S   S2        1.0  0.81500  0.96500  0.09550  1.0000
  S   S3        1.0  0.46200  0.75000  0.21100  1.0000
  S   S4        1.0  0.22800  0.03740  0.46000  1.0000
  S   S5        1.0  0.22800  0.46300  0.46000  1.0000
  S   S6        1.0  0.77200  0.53700  0.54000  1.0000
  S   S7        1.0  0.77200  0.96300  0.54000  1.0000
  S   S8        1.0  0.53800  0.25000  0.78900  1.0000
  S   S9        1.0  0.18500  0.03470  0.90500  1.0000
  S   S10       1.0  0.18500  0.46500  0.90500  1.0000
