data_image0
_chemical_formula_structural       B8La2Os8
_chemical_formula_sum              "B8 La2 Os8"
_cell_length_a       7.65803
_cell_length_b       7.65803
_cell_length_c       4.00172
_cell_angle_alpha    90
_cell_angle_beta     90
_cell_angle_gamma    90

_space_group_name_H-M_alt    "P 1"
_space_group_IT_number       1

loop_
  _space_group_symop_operation_xyz
  'x, y, z'

loop_
  _atom_site_type_symbol
  _atom_site_label
  _atom_site_symmetry_multiplicity
  _atom_site_fract_x
  _atom_site_fract_y
  _atom_site_fract_z
  _atom_site_occupancy
  B   B1        1.0  0.03080  0.58600  0.14000  1.0000
  B   B2        1.0  0.46900  0.91400  0.14000  1.0000
  B   B3        1.0  0.91400  0.03080  0.36000  1.0000
  B   B4        1.0  0.58600  0.46900  0.36000  1.0000
  B   B5        1.0  0.41400  0.53100  0.64000  1.0000
  B   B6        1.0  0.08570  0.96900  0.64000  1.0000
  B   B7        1.0  0.53100  0.08570  0.86000  1.0000
  B   B8        1.0  0.96900  0.41400  0.86000  1.0000
  La  La1       1.0  0.25000  0.25000  0.25000  1.0000
  La  La2       1.0  0.75000  0.75000  0.75000  1.0000
  Os  Os1       1.0  0.39500  0.64400  0.14000  1.0000
  Os  Os2       1.0  0.10500  0.85600  0.14000  1.0000
  Os  Os3       1.0  0.64400  0.10500  0.36000  1.0000
  Os  Os4       1.0  0.85600  0.39500  0.36000  1.0000
  Os  Os5       1.0  0.14400  0.60500  0.64000  1.0000
  Os  Os6       1.0  0.35600  0.89500  0.64000  1.0000
  Os  Os7       1.0  0.89500  0.14400  0.86000  1.0000
  Os  Os8       1.0  0.60500  0.35600  0.86000  1.0000
