data_image0
_chemical_formula_structural       Rb4S8Zn6
_chemical_formula_sum              "Rb4 S8 Zn6"
_cell_length_a       5.78746
_cell_length_b       9.23713
_cell_length_c       9.23713
_cell_angle_alpha    94.3359
_cell_angle_beta     108.257
_cell_angle_gamma    108.257

_space_group_name_H-M_alt    "P 1"
_space_group_IT_number       1

loop_
  _space_group_symop_operation_xyz
  'x, y, z'

loop_
  _atom_site_type_symbol
  _atom_site_label
  _atom_site_symmetry_multiplicity
  _atom_site_fract_x
  _atom_site_fract_y
  _atom_site_fract_z
  _atom_site_occupancy
  Rb  Rb1       1.0  0.88700  0.12100  0.12100  1.0000
  Rb  Rb2       1.0  0.64600  0.37900  0.37900  1.0000
  Rb  Rb3       1.0  0.35400  0.62100  0.62100  1.0000
  Rb  Rb4       1.0  0.11300  0.87900  0.87900  1.0000
  S   S1        1.0  0.58800  0.71700  0.01770  1.0000
  S   S2        1.0  0.14600  0.51800  0.21700  1.0000
  S   S3        1.0  0.41200  0.98200  0.28300  1.0000
  S   S4        1.0  0.85400  0.78300  0.48200  1.0000
  S   S5        1.0  0.14600  0.21700  0.51800  1.0000
  S   S6        1.0  0.58800  0.01770  0.71700  1.0000
  S   S7        1.0  0.85400  0.48200  0.78300  1.0000
  S   S8        1.0  0.41200  0.28300  0.98200  1.0000
  Zn  Zn1       1.0  0.77600  0.52600  0.02600  1.0000
  Zn  Zn2       1.0  0.50000  0.75000  0.25000  1.0000
  Zn  Zn3       1.0  0.22400  0.97400  0.47400  1.0000
  Zn  Zn4       1.0  0.77600  0.02600  0.52600  1.0000
  Zn  Zn5       1.0  0.50000  0.25000  0.75000  1.0000
  Zn  Zn6       1.0  0.22400  0.47400  0.97400  1.0000
