data_image0
_chemical_formula_structural       B8Fe8Nd2
_chemical_formula_sum              "B8 Fe8 Nd2"
_cell_length_a       7.05201
_cell_length_b       7.05201
_cell_length_c       3.80592
_cell_angle_alpha    90
_cell_angle_beta     90
_cell_angle_gamma    90

_space_group_name_H-M_alt    "P 1"
_space_group_IT_number       1

loop_
  _space_group_symop_operation_xyz
  'x, y, z'

loop_
  _atom_site_type_symbol
  _atom_site_label
  _atom_site_symmetry_multiplicity
  _atom_site_fract_x
  _atom_site_fract_y
  _atom_site_fract_z
  _atom_site_occupancy
  B   B1        1.0  0.04880  0.58400  0.14500  1.0000
  B   B2        1.0  0.45100  0.91600  0.14500  1.0000
  B   B3        1.0  0.91600  0.04880  0.35500  1.0000
  B   B4        1.0  0.58400  0.45100  0.35500  1.0000
  B   B5        1.0  0.41600  0.54900  0.64500  1.0000
  B   B6        1.0  0.08420  0.95100  0.64500  1.0000
  B   B7        1.0  0.54900  0.08420  0.85500  1.0000
  B   B8        1.0  0.95100  0.41600  0.85500  1.0000
  Fe  Fe1       1.0  0.38200  0.63800  0.14300  1.0000
  Fe  Fe2       1.0  0.11800  0.86200  0.14300  1.0000
  Fe  Fe3       1.0  0.63800  0.11800  0.35700  1.0000
  Fe  Fe4       1.0  0.86200  0.38200  0.35700  1.0000
  Fe  Fe5       1.0  0.13800  0.61800  0.64300  1.0000
  Fe  Fe6       1.0  0.36200  0.88200  0.64300  1.0000
  Fe  Fe7       1.0  0.88200  0.13800  0.85700  1.0000
  Fe  Fe8       1.0  0.61800  0.36200  0.85700  1.0000
  Nd  Nd1       1.0  0.25000  0.25000  0.25000  1.0000
  Nd  Nd2       1.0  0.75000  0.75000  0.75000  1.0000
