data_image0
_chemical_formula_structural       Ho4Mo6Si8
_chemical_formula_sum              "Ho4 Mo6 Si8"
_cell_length_a       6.8462
_cell_length_b       6.91024
_cell_length_c       6.74084
_cell_angle_alpha    90
_cell_angle_beta     108.975
_cell_angle_gamma    90

_space_group_name_H-M_alt    "P 1"
_space_group_IT_number       1

loop_
  _space_group_symop_operation_xyz
  'x, y, z'

loop_
  _atom_site_type_symbol
  _atom_site_label
  _atom_site_symmetry_multiplicity
  _atom_site_fract_x
  _atom_site_fract_y
  _atom_site_fract_z
  _atom_site_occupancy
  Ho  Ho1       1.0  0.19100  0.17000  0.06160  1.0000
  Ho  Ho2       1.0  0.80900  0.67000  0.43800  1.0000
  Ho  Ho3       1.0  0.19100  0.33000  0.56200  1.0000
  Ho  Ho4       1.0  0.80900  0.83000  0.93800  1.0000
  Mo  Mo1       1.0  0.50000  0.50000  0.00000  1.0000
  Mo  Mo2       1.0  0.24900  0.66300  0.24900  1.0000
  Mo  Mo3       1.0  0.75100  0.16300  0.25100  1.0000
  Mo  Mo4       1.0  0.50000  0.00000  0.50000  1.0000
  Mo  Mo5       1.0  0.24900  0.83700  0.74900  1.0000
  Mo  Mo6       1.0  0.75100  0.33700  0.75100  1.0000
  Si  Si1       1.0  0.49600  0.86800  0.12800  1.0000
  Si  Si2       1.0  0.91000  0.45600  0.13200  1.0000
  Si  Si3       1.0  0.08990  0.95600  0.36800  1.0000
  Si  Si4       1.0  0.50400  0.36800  0.37200  1.0000
  Si  Si5       1.0  0.49600  0.63200  0.62800  1.0000
  Si  Si6       1.0  0.91000  0.04430  0.63200  1.0000
  Si  Si7       1.0  0.08990  0.54400  0.86800  1.0000
  Si  Si8       1.0  0.50400  0.13200  0.87200  1.0000
