data_image0
_chemical_formula_structural       K2Na2Nb2O10Pr2
_chemical_formula_sum              "K2 Na2 Nb2 O10 Pr2"
_cell_length_a       5.74926
_cell_length_b       5.74926
_cell_length_c       8.25596
_cell_angle_alpha    90
_cell_angle_beta     90
_cell_angle_gamma    90

_space_group_name_H-M_alt    "P 1"
_space_group_IT_number       1

loop_
  _space_group_symop_operation_xyz
  'x, y, z'

loop_
  _atom_site_type_symbol
  _atom_site_label
  _atom_site_symmetry_multiplicity
  _atom_site_fract_x
  _atom_site_fract_y
  _atom_site_fract_z
  _atom_site_occupancy
  K   K1        1.0  0.75000  0.25000  0.00000  1.0000
  K   K2        1.0  0.25000  0.75000  0.00000  1.0000
  Na  Na1       1.0  0.75000  0.75000  0.24100  1.0000
  Na  Na2       1.0  0.25000  0.25000  0.75900  1.0000
  Nb  Nb1       1.0  0.25000  0.25000  0.25500  1.0000
  Nb  Nb2       1.0  0.75000  0.75000  0.74500  1.0000
  O   O1        1.0  0.25000  0.25000  0.03010  1.0000
  O   O2        1.0  0.01780  0.01780  0.32700  1.0000
  O   O3        1.0  0.48200  0.01780  0.32700  1.0000
  O   O4        1.0  0.01780  0.48200  0.32700  1.0000
  O   O5        1.0  0.48200  0.48200  0.32700  1.0000
  O   O6        1.0  0.51800  0.51800  0.67300  1.0000
  O   O7        1.0  0.98200  0.51800  0.67300  1.0000
  O   O8        1.0  0.51800  0.98200  0.67300  1.0000
  O   O9        1.0  0.98200  0.98200  0.67300  1.0000
  O   O10       1.0  0.75000  0.75000  0.97000  1.0000
  Pr  Pr1       1.0  0.75000  0.25000  0.50000  1.0000
  Pr  Pr2       1.0  0.25000  0.75000  0.50000  1.0000
