data_image0
_chemical_formula_structural       F8K2Na2O4W2
_chemical_formula_sum              "F8 K2 Na2 O4 W2"
_cell_length_a       5.81572
_cell_length_b       5.81572
_cell_length_c       8.23405
_cell_angle_alpha    90
_cell_angle_beta     90
_cell_angle_gamma    90

_space_group_name_H-M_alt    "P 1"
_space_group_IT_number       1

loop_
  _space_group_symop_operation_xyz
  'x, y, z'

loop_
  _atom_site_type_symbol
  _atom_site_label
  _atom_site_symmetry_multiplicity
  _atom_site_fract_x
  _atom_site_fract_y
  _atom_site_fract_z
  _atom_site_occupancy
  F   F1        1.0  0.51400  0.51400  0.24000  1.0000
  F   F2        1.0  0.98600  0.51400  0.24000  1.0000
  F   F3        1.0  0.51400  0.98600  0.24000  1.0000
  F   F4        1.0  0.98600  0.98600  0.24000  1.0000
  F   F5        1.0  0.01440  0.01440  0.76000  1.0000
  F   F6        1.0  0.48600  0.01440  0.76000  1.0000
  F   F7        1.0  0.01440  0.48600  0.76000  1.0000
  F   F8        1.0  0.48600  0.48600  0.76000  1.0000
  K   K1        1.0  0.75000  0.25000  0.00000  1.0000
  K   K2        1.0  0.25000  0.75000  0.00000  1.0000
  Na  Na1       1.0  0.25000  0.25000  0.27200  1.0000
  Na  Na2       1.0  0.75000  0.75000  0.72800  1.0000
  O   O1        1.0  0.75000  0.75000  0.02160  1.0000
  O   O2        1.0  0.75000  0.75000  0.46400  1.0000
  O   O3        1.0  0.25000  0.25000  0.53600  1.0000
  O   O4        1.0  0.25000  0.25000  0.97800  1.0000
  W   W1        1.0  0.75000  0.75000  0.24800  1.0000
  W   W2        1.0  0.25000  0.25000  0.75200  1.0000
