data_image0
_chemical_formula_structural       AuI4KO12
_chemical_formula_sum              "Au1 I4 K1 O12"
_cell_length_a       5.54729
_cell_length_b       7.11171
_cell_length_c       8.01159
_cell_angle_alpha    105.093
_cell_angle_beta     93.5807
_cell_angle_gamma    111.904

_space_group_name_H-M_alt    "P 1"
_space_group_IT_number       1

loop_
  _space_group_symop_operation_xyz
  'x, y, z'

loop_
  _atom_site_type_symbol
  _atom_site_label
  _atom_site_symmetry_multiplicity
  _atom_site_fract_x
  _atom_site_fract_y
  _atom_site_fract_z
  _atom_site_occupancy
  Au  Au1       1.0  0.39500  0.09760  0.37300  1.0000
  I   I1        1.0  0.51800  0.74800  0.06070  1.0000
  I   I2        1.0  0.89000  0.41200  0.23500  1.0000
  I   I3        1.0  0.50500  0.77800  0.57900  1.0000
  I   I4        1.0  0.82200  0.44200  0.74400  1.0000
  K   K1        1.0  0.20200  0.10100  0.88400  1.0000
  O   O1        1.0  0.22300  0.49800  0.99800  1.0000
  O   O2        1.0  0.86500  0.14900  0.11700  1.0000
  O   O3        1.0  0.29600  0.89800  0.12800  1.0000
  O   O4        1.0  0.53300  0.34200  0.27200  1.0000
  O   O5        1.0  0.65300  0.76100  0.27900  1.0000
  O   O6        1.0  0.03050  0.42400  0.45400  1.0000
  O   O7        1.0  0.24400  0.85300  0.47100  1.0000
  O   O8        1.0  0.46900  0.30300  0.61400  1.0000
  O   O9        1.0  0.76500  0.04590  0.66000  1.0000
  O   O10       1.0  0.82600  0.70200  0.75300  1.0000
  O   O11       1.0  0.35100  0.77100  0.77500  1.0000
  O   O12       1.0  0.69000  0.43300  0.94800  1.0000
