data_image0
_chemical_formula_structural       F10K2Na2Nb2O2
_chemical_formula_sum              "F10 K2 Na2 Nb2 O2"
_cell_length_a       5.81109
_cell_length_b       5.81109
_cell_length_c       8.38324
_cell_angle_alpha    90
_cell_angle_beta     90
_cell_angle_gamma    90

_space_group_name_H-M_alt    "P 1"
_space_group_IT_number       1

loop_
  _space_group_symop_operation_xyz
  'x, y, z'

loop_
  _atom_site_type_symbol
  _atom_site_label
  _atom_site_symmetry_multiplicity
  _atom_site_fract_x
  _atom_site_fract_y
  _atom_site_fract_z
  _atom_site_occupancy
  F   F1        1.0  0.51300  0.51300  0.27400  1.0000
  F   F2        1.0  0.98700  0.51300  0.27400  1.0000
  F   F3        1.0  0.51300  0.98700  0.27400  1.0000
  F   F4        1.0  0.98700  0.98700  0.27400  1.0000
  F   F5        1.0  0.75000  0.75000  0.49300  1.0000
  F   F6        1.0  0.25000  0.25000  0.50700  1.0000
  F   F7        1.0  0.01320  0.01320  0.72600  1.0000
  F   F8        1.0  0.48700  0.01320  0.72600  1.0000
  F   F9        1.0  0.01320  0.48700  0.72600  1.0000
  F   F10       1.0  0.48700  0.48700  0.72600  1.0000
  K   K1        1.0  0.75000  0.25000  0.50000  1.0000
  K   K2        1.0  0.25000  0.75000  0.50000  1.0000
  Na  Na1       1.0  0.25000  0.25000  0.23500  1.0000
  Na  Na2       1.0  0.75000  0.75000  0.76500  1.0000
  Nb  Nb1       1.0  0.75000  0.75000  0.23200  1.0000
  Nb  Nb2       1.0  0.25000  0.25000  0.76800  1.0000
  O   O1        1.0  0.75000  0.75000  0.02430  1.0000
  O   O2        1.0  0.25000  0.25000  0.97600  1.0000
