data_image0
_chemical_formula_structural       F8K2Mo2Na2O4
_chemical_formula_sum              "F8 K2 Mo2 Na2 O4"
_cell_length_a       5.82242
_cell_length_b       5.82242
_cell_length_c       8.20306
_cell_angle_alpha    90
_cell_angle_beta     90
_cell_angle_gamma    90

_space_group_name_H-M_alt    "P 1"
_space_group_IT_number       1

loop_
  _space_group_symop_operation_xyz
  'x, y, z'

loop_
  _atom_site_type_symbol
  _atom_site_label
  _atom_site_symmetry_multiplicity
  _atom_site_fract_x
  _atom_site_fract_y
  _atom_site_fract_z
  _atom_site_occupancy
  F   F1        1.0  0.51400  0.51400  0.26200  1.0000
  F   F2        1.0  0.98600  0.51400  0.26200  1.0000
  F   F3        1.0  0.51400  0.98600  0.26200  1.0000
  F   F4        1.0  0.98600  0.98600  0.26200  1.0000
  F   F5        1.0  0.01420  0.01420  0.73800  1.0000
  F   F6        1.0  0.48600  0.01420  0.73800  1.0000
  F   F7        1.0  0.01420  0.48600  0.73800  1.0000
  F   F8        1.0  0.48600  0.48600  0.73800  1.0000
  K   K1        1.0  0.75000  0.25000  0.50000  1.0000
  K   K2        1.0  0.25000  0.75000  0.50000  1.0000
  Mo  Mo1       1.0  0.75000  0.75000  0.25300  1.0000
  Mo  Mo2       1.0  0.25000  0.25000  0.74700  1.0000
  Na  Na1       1.0  0.25000  0.25000  0.22800  1.0000
  Na  Na2       1.0  0.75000  0.75000  0.77200  1.0000
  O   O1        1.0  0.75000  0.75000  0.03820  1.0000
  O   O2        1.0  0.75000  0.75000  0.47900  1.0000
  O   O3        1.0  0.25000  0.25000  0.52100  1.0000
  O   O4        1.0  0.25000  0.25000  0.96200  1.0000
