data_image0
_chemical_formula_structural       Al3Cs3F12
_chemical_formula_sum              "Al3 Cs3 F12"
_cell_length_a       9.09037
_cell_length_b       9.09037
_cell_length_c       3.67427
_cell_angle_alpha    90
_cell_angle_beta     90
_cell_angle_gamma    120

_space_group_name_H-M_alt    "P 1"
_space_group_IT_number       1

loop_
  _space_group_symop_operation_xyz
  'x, y, z'

loop_
  _atom_site_type_symbol
  _atom_site_label
  _atom_site_symmetry_multiplicity
  _atom_site_fract_x
  _atom_site_fract_y
  _atom_site_fract_z
  _atom_site_occupancy
  Al  Al1       1.0  0.22600  0.00000  0.00000  1.0000
  Al  Al2       1.0  1.00000  0.22600  0.00000  1.0000
  Al  Al3       1.0  0.77400  0.77400  0.00000  1.0000
  Cs  Cs1       1.0  0.57100  0.00000  0.50000  1.0000
  Cs  Cs2       1.0  0.42900  0.42900  0.50000  1.0000
  Cs  Cs3       1.0  0.00000  0.57100  0.50000  1.0000
  F   F1        1.0  0.83900  0.00000  0.00000  1.0000
  F   F2        1.0  0.16100  0.16100  0.00000  1.0000
  F   F3        1.0  0.43900  0.16500  0.00000  1.0000
  F   F4        1.0  0.83500  0.27400  0.00000  1.0000
  F   F5        1.0  0.16500  0.43900  0.00000  1.0000
  F   F6        1.0  0.72600  0.56100  0.00000  1.0000
  F   F7        1.0  0.56100  0.72600  0.00000  1.0000
  F   F8        1.0  0.27400  0.83500  0.00000  1.0000
  F   F9        1.0  1.00000  0.83900  0.00000  1.0000
  F   F10       1.0  0.21600  0.00000  0.50000  1.0000
  F   F11       1.0  1.00000  0.21600  0.50000  1.0000
  F   F12       1.0  0.78400  0.78400  0.50000  1.0000
