data_image0
_chemical_formula_structural       B8Eu2Os8
_chemical_formula_sum              "B8 Eu2 Os8"
_cell_length_a       7.57481
_cell_length_b       7.57481
_cell_length_c       4.01544
_cell_angle_alpha    90
_cell_angle_beta     90
_cell_angle_gamma    90

_space_group_name_H-M_alt    "P 1"
_space_group_IT_number       1

loop_
  _space_group_symop_operation_xyz
  'x, y, z'

loop_
  _atom_site_type_symbol
  _atom_site_label
  _atom_site_symmetry_multiplicity
  _atom_site_fract_x
  _atom_site_fract_y
  _atom_site_fract_z
  _atom_site_occupancy
  B   B1        1.0  0.03190  0.58600  0.13700  1.0000
  B   B2        1.0  0.46800  0.91400  0.13700  1.0000
  B   B3        1.0  0.91400  0.03190  0.36300  1.0000
  B   B4        1.0  0.58600  0.46800  0.36300  1.0000
  B   B5        1.0  0.41400  0.53200  0.63700  1.0000
  B   B6        1.0  0.08590  0.96800  0.63700  1.0000
  B   B7        1.0  0.53200  0.08590  0.86300  1.0000
  B   B8        1.0  0.96800  0.41400  0.86300  1.0000
  Eu  Eu1       1.0  0.25000  0.25000  0.25000  1.0000
  Eu  Eu2       1.0  0.75000  0.75000  0.75000  1.0000
  Os  Os1       1.0  0.39600  0.64100  0.13600  1.0000
  Os  Os2       1.0  0.10400  0.85900  0.13600  1.0000
  Os  Os3       1.0  0.64100  0.10400  0.36400  1.0000
  Os  Os4       1.0  0.85900  0.39600  0.36400  1.0000
  Os  Os5       1.0  0.14100  0.60400  0.63600  1.0000
  Os  Os6       1.0  0.35900  0.89600  0.63600  1.0000
  Os  Os7       1.0  0.89600  0.14100  0.86400  1.0000
  Os  Os8       1.0  0.60400  0.35900  0.86400  1.0000
