data_image0
_chemical_formula_structural       B8Gd2Ir8
_chemical_formula_sum              "B8 Gd2 Ir8"
_cell_length_a       7.64484
_cell_length_b       7.64484
_cell_length_c       3.99061
_cell_angle_alpha    90
_cell_angle_beta     90
_cell_angle_gamma    90

_space_group_name_H-M_alt    "P 1"
_space_group_IT_number       1

loop_
  _space_group_symop_operation_xyz
  'x, y, z'

loop_
  _atom_site_type_symbol
  _atom_site_label
  _atom_site_symmetry_multiplicity
  _atom_site_fract_x
  _atom_site_fract_y
  _atom_site_fract_z
  _atom_site_occupancy
  B   B1        1.0  0.02810  0.59200  0.13900  1.0000
  B   B2        1.0  0.47200  0.90800  0.13900  1.0000
  B   B3        1.0  0.90800  0.02810  0.36100  1.0000
  B   B4        1.0  0.59200  0.47200  0.36100  1.0000
  B   B5        1.0  0.40800  0.52800  0.63900  1.0000
  B   B6        1.0  0.09220  0.97200  0.63900  1.0000
  B   B7        1.0  0.52800  0.09220  0.86100  1.0000
  B   B8        1.0  0.97200  0.40800  0.86100  1.0000
  Gd  Gd1       1.0  0.25000  0.25000  0.25000  1.0000
  Gd  Gd2       1.0  0.75000  0.75000  0.75000  1.0000
  Ir  Ir1       1.0  0.41000  0.64000  0.13800  1.0000
  Ir  Ir2       1.0  0.09030  0.86000  0.13800  1.0000
  Ir  Ir3       1.0  0.64000  0.09030  0.36200  1.0000
  Ir  Ir4       1.0  0.86000  0.41000  0.36200  1.0000
  Ir  Ir5       1.0  0.14000  0.59000  0.63800  1.0000
  Ir  Ir6       1.0  0.36000  0.91000  0.63800  1.0000
  Ir  Ir7       1.0  0.91000  0.14000  0.86200  1.0000
  Ir  Ir8       1.0  0.59000  0.36000  0.86200  1.0000
