data_image0
_chemical_formula_structural       B8Ir8Sm2
_chemical_formula_sum              "B8 Ir8 Sm2"
_cell_length_a       7.66524
_cell_length_b       7.66524
_cell_length_c       3.99082
_cell_angle_alpha    90
_cell_angle_beta     90
_cell_angle_gamma    90

_space_group_name_H-M_alt    "P 1"
_space_group_IT_number       1

loop_
  _space_group_symop_operation_xyz
  'x, y, z'

loop_
  _atom_site_type_symbol
  _atom_site_label
  _atom_site_symmetry_multiplicity
  _atom_site_fract_x
  _atom_site_fract_y
  _atom_site_fract_z
  _atom_site_occupancy
  B   B1        1.0  0.02880  0.59200  0.14000  1.0000
  B   B2        1.0  0.47100  0.90800  0.14000  1.0000
  B   B3        1.0  0.90800  0.02880  0.36000  1.0000
  B   B4        1.0  0.59200  0.47100  0.36000  1.0000
  B   B5        1.0  0.40800  0.52900  0.64000  1.0000
  B   B6        1.0  0.09200  0.97100  0.64000  1.0000
  B   B7        1.0  0.52900  0.09200  0.86000  1.0000
  B   B8        1.0  0.97100  0.40800  0.86000  1.0000
  Ir  Ir1       1.0  0.40900  0.64000  0.14000  1.0000
  Ir  Ir2       1.0  0.09080  0.86000  0.14000  1.0000
  Ir  Ir3       1.0  0.64000  0.09080  0.36000  1.0000
  Ir  Ir4       1.0  0.86000  0.40900  0.36000  1.0000
  Ir  Ir5       1.0  0.14000  0.59100  0.64000  1.0000
  Ir  Ir6       1.0  0.36000  0.90900  0.64000  1.0000
  Ir  Ir7       1.0  0.90900  0.14000  0.86000  1.0000
  Ir  Ir8       1.0  0.59100  0.36000  0.86000  1.0000
  Sm  Sm1       1.0  0.25000  0.25000  0.25000  1.0000
  Sm  Sm2       1.0  0.75000  0.75000  0.75000  1.0000
