data_image0
_chemical_formula_structural       N4Pr8Se6
_chemical_formula_sum              "N4 Pr8 Se6"
_cell_length_a       6.5205
_cell_length_b       8.37754
_cell_length_c       8.37754
_cell_angle_alpha    75.6735
_cell_angle_beta     89.7572
_cell_angle_gamma    89.7572

_space_group_name_H-M_alt    "P 1"
_space_group_IT_number       1

loop_
  _space_group_symop_operation_xyz
  'x, y, z'

loop_
  _atom_site_type_symbol
  _atom_site_label
  _atom_site_symmetry_multiplicity
  _atom_site_fract_x
  _atom_site_fract_y
  _atom_site_fract_z
  _atom_site_occupancy
  N   N1        1.0  0.58500  0.41900  0.17100  1.0000
  N   N2        1.0  0.08500  0.17100  0.41900  1.0000
  N   N3        1.0  0.91500  0.82900  0.58100  1.0000
  N   N4        1.0  0.41500  0.58100  0.82900  1.0000
  Pr  Pr1       1.0  0.47000  0.69100  0.05700  1.0000
  Pr  Pr2       1.0  0.92800  0.41500  0.25500  1.0000
  Pr  Pr3       1.0  0.03010  0.94300  0.30900  1.0000
  Pr  Pr4       1.0  0.42800  0.25500  0.41500  1.0000
  Pr  Pr5       1.0  0.57200  0.74500  0.58500  1.0000
  Pr  Pr6       1.0  0.97000  0.05700  0.69100  1.0000
  Pr  Pr7       1.0  0.07160  0.58500  0.74500  1.0000
  Pr  Pr8       1.0  0.53000  0.30900  0.94300  1.0000
  Se  Se1       1.0  0.96400  0.75400  0.01570  1.0000
  Se  Se2       1.0  0.53600  0.98400  0.24600  1.0000
  Se  Se3       1.0  0.25000  0.59700  0.40300  1.0000
  Se  Se4       1.0  0.75000  0.40300  0.59700  1.0000
  Se  Se5       1.0  0.46400  0.01570  0.75400  1.0000
  Se  Se6       1.0  0.03560  0.24600  0.98400  1.0000
