data_image0
_chemical_formula_structural       Al4F4K4O6
_chemical_formula_sum              "Al4 F4 K4 O6"
_cell_length_a       6.03098
_cell_length_b       6.88496
_cell_length_c       6.88496
_cell_angle_alpha    71.9122
_cell_angle_beta     91.1627
_cell_angle_gamma    91.1627

_space_group_name_H-M_alt    "P 1"
_space_group_IT_number       1

loop_
  _space_group_symop_operation_xyz
  'x, y, z'

loop_
  _atom_site_type_symbol
  _atom_site_label
  _atom_site_symmetry_multiplicity
  _atom_site_fract_x
  _atom_site_fract_y
  _atom_site_fract_z
  _atom_site_occupancy
  Al  Al1       1.0  0.84900  0.67200  0.07810  1.0000
  Al  Al2       1.0  0.15100  0.92200  0.32800  1.0000
  Al  Al3       1.0  0.84900  0.07810  0.67200  1.0000
  Al  Al4       1.0  0.15100  0.32800  0.92200  1.0000
  F   F1        1.0  0.60500  0.54900  0.18700  1.0000
  F   F2        1.0  0.39500  0.81300  0.45100  1.0000
  F   F3        1.0  0.60500  0.18700  0.54900  1.0000
  F   F4        1.0  0.39500  0.45100  0.81300  1.0000
  K   K1        1.0  0.67500  0.15800  0.15800  1.0000
  K   K2        1.0  0.25400  0.39900  0.39900  1.0000
  K   K3        1.0  0.74600  0.60100  0.60100  1.0000
  K   K4        1.0  0.32500  0.84200  0.84200  1.0000
  O   O1        1.0  0.00000  0.50000  0.00000  1.0000
  O   O2        1.0  0.24300  0.11900  0.11900  1.0000
  O   O3        1.0  0.00000  0.73200  0.26800  1.0000
  O   O4        1.0  0.00000  0.00000  0.50000  1.0000
  O   O5        1.0  0.00000  0.26800  0.73200  1.0000
  O   O6        1.0  0.75700  0.88100  0.88100  1.0000
