data_image0
_chemical_formula_structural       Al6Dy4Ge8
_chemical_formula_sum              "Al6 Dy4 Ge8"
_cell_length_a       5.93459
_cell_length_b       7.95836
_cell_length_c       7.9546
_cell_angle_alpha    90
_cell_angle_beta     68.0975
_cell_angle_gamma    90

_space_group_name_H-M_alt    "P 1"
_space_group_IT_number       1

loop_
  _space_group_symop_operation_xyz
  'x, y, z'

loop_
  _atom_site_type_symbol
  _atom_site_label
  _atom_site_symmetry_multiplicity
  _atom_site_fract_x
  _atom_site_fract_y
  _atom_site_fract_z
  _atom_site_occupancy
  Al  Al1       1.0  0.00000  0.00000  0.00000  1.0000
  Al  Al2       1.0  0.50000  0.50000  0.00000  1.0000
  Al  Al3       1.0  0.03360  0.75000  0.43300  1.0000
  Al  Al4       1.0  0.53400  0.75000  0.43300  1.0000
  Al  Al5       1.0  0.46600  0.25000  0.56700  1.0000
  Al  Al6       1.0  0.96600  0.25000  0.56700  1.0000
  Dy  Dy1       1.0  0.38500  0.07960  0.23100  1.0000
  Dy  Dy2       1.0  0.88500  0.42000  0.23100  1.0000
  Dy  Dy3       1.0  0.11500  0.58000  0.76900  1.0000
  Dy  Dy4       1.0  0.61500  0.92000  0.76900  1.0000
  Ge  Ge1       1.0  0.20500  0.75000  0.08930  1.0000
  Ge  Ge2       1.0  0.70500  0.75000  0.08930  1.0000
  Ge  Ge3       1.0  0.81500  0.05280  0.37000  1.0000
  Ge  Ge4       1.0  0.31500  0.44700  0.37000  1.0000
  Ge  Ge5       1.0  0.68500  0.55300  0.63000  1.0000
  Ge  Ge6       1.0  0.18500  0.94700  0.63000  1.0000
  Ge  Ge7       1.0  0.29500  0.25000  0.91100  1.0000
  Ge  Ge8       1.0  0.79500  0.25000  0.91100  1.0000
