data_image0
_chemical_formula_structural       Mo6Si8Tm4
_chemical_formula_sum              "Mo6 Si8 Tm4"
_cell_length_a       6.8271
_cell_length_b       6.88755
_cell_length_c       6.70681
_cell_angle_alpha    90
_cell_angle_beta     108.926
_cell_angle_gamma    90

_space_group_name_H-M_alt    "P 1"
_space_group_IT_number       1

loop_
  _space_group_symop_operation_xyz
  'x, y, z'

loop_
  _atom_site_type_symbol
  _atom_site_label
  _atom_site_symmetry_multiplicity
  _atom_site_fract_x
  _atom_site_fract_y
  _atom_site_fract_z
  _atom_site_occupancy
  Mo  Mo1       1.0  0.50000  0.50000  0.00000  1.0000
  Mo  Mo2       1.0  0.24800  0.66300  0.24900  1.0000
  Mo  Mo3       1.0  0.75200  0.16300  0.25100  1.0000
  Mo  Mo4       1.0  0.50000  0.00000  0.50000  1.0000
  Mo  Mo5       1.0  0.24800  0.83700  0.74900  1.0000
  Mo  Mo6       1.0  0.75200  0.33700  0.75100  1.0000
  Si  Si1       1.0  0.49700  0.86800  0.12900  1.0000
  Si  Si2       1.0  0.91100  0.45700  0.13400  1.0000
  Si  Si3       1.0  0.08900  0.95700  0.36600  1.0000
  Si  Si4       1.0  0.50300  0.36800  0.37100  1.0000
  Si  Si5       1.0  0.49700  0.63200  0.62900  1.0000
  Si  Si6       1.0  0.91100  0.04330  0.63400  1.0000
  Si  Si7       1.0  0.08900  0.54300  0.86600  1.0000
  Si  Si8       1.0  0.50300  0.13200  0.87100  1.0000
  Tm  Tm1       1.0  0.19100  0.17000  0.06130  1.0000
  Tm  Tm2       1.0  0.80900  0.67000  0.43900  1.0000
  Tm  Tm3       1.0  0.19100  0.33000  0.56100  1.0000
  Tm  Tm4       1.0  0.80900  0.83000  0.93900  1.0000
