data_image0
_chemical_formula_structural       Al2Ge12Pr4
_chemical_formula_sum              "Al2 Ge12 Pr4"
_cell_length_a       6.08839
_cell_length_b       6.08839
_cell_length_c       10.7637
_cell_angle_alpha    97.9806
_cell_angle_beta     97.9806
_cell_angle_gamma    92.4621

_space_group_name_H-M_alt    "P 1"
_space_group_IT_number       1

loop_
  _space_group_symop_operation_xyz
  'x, y, z'

loop_
  _atom_site_type_symbol
  _atom_site_label
  _atom_site_symmetry_multiplicity
  _atom_site_fract_x
  _atom_site_fract_y
  _atom_site_fract_z
  _atom_site_occupancy
  Al  Al1       1.0  0.80000  0.80000  0.19500  1.0000
  Al  Al2       1.0  0.20000  0.20000  0.80500  1.0000
  Ge  Ge1       1.0  0.06950  0.06950  0.11500  1.0000
  Ge  Ge2       1.0  0.49400  0.06600  0.11500  1.0000
  Ge  Ge3       1.0  0.06600  0.49400  0.11500  1.0000
  Ge  Ge4       1.0  0.48900  0.48900  0.11500  1.0000
  Ge  Ge5       1.0  0.36100  0.36100  0.41600  1.0000
  Ge  Ge6       1.0  0.85300  0.85300  0.43700  1.0000
  Ge  Ge7       1.0  0.14700  0.14700  0.56300  1.0000
  Ge  Ge8       1.0  0.63900  0.63900  0.58400  1.0000
  Ge  Ge9       1.0  0.51100  0.51100  0.88500  1.0000
  Ge  Ge10      1.0  0.93400  0.50600  0.88500  1.0000
  Ge  Ge11      1.0  0.50600  0.93400  0.88500  1.0000
  Ge  Ge12      1.0  0.93100  0.93100  0.88500  1.0000
  Pr  Pr1       1.0  0.83800  0.33400  0.33700  1.0000
  Pr  Pr2       1.0  0.33400  0.83800  0.33700  1.0000
  Pr  Pr3       1.0  0.66600  0.16200  0.66300  1.0000
  Pr  Pr4       1.0  0.16200  0.66600  0.66300  1.0000
