data_image0
_chemical_formula_structural       Al6Hf10N2
_chemical_formula_sum              "Al6 Hf10 N2"
_cell_length_a       8.08558
_cell_length_b       8.08558
_cell_length_c       5.64977
_cell_angle_alpha    90
_cell_angle_beta     90
_cell_angle_gamma    120

_space_group_name_H-M_alt    "P 1"
_space_group_IT_number       1

loop_
  _space_group_symop_operation_xyz
  'x, y, z'

loop_
  _atom_site_type_symbol
  _atom_site_label
  _atom_site_symmetry_multiplicity
  _atom_site_fract_x
  _atom_site_fract_y
  _atom_site_fract_z
  _atom_site_occupancy
  Al  Al1       1.0  0.59700  0.00000  0.25000  1.0000
  Al  Al2       1.0  0.00000  0.59700  0.25000  1.0000
  Al  Al3       1.0  0.40300  0.40300  0.25000  1.0000
  Al  Al4       1.0  0.40300  0.00000  0.75000  1.0000
  Al  Al5       1.0  0.00000  0.40300  0.75000  1.0000
  Al  Al6       1.0  0.59700  0.59700  0.75000  1.0000
  Hf  Hf1       1.0  0.66700  0.33300  0.00000  1.0000
  Hf  Hf2       1.0  0.33300  0.66700  0.00000  1.0000
  Hf  Hf3       1.0  0.22500  0.00000  0.25000  1.0000
  Hf  Hf4       1.0  0.00000  0.22500  0.25000  1.0000
  Hf  Hf5       1.0  0.77500  0.77500  0.25000  1.0000
  Hf  Hf6       1.0  0.66700  0.33300  0.50000  1.0000
  Hf  Hf7       1.0  0.33300  0.66700  0.50000  1.0000
  Hf  Hf8       1.0  0.77500  0.00000  0.75000  1.0000
  Hf  Hf9       1.0  0.00000  0.77500  0.75000  1.0000
  Hf  Hf10      1.0  0.22500  0.22500  0.75000  1.0000
  N   N1        1.0  0.00000  0.00000  0.00000  1.0000
  N   N2        1.0  0.00000  0.00000  0.50000  1.0000
