data_image0
_chemical_formula_structural       Al2Ge12Nd4
_chemical_formula_sum              "Al2 Ge12 Nd4"
_cell_length_a       6.06807
_cell_length_b       6.06807
_cell_length_c       10.7068
_cell_angle_alpha    98.0242
_cell_angle_beta     98.0242
_cell_angle_gamma    92.4189

_space_group_name_H-M_alt    "P 1"
_space_group_IT_number       1

loop_
  _space_group_symop_operation_xyz
  'x, y, z'

loop_
  _atom_site_type_symbol
  _atom_site_label
  _atom_site_symmetry_multiplicity
  _atom_site_fract_x
  _atom_site_fract_y
  _atom_site_fract_z
  _atom_site_occupancy
  Al  Al1       1.0  0.80000  0.80000  0.19600  1.0000
  Al  Al2       1.0  0.20000  0.20000  0.80400  1.0000
  Ge  Ge1       1.0  0.06970  0.06970  0.11600  1.0000
  Ge  Ge2       1.0  0.49400  0.06630  0.11600  1.0000
  Ge  Ge3       1.0  0.06630  0.49400  0.11600  1.0000
  Ge  Ge4       1.0  0.49000  0.49000  0.11600  1.0000
  Ge  Ge5       1.0  0.36200  0.36200  0.41500  1.0000
  Ge  Ge6       1.0  0.85300  0.85300  0.43800  1.0000
  Ge  Ge7       1.0  0.14700  0.14700  0.56200  1.0000
  Ge  Ge8       1.0  0.63800  0.63800  0.58500  1.0000
  Ge  Ge9       1.0  0.51000  0.51000  0.88400  1.0000
  Ge  Ge10      1.0  0.93400  0.50600  0.88400  1.0000
  Ge  Ge11      1.0  0.50600  0.93400  0.88400  1.0000
  Ge  Ge12      1.0  0.93000  0.93000  0.88400  1.0000
  Nd  Nd1       1.0  0.83900  0.33400  0.33800  1.0000
  Nd  Nd2       1.0  0.33400  0.83900  0.33800  1.0000
  Nd  Nd3       1.0  0.66600  0.16100  0.66200  1.0000
  Nd  Nd4       1.0  0.16100  0.66600  0.66200  1.0000
