data_image0
_chemical_formula_structural       Mo6Si8Tb4
_chemical_formula_sum              "Mo6 Si8 Tb4"
_cell_length_a       6.87755
_cell_length_b       6.93931
_cell_length_c       6.77997
_cell_angle_alpha    90
_cell_angle_beta     108.992
_cell_angle_gamma    90

_space_group_name_H-M_alt    "P 1"
_space_group_IT_number       1

loop_
  _space_group_symop_operation_xyz
  'x, y, z'

loop_
  _atom_site_type_symbol
  _atom_site_label
  _atom_site_symmetry_multiplicity
  _atom_site_fract_x
  _atom_site_fract_y
  _atom_site_fract_z
  _atom_site_occupancy
  Mo  Mo1       1.0  0.50000  0.50000  0.00000  1.0000
  Mo  Mo2       1.0  0.25100  0.66200  0.24900  1.0000
  Mo  Mo3       1.0  0.74900  0.16200  0.25100  1.0000
  Mo  Mo4       1.0  0.50000  0.00000  0.50000  1.0000
  Mo  Mo5       1.0  0.25100  0.83800  0.74900  1.0000
  Mo  Mo6       1.0  0.74900  0.33800  0.75100  1.0000
  Si  Si1       1.0  0.49500  0.86800  0.12800  1.0000
  Si  Si2       1.0  0.90900  0.45500  0.13100  1.0000
  Si  Si3       1.0  0.09090  0.95500  0.36900  1.0000
  Si  Si4       1.0  0.50500  0.36800  0.37200  1.0000
  Si  Si5       1.0  0.49500  0.63200  0.62800  1.0000
  Si  Si6       1.0  0.90900  0.04540  0.63100  1.0000
  Si  Si7       1.0  0.09090  0.54500  0.86900  1.0000
  Si  Si8       1.0  0.50500  0.13200  0.87200  1.0000
  Tb  Tb1       1.0  0.19000  0.16900  0.06160  1.0000
  Tb  Tb2       1.0  0.81000  0.66900  0.43800  1.0000
  Tb  Tb3       1.0  0.19000  0.33100  0.56200  1.0000
  Tb  Tb4       1.0  0.81000  0.83100  0.93800  1.0000
