data_image0
_chemical_formula_structural       As2ClO10Pr5
_chemical_formula_sum              "As2 Cl1 O10 Pr5"
_cell_length_a       5.71027
_cell_length_b       6.88902
_cell_length_c       8.8731
_cell_angle_alpha    95.5463
_cell_angle_beta     108.77
_cell_angle_gamma    114.485

_space_group_name_H-M_alt    "P 1"
_space_group_IT_number       1

loop_
  _space_group_symop_operation_xyz
  'x, y, z'

loop_
  _atom_site_type_symbol
  _atom_site_label
  _atom_site_symmetry_multiplicity
  _atom_site_fract_x
  _atom_site_fract_y
  _atom_site_fract_z
  _atom_site_occupancy
  As  As1       1.0  0.18200  0.96700  0.39700  1.0000
  As  As2       1.0  0.81800  0.03300  0.60300  1.0000
  Cl  Cl1       1.0  0.50000  0.50000  0.50000  1.0000
  O   O1        1.0  0.45700  0.32400  0.08340  1.0000
  O   O2        1.0  0.95100  0.32400  0.08340  1.0000
  O   O3        1.0  0.34400  0.96700  0.25000  1.0000
  O   O4        1.0  0.87300  0.96700  0.25000  1.0000
  O   O5        1.0  0.04040  0.68200  0.39800  1.0000
  O   O6        1.0  0.96000  0.31800  0.60200  1.0000
  O   O7        1.0  0.12700  0.03260  0.75000  1.0000
  O   O8        1.0  0.65600  0.03260  0.75000  1.0000
  O   O9        1.0  0.04930  0.67600  0.91700  1.0000
  O   O10       1.0  0.54300  0.67600  0.91700  1.0000
  Pr  Pr1       1.0  0.00000  0.00000  0.00000  1.0000
  Pr  Pr2       1.0  0.38400  0.63600  0.13200  1.0000
  Pr  Pr3       1.0  0.79400  0.29300  0.29400  1.0000
  Pr  Pr4       1.0  0.20600  0.70700  0.70600  1.0000
  Pr  Pr5       1.0  0.61600  0.36400  0.86800  1.0000
