data_image0
_chemical_formula_structural       P4S14
_chemical_formula_sum              "P4 S14"
_cell_length_a       6.18051
_cell_length_b       6.52425
_cell_length_c       11.3331
_cell_angle_alpha    82.6214
_cell_angle_beta     89.2877
_cell_angle_gamma    85.4415

_space_group_name_H-M_alt    "P 1"
_space_group_IT_number       1

loop_
  _space_group_symop_operation_xyz
  'x, y, z'

loop_
  _atom_site_type_symbol
  _atom_site_label
  _atom_site_symmetry_multiplicity
  _atom_site_fract_x
  _atom_site_fract_y
  _atom_site_fract_z
  _atom_site_occupancy
  P   P1        1.0  0.05410  0.16800  0.06390  1.0000
  P   P2        1.0  0.62900  0.80400  0.49400  1.0000
  P   P3        1.0  0.37100  0.19600  0.50600  1.0000
  P   P4        1.0  0.94600  0.83200  0.93600  1.0000
  S   S1        1.0  0.27900  0.36000  0.05010  1.0000
  S   S2        1.0  0.15400  0.84600  0.08410  1.0000
  S   S3        1.0  0.85400  0.22700  0.21100  1.0000
  S   S4        1.0  0.63200  0.00754  0.21500  1.0000
  S   S5        1.0  0.75700  0.75100  0.32600  1.0000
  S   S6        1.0  0.27500  0.43000  0.39100  1.0000
  S   S7        1.0  0.29000  0.89700  0.47200  1.0000
  S   S8        1.0  0.71000  0.10300  0.52800  1.0000
  S   S9        1.0  0.72500  0.57000  0.60900  1.0000
  S   S10       1.0  0.24300  0.24900  0.67400  1.0000
  S   S11       1.0  0.36800  0.99200  0.78500  1.0000
  S   S12       1.0  0.14600  0.77300  0.78900  1.0000
  S   S13       1.0  0.84600  0.15400  0.91600  1.0000
  S   S14       1.0  0.72100  0.64000  0.95000  1.0000
