data_image0
_chemical_formula_structural       C10N8
_chemical_formula_sum              "C10 N8"
_cell_length_a       6.26254
_cell_length_b       6.26254
_cell_length_c       6.26254
_cell_angle_alpha    88.2197
_cell_angle_beta     91.7803
_cell_angle_gamma    91.7803

_space_group_name_H-M_alt    "P 1"
_space_group_IT_number       1

loop_
  _space_group_symop_operation_xyz
  'x, y, z'

loop_
  _atom_site_type_symbol
  _atom_site_label
  _atom_site_symmetry_multiplicity
  _atom_site_fract_x
  _atom_site_fract_y
  _atom_site_fract_z
  _atom_site_occupancy
  C   C1        1.0  0.00000  0.00003  0.00003  1.0000
  C   C2        1.0  0.81000  0.87300  0.06870  1.0000
  C   C3        1.0  0.12700  0.06870  0.19000  1.0000
  C   C4        1.0  0.63200  0.36800  0.36800  1.0000
  C   C5        1.0  0.31000  0.56900  0.37300  1.0000
  C   C6        1.0  0.50000  0.50000  0.50000  1.0000
  C   C7        1.0  0.62700  0.69000  0.56900  1.0000
  C   C8        1.0  0.43100  0.37300  0.69000  1.0000
  C   C9        1.0  0.13200  0.86800  0.86800  1.0000
  C   C10       1.0  0.93100  0.19000  0.87300  1.0000
  N   N1        1.0  0.66200  0.77100  0.12300  1.0000
  N   N2        1.0  0.73600  0.26400  0.26400  1.0000
  N   N3        1.0  0.16200  0.62300  0.27100  1.0000
  N   N4        1.0  0.22900  0.12300  0.33800  1.0000
  N   N5        1.0  0.72900  0.83800  0.62300  1.0000
  N   N6        1.0  0.23600  0.76400  0.76400  1.0000
  N   N7        1.0  0.87700  0.33800  0.77100  1.0000
  N   N8        1.0  0.37700  0.27100  0.83800  1.0000
