data_image0
_chemical_formula_structural       Al6C2Zr10
_chemical_formula_sum              "Al6 C2 Zr10"
_cell_length_a       8.33852
_cell_length_b       8.33852
_cell_length_c       5.62451
_cell_angle_alpha    90
_cell_angle_beta     90
_cell_angle_gamma    120

_space_group_name_H-M_alt    "P 1"
_space_group_IT_number       1

loop_
  _space_group_symop_operation_xyz
  'x, y, z'

loop_
  _atom_site_type_symbol
  _atom_site_label
  _atom_site_symmetry_multiplicity
  _atom_site_fract_x
  _atom_site_fract_y
  _atom_site_fract_z
  _atom_site_occupancy
  Al  Al1       1.0  0.60000  0.00000  0.25000  1.0000
  Al  Al2       1.0  0.00000  0.60000  0.25000  1.0000
  Al  Al3       1.0  0.40000  0.40000  0.25000  1.0000
  Al  Al4       1.0  0.40000  0.00000  0.75000  1.0000
  Al  Al5       1.0  0.00000  0.40000  0.75000  1.0000
  Al  Al6       1.0  0.60000  0.60000  0.75000  1.0000
  C   C1        1.0  0.00000  0.00000  0.00000  1.0000
  C   C2        1.0  0.00000  0.00000  0.50000  1.0000
  Zr  Zr1       1.0  0.66700  0.33300  0.00000  1.0000
  Zr  Zr2       1.0  0.33300  0.66700  0.00000  1.0000
  Zr  Zr3       1.0  0.22400  0.00000  0.25000  1.0000
  Zr  Zr4       1.0  0.00000  0.22400  0.25000  1.0000
  Zr  Zr5       1.0  0.77600  0.77600  0.25000  1.0000
  Zr  Zr6       1.0  0.66700  0.33300  0.50000  1.0000
  Zr  Zr7       1.0  0.33300  0.66700  0.50000  1.0000
  Zr  Zr8       1.0  0.77600  0.00000  0.75000  1.0000
  Zr  Zr9       1.0  0.00000  0.77600  0.75000  1.0000
  Zr  Zr10      1.0  0.22400  0.22400  0.75000  1.0000
