data_image0
_chemical_formula_structural       Al8C8Si2
_chemical_formula_sum              "Al8 C8 Si2"
_cell_length_a       3.31986
_cell_length_b       3.31983
_cell_length_c       21.8684
_cell_angle_alpha    90
_cell_angle_beta     90
_cell_angle_gamma    120

_space_group_name_H-M_alt    "P 1"
_space_group_IT_number       1

loop_
  _space_group_symop_operation_xyz
  'x, y, z'

loop_
  _atom_site_type_symbol
  _atom_site_label
  _atom_site_symmetry_multiplicity
  _atom_site_fract_x
  _atom_site_fract_y
  _atom_site_fract_z
  _atom_site_occupancy
  Al  Al1       1.0  0.33300  0.66700  0.05110  1.0000
  Al  Al2       1.0  0.00000  0.00000  0.15800  1.0000
  Al  Al3       1.0  0.33300  0.66700  0.24600  1.0000
  Al  Al4       1.0  0.00000  0.00000  0.34500  1.0000
  Al  Al5       1.0  0.66700  0.33300  0.55100  1.0000
  Al  Al6       1.0  0.00002  0.00003  0.65800  1.0000
  Al  Al7       1.0  0.66700  0.33300  0.74600  1.0000
  Al  Al8       1.0  0.00002  0.00003  0.84500  1.0000
  C   C1        1.0  0.00001  0.00001  0.99700  1.0000
  C   C2        1.0  0.33300  0.66700  0.13700  1.0000
  C   C3        1.0  0.00000  0.00000  0.25300  1.0000
  C   C4        1.0  0.33300  0.66700  0.37300  1.0000
  C   C5        1.0  0.00000  0.00000  0.49700  1.0000
  C   C6        1.0  0.66700  0.33300  0.63700  1.0000
  C   C7        1.0  0.00002  0.00003  0.75300  1.0000
  C   C8        1.0  0.66700  0.33300  0.87300  1.0000
  Si  Si1       1.0  0.33300  0.66700  0.45300  1.0000
  Si  Si2       1.0  0.66700  0.33300  0.95300  1.0000
