data_image0
_chemical_formula_structural       As8Eu10
_chemical_formula_sum              "As8 Eu10"
_cell_length_a       7.95792
_cell_length_b       7.99022
_cell_length_c       8.76353
_cell_angle_alpha    90
_cell_angle_beta     117.003
_cell_angle_gamma    90

_space_group_name_H-M_alt    "P 1"
_space_group_IT_number       1

loop_
  _space_group_symop_operation_xyz
  'x, y, z'

loop_
  _atom_site_type_symbol
  _atom_site_label
  _atom_site_symmetry_multiplicity
  _atom_site_fract_x
  _atom_site_fract_y
  _atom_site_fract_z
  _atom_site_occupancy
  As  As1       1.0  0.38700  0.11300  0.00000  1.0000
  As  As2       1.0  0.88700  0.38700  0.00000  1.0000
  As  As3       1.0  0.11300  0.61300  0.00000  1.0000
  As  As4       1.0  0.61300  0.88700  0.00000  1.0000
  As  As5       1.0  0.19800  0.00000  0.39700  1.0000
  As  As6       1.0  0.69800  0.50000  0.39700  1.0000
  As  As7       1.0  0.80200  0.00000  0.60300  1.0000
  As  As8       1.0  0.30200  0.50000  0.60300  1.0000
  Eu  Eu1       1.0  0.00000  0.00000  0.00000  1.0000
  Eu  Eu2       1.0  0.50000  0.50000  0.00000  1.0000
  Eu  Eu3       1.0  0.81600  0.16500  0.29300  1.0000
  Eu  Eu4       1.0  0.31600  0.33500  0.29300  1.0000
  Eu  Eu5       1.0  0.97700  0.66500  0.29300  1.0000
  Eu  Eu6       1.0  0.47700  0.83500  0.29300  1.0000
  Eu  Eu7       1.0  0.52300  0.16500  0.70700  1.0000
  Eu  Eu8       1.0  0.02310  0.33500  0.70700  1.0000
  Eu  Eu9       1.0  0.68400  0.66500  0.70700  1.0000
  Eu  Eu10      1.0  0.18400  0.83500  0.70700  1.0000
