data_image0
_chemical_formula_structural       F6GeRb2
_chemical_formula_sum              "F6 Ge1 Rb2"
_cell_length_a       5.6615
_cell_length_b       5.66138
_cell_length_c       4.60008
_cell_angle_alpha    90
_cell_angle_beta     90.0002
_cell_angle_gamma    119.999

_space_group_name_H-M_alt    "P 1"
_space_group_IT_number       1

loop_
  _space_group_symop_operation_xyz
  'x, y, z'

loop_
  _atom_site_type_symbol
  _atom_site_label
  _atom_site_symmetry_multiplicity
  _atom_site_fract_x
  _atom_site_fract_y
  _atom_site_fract_z
  _atom_site_occupancy
  F   F1        1.0  0.69200  0.84600  0.22200  1.0000
  F   F2        1.0  0.15400  0.84600  0.22200  1.0000
  F   F3        1.0  0.15400  0.30800  0.22200  1.0000
  F   F4        1.0  0.84600  0.69200  0.77800  1.0000
  F   F5        1.0  0.84600  0.15400  0.77800  1.0000
  F   F6        1.0  0.30800  0.15400  0.77800  1.0000
  Ge  Ge1       1.0  0.00000  0.00000  0.00000  1.0000
  Rb  Rb1       1.0  0.66700  0.33300  0.30200  1.0000
  Rb  Rb2       1.0  0.33300  0.66700  0.69800  1.0000
