data_image0
_chemical_formula_structural       Ag3C6K2N6Na
_chemical_formula_sum              "Ag3 C6 K2 N6 Na1"
_cell_length_a       6.88
_cell_length_b       6.88
_cell_length_c       8.64949
_cell_angle_alpha    90.0007
_cell_angle_beta     90.0007
_cell_angle_gamma    119.871

_space_group_name_H-M_alt    "P 1"
_space_group_IT_number       1

loop_
  _space_group_symop_operation_xyz
  'x, y, z'

loop_
  _atom_site_type_symbol
  _atom_site_label
  _atom_site_symmetry_multiplicity
  _atom_site_fract_x
  _atom_site_fract_y
  _atom_site_fract_z
  _atom_site_occupancy
  Ag  Ag1       1.0  0.50000  0.50000  0.00000  1.0000
  Ag  Ag2       1.0  0.50000  0.00000  0.00000  1.0000
  Ag  Ag3       1.0  0.00000  0.50000  0.00000  1.0000
  C   C1        1.0  0.36500  0.00312  0.21000  1.0000
  C   C2        1.0  0.00312  0.36500  0.21000  1.0000
  C   C3        1.0  0.63400  0.63400  0.21100  1.0000
  C   C4        1.0  0.36600  0.36600  0.78900  1.0000
  C   C5        1.0  0.99700  0.63500  0.79000  1.0000
  C   C6        1.0  0.63500  0.99700  0.79000  1.0000
  K   K1        1.0  0.66800  0.33200  0.50000  1.0000
  K   K2        1.0  0.33200  0.66800  0.50000  1.0000
  N   N1        1.0  0.70600  0.70600  0.33400  1.0000
  N   N2        1.0  0.29700  0.00205  0.33400  1.0000
  N   N3        1.0  0.00205  0.29700  0.33400  1.0000
  N   N4        1.0  0.99800  0.70300  0.66600  1.0000
  N   N5        1.0  0.70300  0.99800  0.66600  1.0000
  N   N6        1.0  0.29400  0.29400  0.66600  1.0000
  Na  Na1       1.0  0.00000  0.00000  0.50000  1.0000
