data_image0
_chemical_formula_structural       K4S10Sn4
_chemical_formula_sum              "K4 S10 Sn4"
_cell_length_a       6.87439
_cell_length_b       6.87439
_cell_length_c       11.6458
_cell_angle_alpha    104.616
_cell_angle_beta     75.3843
_cell_angle_gamma    109.524

_space_group_name_H-M_alt    "P 1"
_space_group_IT_number       1

loop_
  _space_group_symop_operation_xyz
  'x, y, z'

loop_
  _atom_site_type_symbol
  _atom_site_label
  _atom_site_symmetry_multiplicity
  _atom_site_fract_x
  _atom_site_fract_y
  _atom_site_fract_z
  _atom_site_occupancy
  K   K1        1.0  0.55300  0.11200  0.18300  1.0000
  K   K2        1.0  0.11200  0.55300  0.31700  1.0000
  K   K3        1.0  0.88800  0.44700  0.68300  1.0000
  K   K4        1.0  0.44700  0.88800  0.81700  1.0000
  S   S1        1.0  0.25200  0.64400  0.03760  1.0000
  S   S2        1.0  0.11500  0.14800  0.11800  1.0000
  S   S3        1.0  0.68300  0.68300  0.25000  1.0000
  S   S4        1.0  0.14800  0.11500  0.38200  1.0000
  S   S5        1.0  0.64400  0.25200  0.46200  1.0000
  S   S6        1.0  0.35600  0.74800  0.53800  1.0000
  S   S7        1.0  0.85200  0.88500  0.61800  1.0000
  S   S8        1.0  0.31700  0.31700  0.75000  1.0000
  S   S9        1.0  0.88500  0.85200  0.88200  1.0000
  S   S10       1.0  0.74800  0.35600  0.96200  1.0000
  Sn  Sn1       1.0  0.93800  0.74900  0.05760  1.0000
  Sn  Sn2       1.0  0.74900  0.93800  0.44200  1.0000
  Sn  Sn3       1.0  0.25100  0.06170  0.55800  1.0000
  Sn  Sn4       1.0  0.06170  0.25100  0.94200  1.0000
