data_image0
_chemical_formula_structural       Cu2O12Sb4
_chemical_formula_sum              "Cu2 O12 Sb4"
_cell_length_a       4.62776
_cell_length_b       4.63293
_cell_length_c       9.41593
_cell_angle_alpha    90
_cell_angle_beta     88.3981
_cell_angle_gamma    90

_space_group_name_H-M_alt    "P 1"
_space_group_IT_number       1

loop_
  _space_group_symop_operation_xyz
  'x, y, z'

loop_
  _atom_site_type_symbol
  _atom_site_label
  _atom_site_symmetry_multiplicity
  _atom_site_fract_x
  _atom_site_fract_y
  _atom_site_fract_z
  _atom_site_occupancy
  Cu  Cu1       1.0  0.00000  0.00000  0.00000  1.0000
  Cu  Cu2       1.0  0.50000  0.50000  0.50000  1.0000
  O   O1        1.0  0.30500  0.30600  0.99900  1.0000
  O   O2        1.0  0.69500  0.69400  0.00090  1.0000
  O   O3        1.0  0.80500  0.18400  0.16900  1.0000
  O   O4        1.0  0.20100  0.78900  0.17400  1.0000
  O   O5        1.0  0.29900  0.28900  0.32600  1.0000
  O   O6        1.0  0.69500  0.68400  0.33100  1.0000
  O   O7        1.0  0.80500  0.19400  0.49900  1.0000
  O   O8        1.0  0.19500  0.80600  0.50100  1.0000
  O   O9        1.0  0.30500  0.31600  0.66900  1.0000
  O   O10       1.0  0.70100  0.71100  0.67400  1.0000
  O   O11       1.0  0.79900  0.21100  0.82600  1.0000
  O   O12       1.0  0.19500  0.81600  0.83100  1.0000
  Sb  Sb1       1.0  0.50000  0.48900  0.16800  1.0000
  Sb  Sb2       1.0  0.00000  0.98900  0.33200  1.0000
  Sb  Sb3       1.0  0.00046  0.01110  0.66800  1.0000
  Sb  Sb4       1.0  0.50000  0.51100  0.83200  1.0000
