data_image0
_chemical_formula_structural       Ba4C2CuNaO10
_chemical_formula_sum              "Ba4 C2 Cu1 Na1 O10"
_cell_length_a       5.8147
_cell_length_b       5.8147
_cell_length_c       8.72657
_cell_angle_alpha    109.461
_cell_angle_beta     109.461
_cell_angle_gamma    90

_space_group_name_H-M_alt    "P 1"
_space_group_IT_number       1

loop_
  _space_group_symop_operation_xyz
  'x, y, z'

loop_
  _atom_site_type_symbol
  _atom_site_label
  _atom_site_symmetry_multiplicity
  _atom_site_fract_x
  _atom_site_fract_y
  _atom_site_fract_z
  _atom_site_occupancy
  Ba  Ba1       1.0  0.61800  0.11800  0.23600  1.0000
  Ba  Ba2       1.0  0.11800  0.61800  0.23600  1.0000
  Ba  Ba3       1.0  0.88200  0.38200  0.76400  1.0000
  Ba  Ba4       1.0  0.38200  0.88200  0.76400  1.0000
  C   C1        1.0  0.23300  0.23300  0.46600  1.0000
  C   C2        1.0  0.76700  0.76700  0.53400  1.0000
  Cu  Cu1       1.0  0.50000  0.50000  0.00000  1.0000
  Na  Na1       1.0  0.00000  0.00000  0.00000  1.0000
  O   O1        1.0  0.27200  0.27200  0.99300  1.0000
  O   O2        1.0  0.72100  0.72100  0.99300  1.0000
  O   O3        1.0  0.72800  0.27900  0.00662  1.0000
  O   O4        1.0  0.27900  0.72800  0.00662  1.0000
  O   O5        1.0  0.14800  0.14800  0.29600  1.0000
  O   O6        1.0  0.58800  0.58800  0.45300  1.0000
  O   O7        1.0  0.86500  0.86500  0.45300  1.0000
  O   O8        1.0  0.41200  0.13500  0.54700  1.0000
  O   O9        1.0  0.13500  0.41200  0.54700  1.0000
  O   O10       1.0  0.85200  0.85200  0.70400  1.0000
