data_image0
_chemical_formula_structural       Mo6Sn12
_chemical_formula_sum              "Mo6 Sn12"
_cell_length_a       5.52855
_cell_length_b       5.52855
_cell_length_c       14.2941
_cell_angle_alpha    90
_cell_angle_beta     90
_cell_angle_gamma    120

_space_group_name_H-M_alt    "P 1"
_space_group_IT_number       1

loop_
  _space_group_symop_operation_xyz
  'x, y, z'

loop_
  _atom_site_type_symbol
  _atom_site_label
  _atom_site_symmetry_multiplicity
  _atom_site_fract_x
  _atom_site_fract_y
  _atom_site_fract_z
  _atom_site_occupancy
  Mo  Mo1       1.0  0.00000  0.00000  0.00000  1.0000
  Mo  Mo2       1.0  0.50000  0.00000  0.00000  1.0000
  Mo  Mo3       1.0  0.00000  0.00000  0.33300  1.0000
  Mo  Mo4       1.0  0.50000  0.50000  0.33300  1.0000
  Mo  Mo5       1.0  0.00000  0.00000  0.66700  1.0000
  Mo  Mo6       1.0  0.00000  0.50000  0.66700  1.0000
  Sn  Sn1       1.0  0.00000  0.50000  0.06360  1.0000
  Sn  Sn2       1.0  0.33600  0.16800  0.16700  1.0000
  Sn  Sn3       1.0  0.66400  0.83200  0.16700  1.0000
  Sn  Sn4       1.0  0.00000  0.50000  0.27000  1.0000
  Sn  Sn5       1.0  0.50000  0.00000  0.39700  1.0000
  Sn  Sn6       1.0  0.16800  0.33600  0.50000  1.0000
  Sn  Sn7       1.0  0.83200  0.66400  0.50000  1.0000
  Sn  Sn8       1.0  0.50000  0.00000  0.60300  1.0000
  Sn  Sn9       1.0  0.50000  0.50000  0.73000  1.0000
  Sn  Sn10      1.0  0.83200  0.16800  0.83300  1.0000
  Sn  Sn11      1.0  0.16800  0.83200  0.83300  1.0000
  Sn  Sn12      1.0  0.50000  0.50000  0.93600  1.0000
