data_image0
_chemical_formula_structural       Li4O8Rb4Si2
_chemical_formula_sum              "Li4 O8 Rb4 Si2"
_cell_length_a       8.90986
_cell_length_b       5.63834
_cell_length_c       5.46434
_cell_angle_alpha    94.0263
_cell_angle_beta     111.017
_cell_angle_gamma    93.7284

_space_group_name_H-M_alt    "P 1"
_space_group_IT_number       1

loop_
  _space_group_symop_operation_xyz
  'x, y, z'

loop_
  _atom_site_type_symbol
  _atom_site_label
  _atom_site_symmetry_multiplicity
  _atom_site_fract_x
  _atom_site_fract_y
  _atom_site_fract_z
  _atom_site_occupancy
  Li  Li1       1.0  0.42000  0.40600  0.11800  1.0000
  Li  Li2       1.0  0.43900  0.81500  0.36700  1.0000
  Li  Li3       1.0  0.56100  0.18500  0.63300  1.0000
  Li  Li4       1.0  0.58000  0.59400  0.88200  1.0000
  O   O1        1.0  0.61400  0.64600  0.25100  1.0000
  O   O2        1.0  0.27800  0.56100  0.28200  1.0000
  O   O3        1.0  0.37800  0.13200  0.29700  1.0000
  O   O4        1.0  0.09120  0.20500  0.36500  1.0000
  O   O5        1.0  0.90900  0.79500  0.63500  1.0000
  O   O6        1.0  0.62200  0.86800  0.70300  1.0000
  O   O7        1.0  0.72200  0.43900  0.71800  1.0000
  O   O8        1.0  0.38600  0.35400  0.74900  1.0000
  Rb  Rb1       1.0  0.97900  0.72500  0.18700  1.0000
  Rb  Rb2       1.0  0.73500  0.15300  0.20700  1.0000
  Rb  Rb3       1.0  0.26500  0.84700  0.79300  1.0000
  Rb  Rb4       1.0  0.02110  0.27500  0.81300  1.0000
  Si  Si1       1.0  0.27600  0.31200  0.42600  1.0000
  Si  Si2       1.0  0.72400  0.68800  0.57400  1.0000
