data_image0
_chemical_formula_structural       Ba2Fe4Nd2O10
_chemical_formula_sum              "Ba2 Fe4 Nd2 O10"
_cell_length_a       7.99045
_cell_length_b       3.95701
_cell_length_c       7.63412
_cell_angle_alpha    90
_cell_angle_beta     90
_cell_angle_gamma    90

_space_group_name_H-M_alt    "P 1"
_space_group_IT_number       1

loop_
  _space_group_symop_operation_xyz
  'x, y, z'

loop_
  _atom_site_type_symbol
  _atom_site_label
  _atom_site_symmetry_multiplicity
  _atom_site_fract_x
  _atom_site_fract_y
  _atom_site_fract_z
  _atom_site_occupancy
  Ba  Ba1       1.0  0.00259  0.00000  0.00000  1.0000
  Ba  Ba2       1.0  0.50300  0.00000  0.00042  1.0000
  Fe  Fe1       1.0  0.25200  0.50000  0.25500  1.0000
  Fe  Fe2       1.0  0.75700  0.50000  0.26800  1.0000
  Fe  Fe3       1.0  0.25700  0.50000  0.73200  1.0000
  Fe  Fe4       1.0  0.75200  0.50000  0.74500  1.0000
  Nd  Nd1       1.0  0.50700  0.00000  0.49500  1.0000
  Nd  Nd2       1.0  0.00692  0.00000  0.50500  1.0000
  O   O1        1.0  0.24700  0.50000  0.00730  1.0000
  O   O2        1.0  0.49700  0.50000  0.29700  1.0000
  O   O3        1.0  0.25200  0.00000  0.30500  1.0000
  O   O4        1.0  0.75600  0.00000  0.30600  1.0000
  O   O5        1.0  0.00813  0.50000  0.31200  1.0000
  O   O6        1.0  0.50800  0.50000  0.68800  1.0000
  O   O7        1.0  0.25600  0.00000  0.69400  1.0000
  O   O8        1.0  0.75200  0.00000  0.69500  1.0000
  O   O9        1.0  0.99700  0.50000  0.70300  1.0000
  O   O10       1.0  0.74700  0.50000  0.99300  1.0000
