data_image0
_chemical_formula_structural       S10Sn4Tl4
_chemical_formula_sum              "S10 Sn4 Tl4"
_cell_length_a       6.90498
_cell_length_b       6.90498
_cell_length_c       11.6127
_cell_angle_alpha    104.974
_cell_angle_beta     75.0264
_cell_angle_gamma    110.271

_space_group_name_H-M_alt    "P 1"
_space_group_IT_number       1

loop_
  _space_group_symop_operation_xyz
  'x, y, z'

loop_
  _atom_site_type_symbol
  _atom_site_label
  _atom_site_symmetry_multiplicity
  _atom_site_fract_x
  _atom_site_fract_y
  _atom_site_fract_z
  _atom_site_occupancy
  S   S1        1.0  0.25100  0.64400  0.03850  1.0000
  S   S2        1.0  0.12500  0.15000  0.11600  1.0000
  S   S3        1.0  0.68100  0.68100  0.25000  1.0000
  S   S4        1.0  0.15000  0.12500  0.38400  1.0000
  S   S5        1.0  0.64400  0.25100  0.46100  1.0000
  S   S6        1.0  0.35600  0.74900  0.53900  1.0000
  S   S7        1.0  0.85000  0.87500  0.61600  1.0000
  S   S8        1.0  0.31900  0.31900  0.75000  1.0000
  S   S9        1.0  0.87500  0.85000  0.88400  1.0000
  S   S10       1.0  0.74900  0.35600  0.96100  1.0000
  Sn  Sn1       1.0  0.93900  0.75100  0.05830  1.0000
  Sn  Sn2       1.0  0.75100  0.93900  0.44200  1.0000
  Sn  Sn3       1.0  0.24900  0.06080  0.55800  1.0000
  Sn  Sn4       1.0  0.06080  0.24900  0.94200  1.0000
  Tl  Tl1       1.0  0.54400  0.10500  0.18300  1.0000
  Tl  Tl2       1.0  0.10500  0.54400  0.31700  1.0000
  Tl  Tl3       1.0  0.89500  0.45600  0.68300  1.0000
  Tl  Tl4       1.0  0.45600  0.89500  0.81700  1.0000
