data_image0
_chemical_formula_structural       Cs4Mn6S8
_chemical_formula_sum              "Cs4 Mn6 S8"
_cell_length_a       6.04375
_cell_length_b       9.61286
_cell_length_c       9.61286
_cell_angle_alpha    94.1265
_cell_angle_beta     108.322
_cell_angle_gamma    108.322

_space_group_name_H-M_alt    "P 1"
_space_group_IT_number       1

loop_
  _space_group_symop_operation_xyz
  'x, y, z'

loop_
  _atom_site_type_symbol
  _atom_site_label
  _atom_site_symmetry_multiplicity
  _atom_site_fract_x
  _atom_site_fract_y
  _atom_site_fract_z
  _atom_site_occupancy
  Cs  Cs1       1.0  0.88600  0.12000  0.12000  1.0000
  Cs  Cs2       1.0  0.64600  0.38000  0.38000  1.0000
  Cs  Cs3       1.0  0.35400  0.62000  0.62000  1.0000
  Cs  Cs4       1.0  0.11400  0.88000  0.88000  1.0000
  Mn  Mn1       1.0  0.77400  0.52400  0.02370  1.0000
  Mn  Mn2       1.0  0.50000  0.75000  0.25000  1.0000
  Mn  Mn3       1.0  0.22600  0.97600  0.47600  1.0000
  Mn  Mn4       1.0  0.77400  0.02370  0.52400  1.0000
  Mn  Mn5       1.0  0.50000  0.25000  0.75000  1.0000
  Mn  Mn6       1.0  0.22600  0.47600  0.97600  1.0000
  S   S1        1.0  0.58400  0.71100  0.02050  1.0000
  S   S2        1.0  0.14700  0.52100  0.21100  1.0000
  S   S3        1.0  0.41600  0.97900  0.28900  1.0000
  S   S4        1.0  0.85300  0.78900  0.47900  1.0000
  S   S5        1.0  0.14700  0.21100  0.52100  1.0000
  S   S6        1.0  0.58400  0.02050  0.71100  1.0000
  S   S7        1.0  0.85300  0.47900  0.78900  1.0000
  S   S8        1.0  0.41600  0.28900  0.97900  1.0000
