data_image0
_chemical_formula_structural       Ba8O2Rb2Sb6
_chemical_formula_sum              "Ba8 O2 Rb2 Sb6"
_cell_length_a       9.02483
_cell_length_b       9.02483
_cell_length_c       10.509
_cell_angle_alpha    115.429
_cell_angle_beta     115.429
_cell_angle_gamma    90

_space_group_name_H-M_alt    "P 1"
_space_group_IT_number       1

loop_
  _space_group_symop_operation_xyz
  'x, y, z'

loop_
  _atom_site_type_symbol
  _atom_site_label
  _atom_site_symmetry_multiplicity
  _atom_site_fract_x
  _atom_site_fract_y
  _atom_site_fract_z
  _atom_site_occupancy
  Ba  Ba1       1.0  0.49700  0.31100  0.30900  1.0000
  Ba  Ba2       1.0  0.99700  0.49700  0.30900  1.0000
  Ba  Ba3       1.0  0.31100  0.81100  0.30900  1.0000
  Ba  Ba4       1.0  0.81100  0.99700  0.30900  1.0000
  Ba  Ba5       1.0  0.18900  0.00291  0.69100  1.0000
  Ba  Ba6       1.0  0.68900  0.18900  0.69100  1.0000
  Ba  Ba7       1.0  0.00291  0.50300  0.69100  1.0000
  Ba  Ba8       1.0  0.50300  0.68900  0.69100  1.0000
  O   O1        1.0  0.75000  0.25000  0.50000  1.0000
  O   O2        1.0  0.25000  0.75000  0.50000  1.0000
  Rb  Rb1       1.0  0.00000  0.00000  0.00000  1.0000
  Rb  Rb2       1.0  0.50000  0.50000  0.00000  1.0000
  Sb  Sb1       1.0  0.61400  0.11400  0.00000  1.0000
  Sb  Sb2       1.0  0.11400  0.38600  0.00000  1.0000
  Sb  Sb3       1.0  0.88600  0.61400  0.00000  1.0000
  Sb  Sb4       1.0  0.38600  0.88600  0.00000  1.0000
  Sb  Sb5       1.0  0.25000  0.25000  0.50000  1.0000
  Sb  Sb6       1.0  0.75000  0.75000  0.50000  1.0000
