data_image0
_chemical_formula_structural       Al14Th4
_chemical_formula_sum              "Al14 Th4"
_cell_length_a       11.4758
_cell_length_b       5.87166
_cell_length_c       5.55272
_cell_angle_alpha    90
_cell_angle_beta     90
_cell_angle_gamma    90

_space_group_name_H-M_alt    "P 1"
_space_group_IT_number       1

loop_
  _space_group_symop_operation_xyz
  'x, y, z'

loop_
  _atom_site_type_symbol
  _atom_site_label
  _atom_site_symmetry_multiplicity
  _atom_site_fract_x
  _atom_site_fract_y
  _atom_site_fract_z
  _atom_site_occupancy
  Al  Al1       1.0  0.40900  0.14800  0.23800  1.0000
  Al  Al2       1.0  0.90900  0.35200  0.23800  1.0000
  Al  Al3       1.0  0.09130  0.64800  0.23800  1.0000
  Al  Al4       1.0  0.59100  0.85200  0.23800  1.0000
  Al  Al5       1.0  0.00000  0.00000  0.50000  1.0000
  Al  Al6       1.0  0.74800  0.09670  0.50000  1.0000
  Al  Al7       1.0  0.24800  0.40300  0.50000  1.0000
  Al  Al8       1.0  0.50000  0.50000  0.50000  1.0000
  Al  Al9       1.0  0.75200  0.59700  0.50000  1.0000
  Al  Al10      1.0  0.25200  0.90300  0.50000  1.0000
  Al  Al11      1.0  0.40900  0.14800  0.76200  1.0000
  Al  Al12      1.0  0.90900  0.35200  0.76200  1.0000
  Al  Al13      1.0  0.09130  0.64800  0.76200  1.0000
  Al  Al14      1.0  0.59100  0.85200  0.76200  1.0000
  Th  Th1       1.0  0.14700  0.14400  0.00000  1.0000
  Th  Th2       1.0  0.64700  0.35600  0.00000  1.0000
  Th  Th3       1.0  0.35300  0.64400  0.00000  1.0000
  Th  Th4       1.0  0.85300  0.85600  0.00000  1.0000
