data_image0
_chemical_formula_structural       Au2Cl14Te2
_chemical_formula_sum              "Au2 Cl14 Te2"
_cell_length_a       7.625
_cell_length_b       7.7931
_cell_length_c       9.07915
_cell_angle_alpha    78.2829
_cell_angle_beta     88.08
_cell_angle_gamma    89.4268

_space_group_name_H-M_alt    "P 1"
_space_group_IT_number       1

loop_
  _space_group_symop_operation_xyz
  'x, y, z'

loop_
  _atom_site_type_symbol
  _atom_site_label
  _atom_site_symmetry_multiplicity
  _atom_site_fract_x
  _atom_site_fract_y
  _atom_site_fract_z
  _atom_site_occupancy
  Au  Au1       1.0  0.07490  0.78900  0.43900  1.0000
  Au  Au2       1.0  0.92500  0.21100  0.56100  1.0000
  Cl  Cl1       1.0  0.80100  0.66800  0.00879  1.0000
  Cl  Cl2       1.0  0.57800  0.13600  0.12900  1.0000
  Cl  Cl3       1.0  0.10900  0.92000  0.18700  1.0000
  Cl  Cl4       1.0  0.42200  0.50600  0.24400  1.0000
  Cl  Cl5       1.0  0.95800  0.33600  0.30700  1.0000
  Cl  Cl6       1.0  0.77900  0.74700  0.41300  1.0000
  Cl  Cl7       1.0  0.37000  0.84300  0.46200  1.0000
  Cl  Cl8       1.0  0.63000  0.15700  0.53800  1.0000
  Cl  Cl9       1.0  0.22100  0.25300  0.58700  1.0000
  Cl  Cl10      1.0  0.04200  0.66400  0.69300  1.0000
  Cl  Cl11      1.0  0.57800  0.49400  0.75600  1.0000
  Cl  Cl12      1.0  0.89100  0.07980  0.81300  1.0000
  Cl  Cl13      1.0  0.42200  0.86400  0.87100  1.0000
  Cl  Cl14      1.0  0.19900  0.33200  0.99100  1.0000
  Te  Te1       1.0  0.31500  0.23000  0.22900  1.0000
  Te  Te2       1.0  0.68500  0.77000  0.77100  1.0000
