data_image0
_chemical_formula_structural       Ge4Li14
_chemical_formula_sum              "Ge4 Li14"
_cell_length_a       4.44019
_cell_length_b       7.95973
_cell_length_c       7.95973
_cell_angle_alpha    110.259
_cell_angle_beta     90
_cell_angle_gamma    90

_space_group_name_H-M_alt    "P 1"
_space_group_IT_number       1

loop_
  _space_group_symop_operation_xyz
  'x, y, z'

loop_
  _atom_site_type_symbol
  _atom_site_label
  _atom_site_symmetry_multiplicity
  _atom_site_fract_x
  _atom_site_fract_y
  _atom_site_fract_z
  _atom_site_occupancy
  Ge  Ge1       1.0  0.50000  0.15500  0.15500  1.0000
  Ge  Ge2       1.0  0.00000  0.67800  0.32200  1.0000
  Ge  Ge3       1.0  0.00000  0.32200  0.67800  1.0000
  Ge  Ge4       1.0  0.50000  0.84500  0.84500  1.0000
  Li  Li1       1.0  0.00000  0.00000  0.00000  1.0000
  Li  Li2       1.0  0.00000  0.34300  0.02030  1.0000
  Li  Li3       1.0  0.50000  0.82600  0.17400  1.0000
  Li  Li4       1.0  0.50000  0.49800  0.18200  1.0000
  Li  Li5       1.0  0.00000  0.34000  0.34000  1.0000
  Li  Li6       1.0  0.00000  0.02030  0.34300  1.0000
  Li  Li7       1.0  0.50000  0.18200  0.49800  1.0000
  Li  Li8       1.0  0.50000  0.50000  0.50000  1.0000
  Li  Li9       1.0  0.50000  0.81800  0.50200  1.0000
  Li  Li10      1.0  0.00000  0.98000  0.65700  1.0000
  Li  Li11      1.0  0.00000  0.66000  0.66000  1.0000
  Li  Li12      1.0  0.50000  0.50200  0.81800  1.0000
  Li  Li13      1.0  0.50000  0.17400  0.82600  1.0000
  Li  Li14      1.0  0.00000  0.65700  0.98000  1.0000
