data_image0
_chemical_formula_structural       Nb10O2Pt6
_chemical_formula_sum              "Nb10 O2 Pt6"
_cell_length_a       8.04502
_cell_length_b       8.04502
_cell_length_c       5.07989
_cell_angle_alpha    90
_cell_angle_beta     90
_cell_angle_gamma    120

_space_group_name_H-M_alt    "P 1"
_space_group_IT_number       1

loop_
  _space_group_symop_operation_xyz
  'x, y, z'

loop_
  _atom_site_type_symbol
  _atom_site_label
  _atom_site_symmetry_multiplicity
  _atom_site_fract_x
  _atom_site_fract_y
  _atom_site_fract_z
  _atom_site_occupancy
  Nb  Nb1       1.0  0.66700  0.33300  0.00000  1.0000
  Nb  Nb2       1.0  0.33300  0.66700  0.00000  1.0000
  Nb  Nb3       1.0  0.76200  0.76200  0.25000  1.0000
  Nb  Nb4       1.0  0.23800  0.00000  0.25000  1.0000
  Nb  Nb5       1.0  0.00000  0.23800  0.25000  1.0000
  Nb  Nb6       1.0  0.66700  0.33300  0.50000  1.0000
  Nb  Nb7       1.0  0.33300  0.66700  0.50000  1.0000
  Nb  Nb8       1.0  0.23800  0.23800  0.75000  1.0000
  Nb  Nb9       1.0  0.76200  1.00000  0.75000  1.0000
  Nb  Nb10      1.0  0.00000  0.76200  0.75000  1.0000
  O   O1        1.0  0.00000  0.00000  0.00000  1.0000
  O   O2        1.0  0.00000  0.00000  0.50000  1.0000
  Pt  Pt1       1.0  0.59600  0.00000  0.25000  1.0000
  Pt  Pt2       1.0  0.00000  0.59600  0.25000  1.0000
  Pt  Pt3       1.0  0.40400  0.40400  0.25000  1.0000
  Pt  Pt4       1.0  0.40400  0.00000  0.75000  1.0000
  Pt  Pt5       1.0  0.00000  0.40400  0.75000  1.0000
  Pt  Pt6       1.0  0.59600  0.59600  0.75000  1.0000
