data_image0
_chemical_formula_structural       K2Li6O8Pb2
_chemical_formula_sum              "K2 Li6 O8 Pb2"
_cell_length_a       6.94079
_cell_length_b       5.9407
_cell_length_c       5.91199
_cell_angle_alpha    88.3482
_cell_angle_beta     108.055
_cell_angle_gamma    106.9

_space_group_name_H-M_alt    "P 1"
_space_group_IT_number       1

loop_
  _space_group_symop_operation_xyz
  'x, y, z'

loop_
  _atom_site_type_symbol
  _atom_site_label
  _atom_site_symmetry_multiplicity
  _atom_site_fract_x
  _atom_site_fract_y
  _atom_site_fract_z
  _atom_site_occupancy
  K   K1        1.0  0.75000  0.00930  0.48800  1.0000
  K   K2        1.0  0.25000  0.99100  0.51200  1.0000
  Li  Li1       1.0  0.90700  0.12600  0.05030  1.0000
  Li  Li2       1.0  0.44600  0.16400  0.06510  1.0000
  Li  Li3       1.0  0.84500  0.53800  0.31500  1.0000
  Li  Li4       1.0  0.15500  0.46200  0.68500  1.0000
  Li  Li5       1.0  0.55400  0.83600  0.93500  1.0000
  Li  Li6       1.0  0.09310  0.87400  0.95000  1.0000
  O   O1        1.0  0.83500  0.76900  0.06390  1.0000
  O   O2        1.0  0.36700  0.83000  0.12000  1.0000
  O   O3        1.0  0.02800  0.32600  0.34600  1.0000
  O   O4        1.0  0.56600  0.36000  0.36100  1.0000
  O   O5        1.0  0.43400  0.64000  0.63900  1.0000
  O   O6        1.0  0.97200  0.67400  0.65400  1.0000
  O   O7        1.0  0.63300  0.17000  0.88000  1.0000
  O   O8        1.0  0.16500  0.23100  0.93600  1.0000
  Pb  Pb1       1.0  0.29600  0.49400  0.24300  1.0000
  Pb  Pb2       1.0  0.70400  0.50600  0.75700  1.0000
