data_image0
_chemical_formula_structural       B2Ba2Cu2La2O10
_chemical_formula_sum              "B2 Ba2 Cu2 La2 O10"
_cell_length_a       5.55215
_cell_length_b       5.55215
_cell_length_c       7.50305
_cell_angle_alpha    90
_cell_angle_beta     90
_cell_angle_gamma    90

_space_group_name_H-M_alt    "P 1"
_space_group_IT_number       1

loop_
  _space_group_symop_operation_xyz
  'x, y, z'

loop_
  _atom_site_type_symbol
  _atom_site_label
  _atom_site_symmetry_multiplicity
  _atom_site_fract_x
  _atom_site_fract_y
  _atom_site_fract_z
  _atom_site_occupancy
  B   B1        1.0  0.50000  0.00000  0.25900  1.0000
  B   B2        1.0  0.00000  0.50000  0.25900  1.0000
  Ba  Ba1       1.0  0.00000  0.00000  0.49100  1.0000
  Ba  Ba2       1.0  0.50000  0.50000  0.49100  1.0000
  Cu  Cu1       1.0  0.50000  0.00000  0.75700  1.0000
  Cu  Cu2       1.0  0.00000  0.50000  0.75700  1.0000
  La  La1       1.0  0.00000  0.00000  0.98700  1.0000
  La  La2       1.0  0.50000  0.50000  0.98700  1.0000
  O   O1        1.0  0.34400  0.15600  0.17100  1.0000
  O   O2        1.0  0.84400  0.34400  0.17100  1.0000
  O   O3        1.0  0.15600  0.65600  0.17100  1.0000
  O   O4        1.0  0.65600  0.84400  0.17100  1.0000
  O   O5        1.0  0.50000  0.00000  0.44400  1.0000
  O   O6        1.0  0.00000  0.50000  0.44400  1.0000
  O   O7        1.0  0.74800  0.24800  0.77800  1.0000
  O   O8        1.0  0.24800  0.25200  0.77800  1.0000
  O   O9        1.0  0.75200  0.74800  0.77800  1.0000
  O   O10       1.0  0.25200  0.75200  0.77800  1.0000
