data_image0
_chemical_formula_structural       B3Ca5FO9
_chemical_formula_sum              "B3 Ca5 F1 O9"
_cell_length_a       3.50979
_cell_length_b       8.09062
_cell_length_c       8.95279
_cell_angle_alpha    63.1376
_cell_angle_beta     94.7912
_cell_angle_gamma    100.653

_space_group_name_H-M_alt    "P 1"
_space_group_IT_number       1

loop_
  _space_group_symop_operation_xyz
  'x, y, z'

loop_
  _atom_site_type_symbol
  _atom_site_label
  _atom_site_symmetry_multiplicity
  _atom_site_fract_x
  _atom_site_fract_y
  _atom_site_fract_z
  _atom_site_occupancy
  B   B1        1.0  0.35700  0.92700  0.00000  1.0000
  B   B2        1.0  0.98400  0.16500  0.39100  1.0000
  B   B3        1.0  0.98400  0.55700  0.60900  1.0000
  Ca  Ca1       1.0  0.03610  0.28200  0.00000  1.0000
  Ca  Ca2       1.0  0.74000  0.55200  0.23400  1.0000
  Ca  Ca3       1.0  0.39900  0.86700  0.35700  1.0000
  Ca  Ca4       1.0  0.39900  0.22400  0.64300  1.0000
  Ca  Ca5       1.0  0.74000  0.78600  0.76600  1.0000
  F   F1        1.0  0.64000  0.48700  0.00000  1.0000
  O   O1        1.0  0.44800  0.10000  0.00000  1.0000
  O   O2        1.0  0.31000  0.76400  0.15000  1.0000
  O   O3        1.0  0.97500  0.07890  0.28900  1.0000
  O   O4        1.0  0.18600  0.34500  0.34600  1.0000
  O   O5        1.0  0.79200  0.61900  0.45700  1.0000
  O   O6        1.0  0.79200  0.07590  0.54300  1.0000
  O   O7        1.0  0.18600  0.69100  0.65400  1.0000
  O   O8        1.0  0.97500  0.36700  0.71100  1.0000
  O   O9        1.0  0.31000  0.91400  0.85000  1.0000
