data_image0
_chemical_formula_structural       Al6Ge8Sm4
_chemical_formula_sum              "Al6 Ge8 Sm4"
_cell_length_a       6.01053
_cell_length_b       8.01214
_cell_length_c       8.057
_cell_angle_alpha    90
_cell_angle_beta     68.0992
_cell_angle_gamma    90

_space_group_name_H-M_alt    "P 1"
_space_group_IT_number       1

loop_
  _space_group_symop_operation_xyz
  'x, y, z'

loop_
  _atom_site_type_symbol
  _atom_site_label
  _atom_site_symmetry_multiplicity
  _atom_site_fract_x
  _atom_site_fract_y
  _atom_site_fract_z
  _atom_site_occupancy
  Al  Al1       1.0  0.00000  0.00000  0.00000  1.0000
  Al  Al2       1.0  0.50000  0.50000  0.00000  1.0000
  Al  Al3       1.0  0.03390  0.75000  0.43200  1.0000
  Al  Al4       1.0  0.53400  0.75000  0.43200  1.0000
  Al  Al5       1.0  0.46600  0.25000  0.56800  1.0000
  Al  Al6       1.0  0.96600  0.25000  0.56800  1.0000
  Ge  Ge1       1.0  0.20400  0.75000  0.09230  1.0000
  Ge  Ge2       1.0  0.70400  0.75000  0.09230  1.0000
  Ge  Ge3       1.0  0.81500  0.05210  0.37000  1.0000
  Ge  Ge4       1.0  0.31500  0.44800  0.37000  1.0000
  Ge  Ge5       1.0  0.68500  0.55200  0.63000  1.0000
  Ge  Ge6       1.0  0.18500  0.94800  0.63000  1.0000
  Ge  Ge7       1.0  0.29600  0.25000  0.90800  1.0000
  Ge  Ge8       1.0  0.79600  0.25000  0.90800  1.0000
  Sm  Sm1       1.0  0.38500  0.08090  0.23000  1.0000
  Sm  Sm2       1.0  0.88500  0.41900  0.23000  1.0000
  Sm  Sm3       1.0  0.11500  0.58100  0.77000  1.0000
  Sm  Sm4       1.0  0.61500  0.91900  0.77000  1.0000
