data_image0
_chemical_formula_structural       N2P6V10
_chemical_formula_sum              "N2 P6 V10"
_cell_length_a       6.85495
_cell_length_b       6.85496
_cell_length_c       5.07991
_cell_angle_alpha    90
_cell_angle_beta     90
_cell_angle_gamma    120.001

_space_group_name_H-M_alt    "P 1"
_space_group_IT_number       1

loop_
  _space_group_symop_operation_xyz
  'x, y, z'

loop_
  _atom_site_type_symbol
  _atom_site_label
  _atom_site_symmetry_multiplicity
  _atom_site_fract_x
  _atom_site_fract_y
  _atom_site_fract_z
  _atom_site_occupancy
  N   N1        1.0  0.00000  0.00000  0.00000  1.0000
  N   N2        1.0  0.00000  0.00000  0.50000  1.0000
  P   P1        1.0  0.00000  0.59600  0.25000  1.0000
  P   P2        1.0  0.59600  0.00000  0.25000  1.0000
  P   P3        1.0  0.40400  0.40400  0.25000  1.0000
  P   P4        1.0  0.40400  0.00000  0.75000  1.0000
  P   P5        1.0  0.00000  0.40400  0.75000  1.0000
  P   P6        1.0  0.59600  0.59600  0.75000  1.0000
  V   V1        1.0  0.66700  0.33300  0.00000  1.0000
  V   V2        1.0  0.33300  0.66700  0.00000  1.0000
  V   V3        1.0  0.76900  0.76900  0.25000  1.0000
  V   V4        1.0  0.23100  0.00001  0.25000  1.0000
  V   V5        1.0  0.00001  0.23100  0.25000  1.0000
  V   V6        1.0  0.66700  0.33300  0.50000  1.0000
  V   V7        1.0  0.33300  0.66700  0.50000  1.0000
  V   V8        1.0  0.23100  0.23100  0.75000  1.0000
  V   V9        1.0  0.00000  0.76900  0.75000  1.0000
  V   V10       1.0  0.76900  0.00000  0.75000  1.0000
