data_image0
_chemical_formula_structural       P4S12Zr2
_chemical_formula_sum              "P4 S12 Zr2"
_cell_length_a       6.78733
_cell_length_b       6.78733
_cell_length_c       9.50551
_cell_angle_alpha    90
_cell_angle_beta     90
_cell_angle_gamma    90

_space_group_name_H-M_alt    "P 1"
_space_group_IT_number       1

loop_
  _space_group_symop_operation_xyz
  'x, y, z'

loop_
  _atom_site_type_symbol
  _atom_site_label
  _atom_site_symmetry_multiplicity
  _atom_site_fract_x
  _atom_site_fract_y
  _atom_site_fract_z
  _atom_site_occupancy
  P   P1        1.0  0.65700  0.05780  0.00000  1.0000
  P   P2        1.0  0.34300  0.94200  0.00000  1.0000
  P   P3        1.0  0.05780  0.34300  0.50000  1.0000
  P   P4        1.0  0.94200  0.65700  0.50000  1.0000
  S   S1        1.0  0.15900  0.18000  0.00000  1.0000
  S   S2        1.0  0.84100  0.82000  0.00000  1.0000
  S   S3        1.0  0.69300  0.21100  0.18000  1.0000
  S   S4        1.0  0.30700  0.78900  0.18000  1.0000
  S   S5        1.0  0.21100  0.30700  0.32000  1.0000
  S   S6        1.0  0.78900  0.69300  0.32000  1.0000
  S   S7        1.0  0.82000  0.15900  0.50000  1.0000
  S   S8        1.0  0.18000  0.84100  0.50000  1.0000
  S   S9        1.0  0.21100  0.30700  0.68000  1.0000
  S   S10       1.0  0.78900  0.69300  0.68000  1.0000
  S   S11       1.0  0.69300  0.21100  0.82000  1.0000
  S   S12       1.0  0.30700  0.78900  0.82000  1.0000
  Zr  Zr1       1.0  0.00000  0.00000  0.25000  1.0000
  Zr  Zr2       1.0  0.00000  0.00000  0.75000  1.0000
