data_image0
_chemical_formula_structural       Ag14Ca4
_chemical_formula_sum              "Ag14 Ca4"
_cell_length_a       5.48572
_cell_length_b       5.48572
_cell_length_c       14.126
_cell_angle_alpha    90
_cell_angle_beta     90
_cell_angle_gamma    60.5196

_space_group_name_H-M_alt    "P 1"
_space_group_IT_number       1

loop_
  _space_group_symop_operation_xyz
  'x, y, z'

loop_
  _atom_site_type_symbol
  _atom_site_label
  _atom_site_symmetry_multiplicity
  _atom_site_fract_x
  _atom_site_fract_y
  _atom_site_fract_z
  _atom_site_occupancy
  Ag  Ag1       1.0  0.66400  0.00730  0.07590  1.0000
  Ag  Ag2       1.0  0.99300  0.33600  0.07590  1.0000
  Ag  Ag3       1.0  0.82700  0.17300  0.25000  1.0000
  Ag  Ag4       1.0  0.32800  0.17300  0.25000  1.0000
  Ag  Ag5       1.0  0.82700  0.67200  0.25000  1.0000
  Ag  Ag6       1.0  0.66400  0.00730  0.42400  1.0000
  Ag  Ag7       1.0  0.99300  0.33600  0.42400  1.0000
  Ag  Ag8       1.0  0.00730  0.66400  0.57600  1.0000
  Ag  Ag9       1.0  0.33600  0.99300  0.57600  1.0000
  Ag  Ag10      1.0  0.17300  0.32800  0.75000  1.0000
  Ag  Ag11      1.0  0.67200  0.82700  0.75000  1.0000
  Ag  Ag12      1.0  0.17300  0.82700  0.75000  1.0000
  Ag  Ag13      1.0  0.00730  0.66400  0.92400  1.0000
  Ag  Ag14      1.0  0.33600  0.99300  0.92400  1.0000
  Ca  Ca1       1.0  0.32200  0.67800  0.11500  1.0000
  Ca  Ca2       1.0  0.32200  0.67800  0.38500  1.0000
  Ca  Ca3       1.0  0.67800  0.32200  0.61500  1.0000
  Ca  Ca4       1.0  0.67800  0.32200  0.88500  1.0000
