data_image0
_chemical_formula_structural       Ge2Na8O8
_chemical_formula_sum              "Ge2 Na8 O8"
_cell_length_a       5.65942
_cell_length_b       5.67407
_cell_length_c       8.5419
_cell_angle_alpha    81.0965
_cell_angle_beta     71.3402
_cell_angle_gamma    68.0107

_space_group_name_H-M_alt    "P 1"
_space_group_IT_number       1

loop_
  _space_group_symop_operation_xyz
  'x, y, z'

loop_
  _atom_site_type_symbol
  _atom_site_label
  _atom_site_symmetry_multiplicity
  _atom_site_fract_x
  _atom_site_fract_y
  _atom_site_fract_z
  _atom_site_occupancy
  Ge  Ge1       1.0  0.34400  0.22200  0.25500  1.0000
  Ge  Ge2       1.0  0.65600  0.77800  0.74500  1.0000
  Na  Na1       1.0  0.98000  0.23400  0.06500  1.0000
  Na  Na2       1.0  0.44900  0.73800  0.10600  1.0000
  Na  Na3       1.0  0.89400  0.76900  0.32200  1.0000
  Na  Na4       1.0  0.74100  0.25700  0.48500  1.0000
  Na  Na5       1.0  0.25900  0.74300  0.51500  1.0000
  Na  Na6       1.0  0.10600  0.23100  0.67800  1.0000
  Na  Na7       1.0  0.55100  0.26200  0.89400  1.0000
  Na  Na8       1.0  0.01980  0.76600  0.93500  1.0000
  O   O1        1.0  0.20200  0.47700  0.12200  1.0000
  O   O2        1.0  0.66700  0.02790  0.13900  1.0000
  O   O3        1.0  0.13900  0.02970  0.30700  1.0000
  O   O4        1.0  0.35100  0.35100  0.42800  1.0000
  O   O5        1.0  0.64900  0.64900  0.57200  1.0000
  O   O6        1.0  0.86100  0.97000  0.69300  1.0000
  O   O7        1.0  0.33300  0.97200  0.86100  1.0000
  O   O8        1.0  0.79800  0.52300  0.87800  1.0000
