data_image0
_chemical_formula_structural       Ge2K8O8
_chemical_formula_sum              "Ge2 K8 O8"
_cell_length_a       9.29618
_cell_length_b       6.96066
_cell_length_c       6.32808
_cell_angle_alpha    122.711
_cell_angle_beta     99.8838
_cell_angle_gamma    97.086

_space_group_name_H-M_alt    "P 1"
_space_group_IT_number       1

loop_
  _space_group_symop_operation_xyz
  'x, y, z'

loop_
  _atom_site_type_symbol
  _atom_site_label
  _atom_site_symmetry_multiplicity
  _atom_site_fract_x
  _atom_site_fract_y
  _atom_site_fract_z
  _atom_site_occupancy
  Ge  Ge1       1.0  0.25100  0.65500  0.41800  1.0000
  Ge  Ge2       1.0  0.74900  0.34500  0.58200  1.0000
  K   K1        1.0  0.46400  0.26900  0.01530  1.0000
  K   K2        1.0  0.87400  0.46300  0.18200  1.0000
  K   K3        1.0  0.94100  0.99400  0.21600  1.0000
  K   K4        1.0  0.34800  0.08710  0.33800  1.0000
  K   K5        1.0  0.65200  0.91300  0.66200  1.0000
  K   K6        1.0  0.05890  0.00554  0.78400  1.0000
  K   K7        1.0  0.12600  0.53700  0.81800  1.0000
  K   K8        1.0  0.53600  0.73100  0.98500  1.0000
  O   O1        1.0  0.68300  0.17300  0.23100  1.0000
  O   O2        1.0  0.39800  0.66600  0.27300  1.0000
  O   O3        1.0  0.15900  0.35700  0.29600  1.0000
  O   O4        1.0  0.12200  0.79300  0.33500  1.0000
  O   O5        1.0  0.87800  0.20700  0.66500  1.0000
  O   O6        1.0  0.84100  0.64300  0.70400  1.0000
  O   O7        1.0  0.60200  0.33400  0.72700  1.0000
  O   O8        1.0  0.31700  0.82700  0.76900  1.0000
