data_image0
_chemical_formula_structural       Au8Ca10
_chemical_formula_sum              "Au8 Ca10"
_cell_length_a       8.03544
_cell_length_b       8.04062
_cell_length_c       7.74979
_cell_angle_alpha    90
_cell_angle_beta     109.326
_cell_angle_gamma    90

_space_group_name_H-M_alt    "P 1"
_space_group_IT_number       1

loop_
  _space_group_symop_operation_xyz
  'x, y, z'

loop_
  _atom_site_type_symbol
  _atom_site_label
  _atom_site_symmetry_multiplicity
  _atom_site_fract_x
  _atom_site_fract_y
  _atom_site_fract_z
  _atom_site_occupancy
  Au  Au1       1.0  0.01210  0.63200  0.13100  1.0000
  Au  Au2       1.0  0.41800  0.03340  0.14500  1.0000
  Au  Au3       1.0  0.58200  0.53300  0.35500  1.0000
  Au  Au4       1.0  0.98800  0.13200  0.36900  1.0000
  Au  Au5       1.0  0.01210  0.86800  0.63100  1.0000
  Au  Au6       1.0  0.41800  0.46700  0.64500  1.0000
  Au  Au7       1.0  0.58200  0.96700  0.85500  1.0000
  Au  Au8       1.0  0.98800  0.36800  0.86900  1.0000
  Ca  Ca1       1.0  0.00000  0.00000  0.00000  1.0000
  Ca  Ca2       1.0  0.69200  0.32100  0.06870  1.0000
  Ca  Ca3       1.0  0.74400  0.83000  0.24800  1.0000
  Ca  Ca4       1.0  0.25600  0.33000  0.25200  1.0000
  Ca  Ca5       1.0  0.30800  0.82100  0.43100  1.0000
  Ca  Ca6       1.0  0.00000  0.50000  0.50000  1.0000
  Ca  Ca7       1.0  0.69200  0.17900  0.56900  1.0000
  Ca  Ca8       1.0  0.74400  0.67000  0.74800  1.0000
  Ca  Ca9       1.0  0.25600  0.17000  0.75200  1.0000
  Ca  Ca10      1.0  0.30800  0.67900  0.93100  1.0000
