data_image0
_chemical_formula_structural       In4P8Sr6
_chemical_formula_sum              "In4 P8 Sr6"
_cell_length_a       16.3781
_cell_length_b       6.90162
_cell_length_c       4.32747
_cell_angle_alpha    90
_cell_angle_beta     90
_cell_angle_gamma    90

_space_group_name_H-M_alt    "P 1"
_space_group_IT_number       1

loop_
  _space_group_symop_operation_xyz
  'x, y, z'

loop_
  _atom_site_type_symbol
  _atom_site_label
  _atom_site_symmetry_multiplicity
  _atom_site_fract_x
  _atom_site_fract_y
  _atom_site_fract_z
  _atom_site_occupancy
  In  In1       1.0  0.58500  0.13300  0.00000  1.0000
  In  In2       1.0  0.41500  0.86700  0.00000  1.0000
  In  In3       1.0  0.08540  0.36700  0.50000  1.0000
  In  In4       1.0  0.91500  0.63300  0.50000  1.0000
  P   P1        1.0  0.43200  0.24000  0.00000  1.0000
  P   P2        1.0  0.16600  0.24600  0.00000  1.0000
  P   P3        1.0  0.83400  0.75400  0.00000  1.0000
  P   P4        1.0  0.56800  0.76000  0.00000  1.0000
  P   P5        1.0  0.66600  0.25400  0.50000  1.0000
  P   P6        1.0  0.93200  0.26000  0.50000  1.0000
  P   P7        1.0  0.06810  0.74000  0.50000  1.0000
  P   P8        1.0  0.33400  0.74600  0.50000  1.0000
  Sr  Sr1       1.0  0.00000  0.00000  0.00000  1.0000
  Sr  Sr2       1.0  0.80200  0.28800  0.00000  1.0000
  Sr  Sr3       1.0  0.19800  0.71200  0.00000  1.0000
  Sr  Sr4       1.0  0.30200  0.21200  0.50000  1.0000
  Sr  Sr5       1.0  0.50000  0.50000  0.50000  1.0000
  Sr  Sr6       1.0  0.69800  0.78800  0.50000  1.0000
