data_image0
_chemical_formula_structural       Ag3I9Tl6
_chemical_formula_sum              "Ag3 I9 Tl6"
_cell_length_a       9.06098
_cell_length_b       9.06098
_cell_length_c       9.06099
_cell_angle_alpha    108.528
_cell_angle_beta     71.4723
_cell_angle_gamma    108.528

_space_group_name_H-M_alt    "P 1"
_space_group_IT_number       1

loop_
  _space_group_symop_operation_xyz
  'x, y, z'

loop_
  _atom_site_type_symbol
  _atom_site_label
  _atom_site_symmetry_multiplicity
  _atom_site_fract_x
  _atom_site_fract_y
  _atom_site_fract_z
  _atom_site_occupancy
  Ag  Ag1       1.0  0.00000  0.00000  0.00000  1.0000
  Ag  Ag2       1.0  0.15800  0.84200  0.15800  1.0000
  Ag  Ag3       1.0  0.84200  0.15800  0.84200  1.0000
  I   I1        1.0  0.33400  0.15300  0.08810  1.0000
  I   I2        1.0  0.91200  0.33400  0.15300  1.0000
  I   I3        1.0  0.29700  0.70300  0.29700  1.0000
  I   I4        1.0  0.84700  0.91200  0.33400  1.0000
  I   I5        1.0  0.50000  0.50000  0.50000  1.0000
  I   I6        1.0  0.15300  0.08810  0.66600  1.0000
  I   I7        1.0  0.70300  0.29700  0.70300  1.0000
  I   I8        1.0  0.08810  0.66600  0.84700  1.0000
  I   I9        1.0  0.66600  0.84700  0.91200  1.0000
  Tl  Tl1       1.0  0.67100  0.55300  0.11000  1.0000
  Tl  Tl2       1.0  0.55300  0.11000  0.32900  1.0000
  Tl  Tl3       1.0  0.11000  0.32900  0.44700  1.0000
  Tl  Tl4       1.0  0.89000  0.67100  0.55300  1.0000
  Tl  Tl5       1.0  0.44700  0.89000  0.67100  1.0000
  Tl  Tl6       1.0  0.32900  0.44700  0.89000  1.0000
