data_image0
_chemical_formula_structural       C8U2W8
_chemical_formula_sum              "C8 U2 W8"
_cell_length_a       8.39023
_cell_length_b       8.39023
_cell_length_c       3.13427
_cell_angle_alpha    90
_cell_angle_beta     90
_cell_angle_gamma    90

_space_group_name_H-M_alt    "P 1"
_space_group_IT_number       1

loop_
  _space_group_symop_operation_xyz
  'x, y, z'

loop_
  _atom_site_type_symbol
  _atom_site_label
  _atom_site_symmetry_multiplicity
  _atom_site_fract_x
  _atom_site_fract_y
  _atom_site_fract_z
  _atom_site_occupancy
  C   C1        1.0  0.39500  0.29500  0.00000  1.0000
  C   C2        1.0  0.70500  0.39500  0.00000  1.0000
  C   C3        1.0  0.29500  0.60500  0.00000  1.0000
  C   C4        1.0  0.60500  0.70500  0.00000  1.0000
  C   C5        1.0  0.77400  0.08440  0.50000  1.0000
  C   C6        1.0  0.08440  0.22600  0.50000  1.0000
  C   C7        1.0  0.91600  0.77400  0.50000  1.0000
  C   C8        1.0  0.22600  0.91600  0.50000  1.0000
  U   U1        1.0  0.00000  0.00000  0.00000  1.0000
  U   U2        1.0  0.50000  0.50000  0.50000  1.0000
  W   W1        1.0  0.61400  0.15200  0.00000  1.0000
  W   W2        1.0  0.15200  0.38600  0.00000  1.0000
  W   W3        1.0  0.84800  0.61400  0.00000  1.0000
  W   W4        1.0  0.38600  0.84800  0.00000  1.0000
  W   W5        1.0  0.31900  0.14600  0.50000  1.0000
  W   W6        1.0  0.85400  0.31900  0.50000  1.0000
  W   W7        1.0  0.14600  0.68100  0.50000  1.0000
  W   W8        1.0  0.68100  0.85400  0.50000  1.0000
