data_image0
_chemical_formula_structural       Cl10Cs6Ni2
_chemical_formula_sum              "Cl10 Cs6 Ni2"
_cell_length_a       9.22565
_cell_length_b       9.22565
_cell_length_c       9.83266
_cell_angle_alpha    117.978
_cell_angle_beta     117.978
_cell_angle_gamma    90

_space_group_name_H-M_alt    "P 1"
_space_group_IT_number       1

loop_
  _space_group_symop_operation_xyz
  'x, y, z'

loop_
  _atom_site_type_symbol
  _atom_site_label
  _atom_site_symmetry_multiplicity
  _atom_site_fract_x
  _atom_site_fract_y
  _atom_site_fract_z
  _atom_site_occupancy
  Cl  Cl1       1.0  0.00000  0.00000  0.00000  1.0000
  Cl  Cl2       1.0  0.50000  0.50000  0.00000  1.0000
  Cl  Cl3       1.0  0.52000  0.02030  0.31100  1.0000
  Cl  Cl4       1.0  0.79100  0.29100  0.31100  1.0000
  Cl  Cl5       1.0  0.29100  0.52000  0.31100  1.0000
  Cl  Cl6       1.0  0.02030  0.79100  0.31100  1.0000
  Cl  Cl7       1.0  0.98000  0.20900  0.68900  1.0000
  Cl  Cl8       1.0  0.70900  0.48000  0.68900  1.0000
  Cl  Cl9       1.0  0.20900  0.70900  0.68900  1.0000
  Cl  Cl10      1.0  0.48000  0.98000  0.68900  1.0000
  Cs  Cs1       1.0  0.33400  0.16600  0.00000  1.0000
  Cs  Cs2       1.0  0.83400  0.33400  0.00000  1.0000
  Cs  Cs3       1.0  0.16600  0.66600  0.00000  1.0000
  Cs  Cs4       1.0  0.66600  0.83400  0.00000  1.0000
  Cs  Cs5       1.0  0.25000  0.25000  0.50000  1.0000
  Cs  Cs6       1.0  0.75000  0.75000  0.50000  1.0000
  Ni  Ni1       1.0  0.75000  0.25000  0.50000  1.0000
  Ni  Ni2       1.0  0.25000  0.75000  0.50000  1.0000
