data_image0
_chemical_formula_structural       Cl4O12Sr2
_chemical_formula_sum              "Cl4 O12 Sr2"
_cell_length_a       6.79323
_cell_length_b       6.79323
_cell_length_c       7.24018
_cell_angle_alpha    106.147
_cell_angle_beta     106.147
_cell_angle_gamma    114.028

_space_group_name_H-M_alt    "P 1"
_space_group_IT_number       1

loop_
  _space_group_symop_operation_xyz
  'x, y, z'

loop_
  _atom_site_type_symbol
  _atom_site_label
  _atom_site_symmetry_multiplicity
  _atom_site_fract_x
  _atom_site_fract_y
  _atom_site_fract_z
  _atom_site_occupancy
  Cl  Cl1       1.0  0.26200  0.65300  0.04120  1.0000
  Cl  Cl2       1.0  0.97100  0.86200  0.45900  1.0000
  Cl  Cl3       1.0  0.40300  0.51200  0.54100  1.0000
  Cl  Cl4       1.0  0.61200  0.22100  0.95900  1.0000
  O   O1        1.0  0.19300  0.44100  0.08590  1.0000
  O   O2        1.0  0.72800  0.14600  0.11500  1.0000
  O   O3        1.0  0.33800  0.86300  0.24300  1.0000
  O   O4        1.0  0.84500  0.87000  0.25700  1.0000
  O   O5        1.0  0.36300  0.28100  0.38500  1.0000
  O   O6        1.0  0.85700  0.60600  0.41400  1.0000
  O   O7        1.0  0.19100  0.44300  0.58600  1.0000
  O   O8        1.0  0.89600  0.97800  0.61500  1.0000
  O   O9        1.0  0.61300  0.58800  0.74300  1.0000
  O   O10       1.0  0.62000  0.09540  0.75700  1.0000
  O   O11       1.0  0.03100  0.61300  0.88500  1.0000
  O   O12       1.0  0.35600  0.10700  0.91400  1.0000
  Sr  Sr1       1.0  0.99900  0.99900  0.00000  1.0000
  Sr  Sr2       1.0  0.74900  0.24900  0.50000  1.0000
