data_image0
_chemical_formula_structural       Pd14Se4
_chemical_formula_sum              "Pd14 Se4"
_cell_length_a       9.51734
_cell_length_b       5.41642
_cell_length_c       5.55826
_cell_angle_alpha    90
_cell_angle_beta     93.6092
_cell_angle_gamma    90

_space_group_name_H-M_alt    "P 1"
_space_group_IT_number       1

loop_
  _space_group_symop_operation_xyz
  'x, y, z'

loop_
  _atom_site_type_symbol
  _atom_site_label
  _atom_site_symmetry_multiplicity
  _atom_site_fract_x
  _atom_site_fract_y
  _atom_site_fract_z
  _atom_site_occupancy
  Pd  Pd1       1.0  0.85200  0.10000  0.03220  1.0000
  Pd  Pd2       1.0  0.35200  0.40000  0.03220  1.0000
  Pd  Pd3       1.0  0.92700  0.58100  0.20800  1.0000
  Pd  Pd4       1.0  0.42700  0.91900  0.20800  1.0000
  Pd  Pd5       1.0  0.70800  0.84100  0.42600  1.0000
  Pd  Pd6       1.0  0.20800  0.65900  0.42600  1.0000
  Pd  Pd7       1.0  0.00000  0.00000  0.50000  1.0000
  Pd  Pd8       1.0  0.50000  0.50000  0.50000  1.0000
  Pd  Pd9       1.0  0.79200  0.34100  0.57400  1.0000
  Pd  Pd10      1.0  0.29200  0.15900  0.57400  1.0000
  Pd  Pd11      1.0  0.57300  0.08130  0.79200  1.0000
  Pd  Pd12      1.0  0.07320  0.41900  0.79200  1.0000
  Pd  Pd13      1.0  0.64800  0.60000  0.96800  1.0000
  Pd  Pd14      1.0  0.14800  0.90000  0.96800  1.0000
  Se  Se1       1.0  0.62200  0.22800  0.22500  1.0000
  Se  Se2       1.0  0.12200  0.27200  0.22500  1.0000
  Se  Se3       1.0  0.87800  0.72800  0.77500  1.0000
  Se  Se4       1.0  0.37800  0.77200  0.77500  1.0000
