data_image0
_chemical_formula_structural       K6Ni4O8
_chemical_formula_sum              "K6 Ni4 O8"
_cell_length_a       5.37175
_cell_length_b       5.37175
_cell_length_c       10.5495
_cell_angle_alpha    90
_cell_angle_beta     90
_cell_angle_gamma    111.832

_space_group_name_H-M_alt    "P 1"
_space_group_IT_number       1

loop_
  _space_group_symop_operation_xyz
  'x, y, z'

loop_
  _atom_site_type_symbol
  _atom_site_label
  _atom_site_symmetry_multiplicity
  _atom_site_fract_x
  _atom_site_fract_y
  _atom_site_fract_z
  _atom_site_occupancy
  K   K1        1.0  0.34800  0.65200  0.06930  1.0000
  K   K2        1.0  0.71400  0.28600  0.25000  1.0000
  K   K3        1.0  0.34800  0.65200  0.43100  1.0000
  K   K4        1.0  0.65200  0.34800  0.56900  1.0000
  K   K5        1.0  0.28600  0.71400  0.75000  1.0000
  K   K6        1.0  0.65200  0.34800  0.93100  1.0000
  Ni  Ni1       1.0  0.00000  0.00000  0.00000  1.0000
  Ni  Ni2       1.0  0.06310  0.93700  0.25000  1.0000
  Ni  Ni3       1.0  0.00000  0.00000  0.50000  1.0000
  Ni  Ni4       1.0  0.93700  0.06310  0.75000  1.0000
  O   O1        1.0  0.27100  0.13600  0.12100  1.0000
  O   O2        1.0  0.86400  0.72900  0.12100  1.0000
  O   O3        1.0  0.27100  0.13600  0.37900  1.0000
  O   O4        1.0  0.86400  0.72900  0.37900  1.0000
  O   O5        1.0  0.13600  0.27100  0.62100  1.0000
  O   O6        1.0  0.72900  0.86400  0.62100  1.0000
  O   O7        1.0  0.13600  0.27100  0.87900  1.0000
  O   O8        1.0  0.72900  0.86400  0.87900  1.0000
