data_image0
_chemical_formula_structural       Cu4La4O10
_chemical_formula_sum              "Cu4 La4 O10"
_cell_length_a       5.46378
_cell_length_b       10.4087
_cell_length_c       3.8754
_cell_angle_alpha    90
_cell_angle_beta     90
_cell_angle_gamma    90

_space_group_name_H-M_alt    "P 1"
_space_group_IT_number       1

loop_
  _space_group_symop_operation_xyz
  'x, y, z'

loop_
  _atom_site_type_symbol
  _atom_site_label
  _atom_site_symmetry_multiplicity
  _atom_site_fract_x
  _atom_site_fract_y
  _atom_site_fract_z
  _atom_site_occupancy
  Cu  Cu1       1.0  0.29700  0.10500  0.00000  1.0000
  Cu  Cu2       1.0  0.79700  0.39500  0.00000  1.0000
  Cu  Cu3       1.0  0.20300  0.60500  0.00000  1.0000
  Cu  Cu4       1.0  0.70300  0.89500  0.00000  1.0000
  La  La1       1.0  0.80900  0.13800  0.50000  1.0000
  La  La2       1.0  0.30900  0.36200  0.50000  1.0000
  La  La3       1.0  0.69100  0.63800  0.50000  1.0000
  La  La4       1.0  0.19100  0.86200  0.50000  1.0000
  O   O1        1.0  0.00000  0.00000  0.00000  1.0000
  O   O2        1.0  0.58000  0.21200  0.00000  1.0000
  O   O3        1.0  0.08000  0.28800  0.00000  1.0000
  O   O4        1.0  0.50000  0.50000  0.00000  1.0000
  O   O5        1.0  0.92000  0.71200  0.00000  1.0000
  O   O6        1.0  0.42000  0.78800  0.00000  1.0000
  O   O7        1.0  0.28800  0.10200  0.50000  1.0000
  O   O8        1.0  0.78800  0.39800  0.50000  1.0000
  O   O9        1.0  0.21200  0.60200  0.50000  1.0000
  O   O10       1.0  0.71200  0.89800  0.50000  1.0000
