data_image0
_chemical_formula_structural       Ba4Cu6P8
_chemical_formula_sum              "Ba4 Cu6 P8"
_cell_length_a       6.19804
_cell_length_b       8.36775
_cell_length_c       8.36775
_cell_angle_alpha    95.7596
_cell_angle_beta     111.737
_cell_angle_gamma    111.737

_space_group_name_H-M_alt    "P 1"
_space_group_IT_number       1

loop_
  _space_group_symop_operation_xyz
  'x, y, z'

loop_
  _atom_site_type_symbol
  _atom_site_label
  _atom_site_symmetry_multiplicity
  _atom_site_fract_x
  _atom_site_fract_y
  _atom_site_fract_z
  _atom_site_occupancy
  Ba  Ba1       1.0  0.20400  0.31400  0.09490  1.0000
  Ba  Ba2       1.0  0.70400  0.09490  0.31400  1.0000
  Ba  Ba3       1.0  0.29600  0.90500  0.68600  1.0000
  Ba  Ba4       1.0  0.79600  0.68600  0.90500  1.0000
  Cu  Cu1       1.0  0.25000  0.72100  0.27900  1.0000
  Cu  Cu2       1.0  0.75000  0.72100  0.27900  1.0000
  Cu  Cu3       1.0  0.25000  0.50000  0.50000  1.0000
  Cu  Cu4       1.0  0.75000  0.50000  0.50000  1.0000
  Cu  Cu5       1.0  0.25000  0.27900  0.72100  1.0000
  Cu  Cu6       1.0  0.75000  0.27900  0.72100  1.0000
  P   P1        1.0  0.36800  0.71000  0.02670  1.0000
  P   P2        1.0  0.86700  0.48900  0.24600  1.0000
  P   P3        1.0  0.13200  0.97300  0.29000  1.0000
  P   P4        1.0  0.36700  0.24600  0.48900  1.0000
  P   P5        1.0  0.63300  0.75400  0.51100  1.0000
  P   P6        1.0  0.86800  0.02670  0.71000  1.0000
  P   P7        1.0  0.13300  0.51100  0.75400  1.0000
  P   P8        1.0  0.63200  0.29000  0.97300  1.0000
