data_image0
_chemical_formula_structural       K4O8Zn6
_chemical_formula_sum              "K4 O8 Zn6"
_cell_length_a       5.74923
_cell_length_b       6.36017
_cell_length_c       8.01703
_cell_angle_alpha    113.37
_cell_angle_beta     101.917
_cell_angle_gamma    90

_space_group_name_H-M_alt    "P 1"
_space_group_IT_number       1

loop_
  _space_group_symop_operation_xyz
  'x, y, z'

loop_
  _atom_site_type_symbol
  _atom_site_label
  _atom_site_symmetry_multiplicity
  _atom_site_fract_x
  _atom_site_fract_y
  _atom_site_fract_z
  _atom_site_occupancy
  K   K1        1.0  0.98700  0.00000  0.23500  1.0000
  K   K2        1.0  0.48700  0.23500  0.23500  1.0000
  K   K3        1.0  0.51300  0.76500  0.76500  1.0000
  K   K4        1.0  0.01290  0.00007  0.76500  1.0000
  O   O1        1.0  0.54300  0.74200  0.11200  1.0000
  O   O2        1.0  0.04280  0.37000  0.11200  1.0000
  O   O3        1.0  0.78000  0.60900  0.46900  1.0000
  O   O4        1.0  0.28000  0.86100  0.46900  1.0000
  O   O5        1.0  0.72000  0.13900  0.53100  1.0000
  O   O6        1.0  0.22000  0.39100  0.53100  1.0000
  O   O7        1.0  0.45700  0.25800  0.88800  1.0000
  O   O8        1.0  0.95700  0.63000  0.88800  1.0000
  Zn  Zn1       1.0  0.75000  0.48100  1.00000  1.0000
  Zn  Zn2       1.0  0.25000  0.51900  0.00000  1.0000
  Zn  Zn3       1.0  0.58300  0.80700  0.38000  1.0000
  Zn  Zn4       1.0  0.08260  0.57200  0.38000  1.0000
  Zn  Zn5       1.0  0.91700  0.42800  0.62000  1.0000
  Zn  Zn6       1.0  0.41700  0.19300  0.62000  1.0000
