data_image0
_chemical_formula_structural       Ge2Li4O8Rb4
_chemical_formula_sum              "Ge2 Li4 O8 Rb4"
_cell_length_a       9.00057
_cell_length_b       5.72971
_cell_length_c       5.59991
_cell_angle_alpha    94.8016
_cell_angle_beta     110.665
_cell_angle_gamma    93.5957

_space_group_name_H-M_alt    "P 1"
_space_group_IT_number       1

loop_
  _space_group_symop_operation_xyz
  'x, y, z'

loop_
  _atom_site_type_symbol
  _atom_site_label
  _atom_site_symmetry_multiplicity
  _atom_site_fract_x
  _atom_site_fract_y
  _atom_site_fract_z
  _atom_site_occupancy
  Ge  Ge1       1.0  0.27300  0.31300  0.41700  1.0000
  Ge  Ge2       1.0  0.72700  0.68700  0.58300  1.0000
  Li  Li1       1.0  0.41900  0.40800  0.11400  1.0000
  Li  Li2       1.0  0.44100  0.81400  0.36700  1.0000
  Li  Li3       1.0  0.55900  0.18600  0.63300  1.0000
  Li  Li4       1.0  0.58100  0.59200  0.88600  1.0000
  O   O1        1.0  0.61100  0.64200  0.24500  1.0000
  O   O2        1.0  0.27500  0.57100  0.25900  1.0000
  O   O3        1.0  0.39000  0.13000  0.28700  1.0000
  O   O4        1.0  0.07480  0.20200  0.34900  1.0000
  O   O5        1.0  0.92500  0.79800  0.65100  1.0000
  O   O6        1.0  0.61000  0.87000  0.71300  1.0000
  O   O7        1.0  0.72500  0.42900  0.74100  1.0000
  O   O8        1.0  0.38900  0.35800  0.75500  1.0000
  Rb  Rb1       1.0  0.97800  0.72400  0.19200  1.0000
  Rb  Rb2       1.0  0.73100  0.15400  0.20100  1.0000
  Rb  Rb3       1.0  0.26900  0.84600  0.79900  1.0000
  Rb  Rb4       1.0  0.02160  0.27600  0.80800  1.0000
