data_image0
_chemical_formula_structural       K6O8Pt4
_chemical_formula_sum              "K6 O8 Pt4"
_cell_length_a       5.49991
_cell_length_b       5.49991
_cell_length_c       11.6368
_cell_angle_alpha    90
_cell_angle_beta     90
_cell_angle_gamma    113.146

_space_group_name_H-M_alt    "P 1"
_space_group_IT_number       1

loop_
  _space_group_symop_operation_xyz
  'x, y, z'

loop_
  _atom_site_type_symbol
  _atom_site_label
  _atom_site_symmetry_multiplicity
  _atom_site_fract_x
  _atom_site_fract_y
  _atom_site_fract_z
  _atom_site_occupancy
  K   K1        1.0  0.35300  0.64700  0.06870  1.0000
  K   K2        1.0  0.72000  0.28000  0.25000  1.0000
  K   K3        1.0  0.35300  0.64700  0.43100  1.0000
  K   K4        1.0  0.64700  0.35300  0.56900  1.0000
  K   K5        1.0  0.28000  0.72000  0.75000  1.0000
  K   K6        1.0  0.64700  0.35300  0.93100  1.0000
  O   O1        1.0  0.29800  0.12700  0.11500  1.0000
  O   O2        1.0  0.87300  0.70200  0.11500  1.0000
  O   O3        1.0  0.29800  0.12700  0.38500  1.0000
  O   O4        1.0  0.87300  0.70200  0.38500  1.0000
  O   O5        1.0  0.12700  0.29800  0.61500  1.0000
  O   O6        1.0  0.70200  0.87300  0.61500  1.0000
  O   O7        1.0  0.12700  0.29800  0.88500  1.0000
  O   O8        1.0  0.70200  0.87300  0.88500  1.0000
  Pt  Pt1       1.0  0.00000  0.00000  0.00000  1.0000
  Pt  Pt2       1.0  0.08070  0.91900  0.25000  1.0000
  Pt  Pt3       1.0  0.00000  0.00000  0.50000  1.0000
  Pt  Pt4       1.0  0.91900  0.08070  0.75000  1.0000
