data_image0
_chemical_formula_structural       Ba2Br4O12
_chemical_formula_sum              "Ba2 Br4 O12"
_cell_length_a       7.16618
_cell_length_b       7.16618
_cell_length_c       7.77197
_cell_angle_alpha    105.716
_cell_angle_beta     105.716
_cell_angle_gamma    114.359

_space_group_name_H-M_alt    "P 1"
_space_group_IT_number       1

loop_
  _space_group_symop_operation_xyz
  'x, y, z'

loop_
  _atom_site_type_symbol
  _atom_site_label
  _atom_site_symmetry_multiplicity
  _atom_site_fract_x
  _atom_site_fract_y
  _atom_site_fract_z
  _atom_site_occupancy
  Ba  Ba1       1.0  0.99800  0.99800  0.00000  1.0000
  Ba  Ba2       1.0  0.74800  0.24800  0.50000  1.0000
  Br  Br1       1.0  0.27300  0.66200  0.04430  1.0000
  Br  Br2       1.0  0.97900  0.86800  0.45600  1.0000
  Br  Br3       1.0  0.41200  0.52300  0.54400  1.0000
  Br  Br4       1.0  0.61800  0.22900  0.95600  1.0000
  O   O1        1.0  0.21600  0.45000  0.11200  1.0000
  O   O2        1.0  0.71300  0.13400  0.11600  1.0000
  O   O3        1.0  0.32700  0.87900  0.24400  1.0000
  O   O4        1.0  0.83300  0.88500  0.25600  1.0000
  O   O5        1.0  0.34700  0.26900  0.38400  1.0000
  O   O6        1.0  0.85500  0.58900  0.38800  1.0000
  O   O7        1.0  0.20000  0.46600  0.61200  1.0000
  O   O8        1.0  0.88400  0.96300  0.61600  1.0000
  O   O9        1.0  0.62900  0.57700  0.74400  1.0000
  O   O10       1.0  0.63500  0.08320  0.75600  1.0000
  O   O11       1.0  0.01850  0.59700  0.88400  1.0000
  O   O12       1.0  0.33900  0.10500  0.88800  1.0000
