data_image0
_chemical_formula_structural       Na8O8Ti2
_chemical_formula_sum              "Na8 O8 Ti2"
_cell_length_a       8.7183
_cell_length_b       5.74355
_cell_length_c       6.42896
_cell_angle_alpha    124.255
_cell_angle_beta     102.314
_cell_angle_gamma    95.8207

_space_group_name_H-M_alt    "P 1"
_space_group_IT_number       1

loop_
  _space_group_symop_operation_xyz
  'x, y, z'

loop_
  _atom_site_type_symbol
  _atom_site_label
  _atom_site_symmetry_multiplicity
  _atom_site_fract_x
  _atom_site_fract_y
  _atom_site_fract_z
  _atom_site_occupancy
  Na  Na1       1.0  0.06520  0.27900  0.04470  1.0000
  Na  Na2       1.0  0.31700  0.98000  0.20800  1.0000
  Na  Na3       1.0  0.48800  0.48600  0.22900  1.0000
  Na  Na4       1.0  0.89800  0.71200  0.45300  1.0000
  Na  Na5       1.0  0.10200  0.28800  0.54700  1.0000
  Na  Na6       1.0  0.51200  0.51400  0.77100  1.0000
  Na  Na7       1.0  0.68300  0.01950  0.79200  1.0000
  Na  Na8       1.0  0.93500  0.72100  0.95500  1.0000
  O   O1        1.0  0.86500  0.16600  0.19300  1.0000
  O   O2        1.0  0.56000  0.86500  0.21100  1.0000
  O   O3        1.0  0.12200  0.80200  0.32400  1.0000
  O   O4        1.0  0.30600  0.46400  0.44100  1.0000
  O   O5        1.0  0.69400  0.53600  0.55900  1.0000
  O   O6        1.0  0.87800  0.19800  0.67600  1.0000
  O   O7        1.0  0.44000  0.13500  0.78900  1.0000
  O   O8        1.0  0.13500  0.83400  0.80700  1.0000
  Ti  Ti1       1.0  0.74200  0.17900  0.39900  1.0000
  Ti  Ti2       1.0  0.25800  0.82100  0.60100  1.0000
