data_image0
_chemical_formula_structural       Cl12Pd2Se4
_chemical_formula_sum              "Cl12 Pd2 Se4"
_cell_length_a       7.22171
_cell_length_b       8.44171
_cell_length_c       9.38509
_cell_angle_alpha    116.727
_cell_angle_beta     99.4335
_cell_angle_gamma    90

_space_group_name_H-M_alt    "P 1"
_space_group_IT_number       1

loop_
  _space_group_symop_operation_xyz
  'x, y, z'

loop_
  _atom_site_type_symbol
  _atom_site_label
  _atom_site_symmetry_multiplicity
  _atom_site_fract_x
  _atom_site_fract_y
  _atom_site_fract_z
  _atom_site_occupancy
  Cl  Cl1       1.0  0.55100  0.24600  0.16000  1.0000
  Cl  Cl2       1.0  0.05070  0.91300  0.16000  1.0000
  Cl  Cl3       1.0  0.02400  0.54300  0.21500  1.0000
  Cl  Cl4       1.0  0.52400  0.67200  0.21500  1.0000
  Cl  Cl5       1.0  0.74300  0.07750  0.44300  1.0000
  Cl  Cl6       1.0  0.24300  0.36600  0.44300  1.0000
  Cl  Cl7       1.0  0.75700  0.63400  0.55700  1.0000
  Cl  Cl8       1.0  0.25700  0.92200  0.55700  1.0000
  Cl  Cl9       1.0  0.97600  0.45700  0.78500  1.0000
  Cl  Cl10      1.0  0.47600  0.32800  0.78500  1.0000
  Cl  Cl11      1.0  0.94900  0.08670  0.84000  1.0000
  Cl  Cl12      1.0  0.44900  0.75400  0.84000  1.0000
  Pd  Pd1       1.0  0.75000  0.82900  0.00000  1.0000
  Pd  Pd2       1.0  0.25000  0.17100  0.00000  1.0000
  Se  Se1       1.0  0.55700  0.92900  0.20900  1.0000
  Se  Se2       1.0  0.05710  0.27900  0.20900  1.0000
  Se  Se3       1.0  0.94300  0.72100  0.79100  1.0000
  Se  Se4       1.0  0.44300  0.07060  0.79100  1.0000
