data_image0
_chemical_formula_structural       B3Ca4O10Sm
_chemical_formula_sum              "B3 Ca4 O10 Sm1"
_cell_length_a       3.55381
_cell_length_b       8.08411
_cell_length_c       8.94235
_cell_angle_alpha    63.1271
_cell_angle_beta     95.0183
_cell_angle_gamma    101.158

_space_group_name_H-M_alt    "P 1"
_space_group_IT_number       1

loop_
  _space_group_symop_operation_xyz
  'x, y, z'

loop_
  _atom_site_type_symbol
  _atom_site_label
  _atom_site_symmetry_multiplicity
  _atom_site_fract_x
  _atom_site_fract_y
  _atom_site_fract_z
  _atom_site_occupancy
  B   B1        1.0  0.70300  0.37800  0.00000  1.0000
  B   B2        1.0  0.08290  0.75600  0.39000  1.0000
  B   B3        1.0  0.08290  0.14600  0.61000  1.0000
  Ca  Ca1       1.0  0.32900  0.52900  0.22600  1.0000
  Ca  Ca2       1.0  0.65800  0.08420  0.36300  1.0000
  Ca  Ca3       1.0  0.65800  0.44700  0.63700  1.0000
  Ca  Ca4       1.0  0.32900  0.75500  0.77400  1.0000
  O   O1        1.0  0.60200  0.20400  0.00000  1.0000
  O   O2        1.0  0.41800  0.82300  0.00000  1.0000
  O   O3        1.0  0.75300  0.38900  0.15100  1.0000
  O   O4        1.0  0.08110  0.94600  0.28800  1.0000
  O   O5        1.0  0.88400  0.62200  0.34400  1.0000
  O   O6        1.0  0.27900  0.23800  0.46000  1.0000
  O   O7        1.0  0.27900  0.69800  0.54000  1.0000
  O   O8        1.0  0.88400  0.96600  0.65600  1.0000
  O   O9        1.0  0.08110  0.23400  0.71200  1.0000
  O   O10       1.0  0.75300  0.54000  0.84900  1.0000
  Sm  Sm1       1.0  0.99700  0.00000  0.00000  1.0000
