data_image0
_chemical_formula_structural       O8Rb4Zn6
_chemical_formula_sum              "O8 Rb4 Zn6"
_cell_length_a       5.77453
_cell_length_b       6.49895
_cell_length_c       8.25246
_cell_angle_alpha    113.189
_cell_angle_beta     100.697
_cell_angle_gamma    90

_space_group_name_H-M_alt    "P 1"
_space_group_IT_number       1

loop_
  _space_group_symop_operation_xyz
  'x, y, z'

loop_
  _atom_site_type_symbol
  _atom_site_label
  _atom_site_symmetry_multiplicity
  _atom_site_fract_x
  _atom_site_fract_y
  _atom_site_fract_z
  _atom_site_occupancy
  O   O1        1.0  0.54200  0.72800  0.12400  1.0000
  O   O2        1.0  0.04180  0.39600  0.12400  1.0000
  O   O3        1.0  0.28600  0.86200  0.47700  1.0000
  O   O4        1.0  0.78600  0.61600  0.47700  1.0000
  O   O5        1.0  0.71400  0.13800  0.52300  1.0000
  O   O6        1.0  0.21400  0.38400  0.52300  1.0000
  O   O7        1.0  0.45800  0.27200  0.87600  1.0000
  O   O8        1.0  0.95800  0.60400  0.87600  1.0000
  Rb  Rb1       1.0  0.99500  0.98800  0.23100  1.0000
  Rb  Rb2       1.0  0.49500  0.24200  0.23100  1.0000
  Rb  Rb3       1.0  0.00548  0.01180  0.76900  1.0000
  Rb  Rb4       1.0  0.50500  0.75800  0.76900  1.0000
  Zn  Zn1       1.0  0.25000  0.51800  0.00000  1.0000
  Zn  Zn2       1.0  0.75000  0.48200  0.00000  1.0000
  Zn  Zn3       1.0  0.58700  0.80700  0.38700  1.0000
  Zn  Zn4       1.0  0.08710  0.57900  0.38700  1.0000
  Zn  Zn5       1.0  0.41300  0.19300  0.61300  1.0000
  Zn  Zn6       1.0  0.91300  0.42100  0.61300  1.0000
