data_image0
_chemical_formula_structural       Na8Se8Sn2
_chemical_formula_sum              "Na8 Se8 Sn2"
_cell_length_a       8.15201
_cell_length_b       8.15201
_cell_length_c       7.27876
_cell_angle_alpha    90
_cell_angle_beta     90
_cell_angle_gamma    90

_space_group_name_H-M_alt    "P 1"
_space_group_IT_number       1

loop_
  _space_group_symop_operation_xyz
  'x, y, z'

loop_
  _atom_site_type_symbol
  _atom_site_label
  _atom_site_symmetry_multiplicity
  _atom_site_fract_x
  _atom_site_fract_y
  _atom_site_fract_z
  _atom_site_occupancy
  Na  Na1       1.0  0.80300  0.40600  0.02890  1.0000
  Na  Na2       1.0  0.19700  0.59400  0.02890  1.0000
  Na  Na3       1.0  0.30300  0.09360  0.47100  1.0000
  Na  Na4       1.0  0.69700  0.90600  0.47100  1.0000
  Na  Na5       1.0  0.90600  0.30300  0.52900  1.0000
  Na  Na6       1.0  0.09360  0.69700  0.52900  1.0000
  Na  Na7       1.0  0.40600  0.19700  0.97100  1.0000
  Na  Na8       1.0  0.59400  0.80300  0.97100  1.0000
  Se  Se1       1.0  0.09660  0.24500  0.19300  1.0000
  Se  Se2       1.0  0.90300  0.75500  0.19300  1.0000
  Se  Se3       1.0  0.59700  0.25500  0.30700  1.0000
  Se  Se4       1.0  0.40300  0.74500  0.30700  1.0000
  Se  Se5       1.0  0.25500  0.40300  0.69300  1.0000
  Se  Se6       1.0  0.74500  0.59700  0.69300  1.0000
  Se  Se7       1.0  0.75500  0.09660  0.80700  1.0000
  Se  Se8       1.0  0.24500  0.90300  0.80700  1.0000
  Sn  Sn1       1.0  0.00000  0.00000  0.00000  1.0000
  Sn  Sn2       1.0  0.50000  0.50000  0.50000  1.0000
