data_image0
_chemical_formula_structural       Fe2Na8O8
_chemical_formula_sum              "Fe2 Na8 O8"
_cell_length_a       8.40856
_cell_length_b       5.71696
_cell_length_c       6.51856
_cell_angle_alpha    124.816
_cell_angle_beta     98.9358
_cell_angle_gamma    101.912

_space_group_name_H-M_alt    "P 1"
_space_group_IT_number       1

loop_
  _space_group_symop_operation_xyz
  'x, y, z'

loop_
  _atom_site_type_symbol
  _atom_site_label
  _atom_site_symmetry_multiplicity
  _atom_site_fract_x
  _atom_site_fract_y
  _atom_site_fract_z
  _atom_site_occupancy
  Fe  Fe1       1.0  0.74800  0.43700  0.15700  1.0000
  Fe  Fe2       1.0  0.25200  0.56300  0.84300  1.0000
  Na  Na1       1.0  0.63300  0.82800  0.03840  1.0000
  Na  Na2       1.0  0.01790  0.95900  0.22100  1.0000
  Na  Na3       1.0  0.16500  0.64000  0.41200  1.0000
  Na  Na4       1.0  0.43200  0.20200  0.47900  1.0000
  Na  Na5       1.0  0.56800  0.79800  0.52100  1.0000
  Na  Na6       1.0  0.83500  0.36000  0.58800  1.0000
  Na  Na7       1.0  0.98200  0.04150  0.77900  1.0000
  Na  Na8       1.0  0.36700  0.17200  0.96200  1.0000
  O   O1        1.0  0.89400  0.23600  0.13600  1.0000
  O   O2        1.0  0.33100  0.65900  0.16500  1.0000
  O   O3        1.0  0.61400  0.33200  0.30500  1.0000
  O   O4        1.0  0.80000  0.84400  0.36900  1.0000
  O   O5        1.0  0.20000  0.15600  0.63100  1.0000
  O   O6        1.0  0.38600  0.66800  0.69500  1.0000
  O   O7        1.0  0.66900  0.34100  0.83500  1.0000
  O   O8        1.0  0.10600  0.76400  0.86400  1.0000
