data_image0
_chemical_formula_structural       F6GeK2
_chemical_formula_sum              "F6 Ge1 K2"
_cell_length_a       5.45947
_cell_length_b       5.45944
_cell_length_c       4.46016
_cell_angle_alpha    90
_cell_angle_beta     89.9999
_cell_angle_gamma    120

_space_group_name_H-M_alt    "P 1"
_space_group_IT_number       1

loop_
  _space_group_symop_operation_xyz
  'x, y, z'

loop_
  _atom_site_type_symbol
  _atom_site_label
  _atom_site_symmetry_multiplicity
  _atom_site_fract_x
  _atom_site_fract_y
  _atom_site_fract_z
  _atom_site_occupancy
  F   F1        1.0  0.68000  0.84000  0.22700  1.0000
  F   F2        1.0  0.16000  0.84000  0.22700  1.0000
  F   F3        1.0  0.16000  0.32000  0.22700  1.0000
  F   F4        1.0  0.84000  0.68000  0.77300  1.0000
  F   F5        1.0  0.84000  0.16000  0.77300  1.0000
  F   F6        1.0  0.32000  0.16000  0.77300  1.0000
  Ge  Ge1       1.0  0.00000  0.00000  0.00000  1.0000
  K   K1        1.0  0.66700  0.33300  0.29800  1.0000
  K   K2        1.0  0.33300  0.66700  0.70200  1.0000
