data_image0
_chemical_formula_structural       F12Ga2Li2Pd2
_chemical_formula_sum              "F12 Ga2 Li2 Pd2"
_cell_length_a       5.01026
_cell_length_b       5.01078
_cell_length_c       9.05375
_cell_angle_alpha    89.9882
_cell_angle_beta     90.0059
_cell_angle_gamma    120.003

_space_group_name_H-M_alt    "P 1"
_space_group_IT_number       1

loop_
  _space_group_symop_operation_xyz
  'x, y, z'

loop_
  _atom_site_type_symbol
  _atom_site_label
  _atom_site_symmetry_multiplicity
  _atom_site_fract_x
  _atom_site_fract_y
  _atom_site_fract_z
  _atom_site_occupancy
  F   F1        1.0  0.35300  0.36100  0.13400  1.0000
  F   F2        1.0  0.00733  0.64600  0.13400  1.0000
  F   F3        1.0  0.63900  0.99300  0.13400  1.0000
  F   F4        1.0  0.63900  0.64600  0.36600  1.0000
  F   F5        1.0  0.00733  0.36100  0.36600  1.0000
  F   F6        1.0  0.35300  0.99300  0.36600  1.0000
  F   F7        1.0  0.64700  0.00740  0.63400  1.0000
  F   F8        1.0  0.99300  0.63900  0.63400  1.0000
  F   F9        1.0  0.36100  0.35400  0.63400  1.0000
  F   F10       1.0  0.36100  0.00739  0.86600  1.0000
  F   F11       1.0  0.99300  0.35400  0.86600  1.0000
  F   F12       1.0  0.64700  0.63900  0.86600  1.0000
  Ga  Ga1       1.0  0.33300  0.66700  0.25000  1.0000
  Ga  Ga2       1.0  0.66700  0.33300  0.75000  1.0000
  Li  Li1       1.0  0.66700  0.33300  0.25000  1.0000
  Li  Li2       1.0  0.33300  0.66700  0.75000  1.0000
  Pd  Pd1       1.0  0.00000  0.00000  0.00000  1.0000
  Pd  Pd2       1.0  1.00000  0.00000  0.50000  1.0000
