data_image0
_chemical_formula_structural       Al2F12Li2Pd2
_chemical_formula_sum              "Al2 F12 Li2 Pd2"
_cell_length_a       4.92036
_cell_length_b       4.9209
_cell_length_c       8.95817
_cell_angle_alpha    89.9895
_cell_angle_beta     90.0053
_cell_angle_gamma    120.004

_space_group_name_H-M_alt    "P 1"
_space_group_IT_number       1

loop_
  _space_group_symop_operation_xyz
  'x, y, z'

loop_
  _atom_site_type_symbol
  _atom_site_label
  _atom_site_symmetry_multiplicity
  _atom_site_fract_x
  _atom_site_fract_y
  _atom_site_fract_z
  _atom_site_occupancy
  Al  Al1       1.0  0.66700  0.33300  0.25000  1.0000
  Al  Al2       1.0  0.33300  0.66700  0.75000  1.0000
  F   F1        1.0  0.37200  0.35200  0.13700  1.0000
  F   F2        1.0  0.98000  0.62800  0.13700  1.0000
  F   F3        1.0  0.64800  0.01980  0.13700  1.0000
  F   F4        1.0  0.64800  0.62800  0.36300  1.0000
  F   F5        1.0  0.98000  0.35200  0.36300  1.0000
  F   F6        1.0  0.37200  0.01990  0.36300  1.0000
  F   F7        1.0  0.62800  0.98000  0.63700  1.0000
  F   F8        1.0  0.01980  0.64800  0.63700  1.0000
  F   F9        1.0  0.35200  0.37200  0.63700  1.0000
  F   F10       1.0  0.35200  0.98000  0.86300  1.0000
  F   F11       1.0  0.01980  0.37200  0.86300  1.0000
  F   F12       1.0  0.62800  0.64800  0.86300  1.0000
  Li  Li1       1.0  0.33300  0.66700  0.25000  1.0000
  Li  Li2       1.0  0.66700  0.33300  0.75000  1.0000
  Pd  Pd1       1.0  0.00000  0.00000  0.00000  1.0000
  Pd  Pd2       1.0  0.00000  0.00000  0.50000  1.0000
