data_image0
_chemical_formula_structural       Eu2Ni10P6
_chemical_formula_sum              "Eu2 Ni10 P6"
_cell_length_a       3.57838
_cell_length_b       6.09511
_cell_length_c       11.4632
_cell_angle_alpha    90
_cell_angle_beta     90
_cell_angle_gamma    72.9296

_space_group_name_H-M_alt    "P 1"
_space_group_IT_number       1

loop_
  _space_group_symop_operation_xyz
  'x, y, z'

loop_
  _atom_site_type_symbol
  _atom_site_label
  _atom_site_symmetry_multiplicity
  _atom_site_fract_x
  _atom_site_fract_y
  _atom_site_fract_z
  _atom_site_occupancy
  Eu  Eu1       1.0  0.83800  0.32300  0.25000  1.0000
  Eu  Eu2       1.0  0.16200  0.67700  0.75000  1.0000
  Ni  Ni1       1.0  0.00000  0.00000  0.00000  1.0000
  Ni  Ni2       1.0  0.19900  0.60200  0.06900  1.0000
  Ni  Ni3       1.0  0.55000  0.89900  0.14600  1.0000
  Ni  Ni4       1.0  0.55000  0.89900  0.35400  1.0000
  Ni  Ni5       1.0  0.19900  0.60200  0.43100  1.0000
  Ni  Ni6       1.0  0.00000  0.00000  0.50000  1.0000
  Ni  Ni7       1.0  0.80100  0.39800  0.56900  1.0000
  Ni  Ni8       1.0  0.45000  0.10100  0.64600  1.0000
  Ni  Ni9       1.0  0.45000  0.10100  0.85400  1.0000
  Ni  Ni10      1.0  0.80100  0.39800  0.93100  1.0000
  P   P1        1.0  0.38200  0.23600  0.04040  1.0000
  P   P2        1.0  0.11700  0.76600  0.25000  1.0000
  P   P3        1.0  0.38200  0.23600  0.46000  1.0000
  P   P4        1.0  0.61800  0.76400  0.54000  1.0000
  P   P5        1.0  0.88300  0.23400  0.75000  1.0000
  P   P6        1.0  0.61800  0.76400  0.96000  1.0000
