data_image0
_chemical_formula_structural       Ge2Na4O10Ti2
_chemical_formula_sum              "Ge2 Na4 O10 Ti2"
_cell_length_a       6.62606
_cell_length_b       6.62606
_cell_length_c       5.15845
_cell_angle_alpha    90
_cell_angle_beta     90
_cell_angle_gamma    90

_space_group_name_H-M_alt    "P 1"
_space_group_IT_number       1

loop_
  _space_group_symop_operation_xyz
  'x, y, z'

loop_
  _atom_site_type_symbol
  _atom_site_label
  _atom_site_symmetry_multiplicity
  _atom_site_fract_x
  _atom_site_fract_y
  _atom_site_fract_z
  _atom_site_occupancy
  Ge  Ge1       1.0  0.00000  0.00000  0.00000  1.0000
  Ge  Ge2       1.0  0.50000  0.50000  0.00000  1.0000
  Na  Na1       1.0  0.25000  0.25000  0.50000  1.0000
  Na  Na2       1.0  0.75000  0.25000  0.50000  1.0000
  Na  Na3       1.0  0.25000  0.75000  0.50000  1.0000
  Na  Na4       1.0  0.75000  0.75000  0.50000  1.0000
  O   O1        1.0  0.00000  0.21600  0.20000  1.0000
  O   O2        1.0  0.28500  0.50000  0.20000  1.0000
  O   O3        1.0  0.71500  0.50000  0.20000  1.0000
  O   O4        1.0  0.00000  0.78500  0.20000  1.0000
  O   O5        1.0  0.50000  0.00000  0.26500  1.0000
  O   O6        1.0  0.00000  0.50000  0.73500  1.0000
  O   O7        1.0  0.21600  0.00000  0.80000  1.0000
  O   O8        1.0  0.78500  0.00000  0.80000  1.0000
  O   O9        1.0  0.50000  0.28500  0.80000  1.0000
  O   O10       1.0  0.50000  0.71500  0.80000  1.0000
  Ti  Ti1       1.0  0.00000  0.50000  0.07370  1.0000
  Ti  Ti2       1.0  0.50000  0.00000  0.92600  1.0000
