data_image0
_chemical_formula_structural       Ba2CuF6
_chemical_formula_sum              "Ba2 Cu1 F6"
_cell_length_a       4.08154
_cell_length_b       4.08154
_cell_length_c       8.20134
_cell_angle_alpha    104.357
_cell_angle_beta     104.357
_cell_angle_gamma    90.2014

_space_group_name_H-M_alt    "P 1"
_space_group_IT_number       1

loop_
  _space_group_symop_operation_xyz
  'x, y, z'

loop_
  _atom_site_type_symbol
  _atom_site_label
  _atom_site_symmetry_multiplicity
  _atom_site_fract_x
  _atom_site_fract_y
  _atom_site_fract_z
  _atom_site_occupancy
  Ba  Ba1       1.0  0.14700  0.14700  0.29400  1.0000
  Ba  Ba2       1.0  0.85300  0.85300  0.70600  1.0000
  Cu  Cu1       1.0  0.50000  0.50000  0.00000  1.0000
  F   F1        1.0  0.50000  0.00000  0.00000  1.0000
  F   F2        1.0  0.62400  0.62400  0.24800  1.0000
  F   F3        1.0  0.25000  0.75000  0.50000  1.0000
  F   F4        1.0  0.75000  0.25000  0.50000  1.0000
  F   F5        1.0  0.37600  0.37600  0.75200  1.0000
  F   F6        1.0  0.00000  0.50000  0.00000  1.0000
