data_image0
_chemical_formula_structural       Cs4Ge2Li4O8
_chemical_formula_sum              "Cs4 Ge2 Li4 O8"
_cell_length_a       9.58633
_cell_length_b       5.83201
_cell_length_c       5.70375
_cell_angle_alpha    92.9027
_cell_angle_beta     110.859
_cell_angle_gamma    94.1255

_space_group_name_H-M_alt    "P 1"
_space_group_IT_number       1

loop_
  _space_group_symop_operation_xyz
  'x, y, z'

loop_
  _atom_site_type_symbol
  _atom_site_label
  _atom_site_symmetry_multiplicity
  _atom_site_fract_x
  _atom_site_fract_y
  _atom_site_fract_z
  _atom_site_occupancy
  Cs  Cs1       1.0  0.71900  0.15100  0.19300  1.0000
  Cs  Cs2       1.0  0.98300  0.72800  0.19600  1.0000
  Cs  Cs3       1.0  0.01680  0.27200  0.80400  1.0000
  Cs  Cs4       1.0  0.28100  0.84900  0.80700  1.0000
  Ge  Ge1       1.0  0.28800  0.31700  0.43100  1.0000
  Ge  Ge2       1.0  0.71200  0.68300  0.56900  1.0000
  Li  Li1       1.0  0.42000  0.41200  0.11700  1.0000
  Li  Li2       1.0  0.43900  0.81700  0.37300  1.0000
  Li  Li3       1.0  0.56100  0.18300  0.62700  1.0000
  Li  Li4       1.0  0.58000  0.58800  0.88300  1.0000
  O   O1        1.0  0.59900  0.64300  0.23800  1.0000
  O   O2        1.0  0.28500  0.57200  0.26900  1.0000
  O   O3        1.0  0.39400  0.13700  0.30200  1.0000
  O   O4        1.0  0.10300  0.20200  0.37500  1.0000
  O   O5        1.0  0.89700  0.79800  0.62500  1.0000
  O   O6        1.0  0.60600  0.86300  0.69800  1.0000
  O   O7        1.0  0.71500  0.42800  0.73100  1.0000
  O   O8        1.0  0.40100  0.35700  0.76200  1.0000
