data_image0
_chemical_formula_structural       Cu4Rb4S8Sn2
_chemical_formula_sum              "Cu4 Rb4 S8 Sn2"
_cell_length_a       5.50392
_cell_length_b       9.4182
_cell_length_c       9.4182
_cell_angle_alpha    94.0174
_cell_angle_beta     106.989
_cell_angle_gamma    106.989

_space_group_name_H-M_alt    "P 1"
_space_group_IT_number       1

loop_
  _space_group_symop_operation_xyz
  'x, y, z'

loop_
  _atom_site_type_symbol
  _atom_site_label
  _atom_site_symmetry_multiplicity
  _atom_site_fract_x
  _atom_site_fract_y
  _atom_site_fract_z
  _atom_site_occupancy
  Cu  Cu1       1.0  0.27800  0.52800  0.02770  1.0000
  Cu  Cu2       1.0  0.72200  0.97200  0.47200  1.0000
  Cu  Cu3       1.0  0.27800  0.02770  0.52800  1.0000
  Cu  Cu4       1.0  0.72200  0.47200  0.97200  1.0000
  Rb  Rb1       1.0  0.39600  0.12400  0.12400  1.0000
  Rb  Rb2       1.0  0.14700  0.37600  0.37600  1.0000
  Rb  Rb3       1.0  0.85300  0.62400  0.62400  1.0000
  Rb  Rb4       1.0  0.60400  0.87600  0.87600  1.0000
  S   S1        1.0  0.09820  0.72100  0.01570  1.0000
  S   S2        1.0  0.63800  0.51600  0.22100  1.0000
  S   S3        1.0  0.90200  0.98400  0.27900  1.0000
  S   S4        1.0  0.36200  0.77900  0.48400  1.0000
  S   S5        1.0  0.63800  0.22100  0.51600  1.0000
  S   S6        1.0  0.09820  0.01570  0.72100  1.0000
  S   S7        1.0  0.36200  0.48400  0.77900  1.0000
  S   S8        1.0  0.90200  0.27900  0.98400  1.0000
  Sn  Sn1       1.0  0.00000  0.75000  0.25000  1.0000
  Sn  Sn2       1.0  0.00000  0.25000  0.75000  1.0000
