data_image0
_chemical_formula_structural       C16K2
_chemical_formula_sum              "C16 K2"
_cell_length_a       4.97016
_cell_length_b       4.97016
_cell_length_c       10.774
_cell_angle_alpha    96.6286
_cell_angle_beta     96.6286
_cell_angle_gamma    119.97

_space_group_name_H-M_alt    "P 1"
_space_group_IT_number       1

loop_
  _space_group_symop_operation_xyz
  'x, y, z'

loop_
  _atom_site_type_symbol
  _atom_site_label
  _atom_site_symmetry_multiplicity
  _atom_site_fract_x
  _atom_site_fract_y
  _atom_site_fract_z
  _atom_site_occupancy
  C   C1        1.0  0.79100  0.45700  0.24800  1.0000
  C   C2        1.0  0.45700  0.79100  0.24800  1.0000
  C   C3        1.0  0.29200  0.45900  0.25000  1.0000
  C   C4        1.0  0.95800  0.79100  0.25000  1.0000
  C   C5        1.0  0.95800  0.29100  0.25000  1.0000
  C   C6        1.0  0.29200  0.95900  0.25000  1.0000
  C   C7        1.0  0.45900  0.29300  0.25200  1.0000
  C   C8        1.0  0.79300  0.95900  0.25200  1.0000
  C   C9        1.0  0.04070  0.20700  0.74800  1.0000
  C   C10       1.0  0.70700  0.54100  0.74800  1.0000
  C   C11       1.0  0.70900  0.04190  0.75000  1.0000
  C   C12       1.0  0.04150  0.70800  0.75000  1.0000
  C   C13       1.0  0.20900  0.04190  0.75000  1.0000
  C   C14       1.0  0.54100  0.70800  0.75000  1.0000
  C   C15       1.0  0.54300  0.20900  0.75200  1.0000
  C   C16       1.0  0.20900  0.54300  0.75200  1.0000
  K   K1        1.0  0.00000  0.00000  0.00000  1.0000
  K   K2        1.0  0.25000  0.75000  0.50000  1.0000
