data_image0
_chemical_formula_structural       Ba4Bi4O10
_chemical_formula_sum              "Ba4 Bi4 O10"
_cell_length_a       7.36359
_cell_length_b       7.59774
_cell_length_c       6.03331
_cell_angle_alpha    90
_cell_angle_beta     99.6121
_cell_angle_gamma    90

_space_group_name_H-M_alt    "P 1"
_space_group_IT_number       1

loop_
  _space_group_symop_operation_xyz
  'x, y, z'

loop_
  _atom_site_type_symbol
  _atom_site_label
  _atom_site_symmetry_multiplicity
  _atom_site_fract_x
  _atom_site_fract_y
  _atom_site_fract_z
  _atom_site_occupancy
  Ba  Ba1       1.0  0.86500  0.07560  0.22700  1.0000
  Ba  Ba2       1.0  0.13500  0.57600  0.27300  1.0000
  Ba  Ba3       1.0  0.86500  0.42400  0.72700  1.0000
  Ba  Ba4       1.0  0.13500  0.92400  0.77300  1.0000
  Bi  Bi1       1.0  0.62900  0.62300  0.21800  1.0000
  Bi  Bi2       1.0  0.37100  0.12300  0.28200  1.0000
  Bi  Bi3       1.0  0.62900  0.87700  0.71800  1.0000
  Bi  Bi4       1.0  0.37100  0.37700  0.78200  1.0000
  O   O1        1.0  0.50000  0.00000  1.00000  1.0000
  O   O2        1.0  0.18100  0.25500  0.03680  1.0000
  O   O3        1.0  0.80700  0.41000  0.21900  1.0000
  O   O4        1.0  0.19300  0.91000  0.28100  1.0000
  O   O5        1.0  0.81900  0.75600  0.46300  1.0000
  O   O6        1.0  0.50000  0.50000  0.50000  1.0000
  O   O7        1.0  0.18100  0.24500  0.53700  1.0000
  O   O8        1.0  0.80700  0.08970  0.71900  1.0000
  O   O9        1.0  0.19300  0.59000  0.78100  1.0000
  O   O10       1.0  0.81900  0.74400  0.96300  1.0000
