data_image0
_chemical_formula_structural       Ba2Cu2Nd4O10
_chemical_formula_sum              "Ba2 Cu2 Nd4 O10"
_cell_length_a       6.69306
_cell_length_b       6.69306
_cell_length_c       5.82189
_cell_angle_alpha    90
_cell_angle_beta     90
_cell_angle_gamma    90

_space_group_name_H-M_alt    "P 1"
_space_group_IT_number       1

loop_
  _space_group_symop_operation_xyz
  'x, y, z'

loop_
  _atom_site_type_symbol
  _atom_site_label
  _atom_site_symmetry_multiplicity
  _atom_site_fract_x
  _atom_site_fract_y
  _atom_site_fract_z
  _atom_site_occupancy
  Ba  Ba1       1.0  0.00000  0.00000  0.00000  1.0000
  Ba  Ba2       1.0  0.50000  0.50000  0.00000  1.0000
  Cu  Cu1       1.0  0.50000  0.00000  0.00000  1.0000
  Cu  Cu2       1.0  0.00000  0.50000  0.00000  1.0000
  Nd  Nd1       1.0  0.32800  0.17200  0.50000  1.0000
  Nd  Nd2       1.0  0.82800  0.32800  0.50000  1.0000
  Nd  Nd3       1.0  0.17200  0.67200  0.50000  1.0000
  Nd  Nd4       1.0  0.67200  0.82800  0.50000  1.0000
  O   O1        1.0  0.64000  0.14000  0.24100  1.0000
  O   O2        1.0  0.14000  0.36000  0.24100  1.0000
  O   O3        1.0  0.86000  0.64000  0.24100  1.0000
  O   O4        1.0  0.36000  0.86000  0.24100  1.0000
  O   O5        1.0  0.00000  0.00000  0.50000  1.0000
  O   O6        1.0  0.50000  0.50000  0.50000  1.0000
  O   O7        1.0  0.64000  0.14000  0.75900  1.0000
  O   O8        1.0  0.14000  0.36000  0.75900  1.0000
  O   O9        1.0  0.86000  0.64000  0.75900  1.0000
  O   O10       1.0  0.36000  0.86000  0.75900  1.0000
