data_image0
_chemical_formula_structural       K8O8Pb2
_chemical_formula_sum              "K8 O8 Pb2"
_cell_length_a       6.57086
_cell_length_b       6.57812
_cell_length_c       9.82365
_cell_angle_alpha    79.3472
_cell_angle_beta     108.571
_cell_angle_gamma    112.356

_space_group_name_H-M_alt    "P 1"
_space_group_IT_number       1

loop_
  _space_group_symop_operation_xyz
  'x, y, z'

loop_
  _atom_site_type_symbol
  _atom_site_label
  _atom_site_symmetry_multiplicity
  _atom_site_fract_x
  _atom_site_fract_y
  _atom_site_fract_z
  _atom_site_occupancy
  K   K1        1.0  0.51400  0.22600  0.06440  1.0000
  K   K2        1.0  0.04050  0.72600  0.11500  1.0000
  K   K3        1.0  0.58700  0.75000  0.32600  1.0000
  K   K4        1.0  0.76100  0.25400  0.47600  1.0000
  K   K5        1.0  0.23900  0.74600  0.52400  1.0000
  K   K6        1.0  0.41300  0.25000  0.67400  1.0000
  K   K7        1.0  0.95900  0.27400  0.88500  1.0000
  K   K8        1.0  0.48600  0.77400  0.93600  1.0000
  O   O1        1.0  0.29800  0.47700  0.11500  1.0000
  O   O2        1.0  0.82800  0.01910  0.14000  1.0000
  O   O3        1.0  0.35900  0.02300  0.30700  1.0000
  O   O4        1.0  0.16000  0.37600  0.42400  1.0000
  O   O5        1.0  0.84000  0.62400  0.57600  1.0000
  O   O6        1.0  0.64100  0.97700  0.69300  1.0000
  O   O7        1.0  0.17200  0.98100  0.86000  1.0000
  O   O8        1.0  0.70200  0.52300  0.88500  1.0000
  Pb  Pb1       1.0  0.15100  0.21900  0.25600  1.0000
  Pb  Pb2       1.0  0.84900  0.78100  0.74400  1.0000
