data_image0
_chemical_formula_structural       F10K4Pd2Rb2
_chemical_formula_sum              "F10 K4 Pd2 Rb2"
_cell_length_a       6.97334
_cell_length_b       6.97334
_cell_length_c       6.14447
_cell_angle_alpha    90
_cell_angle_beta     90
_cell_angle_gamma    90

_space_group_name_H-M_alt    "P 1"
_space_group_IT_number       1

loop_
  _space_group_symop_operation_xyz
  'x, y, z'

loop_
  _atom_site_type_symbol
  _atom_site_label
  _atom_site_symmetry_multiplicity
  _atom_site_fract_x
  _atom_site_fract_y
  _atom_site_fract_z
  _atom_site_occupancy
  F   F1        1.0  0.64300  0.14300  0.22400  1.0000
  F   F2        1.0  0.14300  0.35700  0.22400  1.0000
  F   F3        1.0  0.85700  0.64300  0.22400  1.0000
  F   F4        1.0  0.35700  0.85700  0.22400  1.0000
  F   F5        1.0  0.00000  0.00000  0.50000  1.0000
  F   F6        1.0  0.50000  0.50000  0.50000  1.0000
  F   F7        1.0  0.64300  0.14300  0.77600  1.0000
  F   F8        1.0  0.14300  0.35700  0.77600  1.0000
  F   F9        1.0  0.85700  0.64300  0.77600  1.0000
  F   F10       1.0  0.35700  0.85700  0.77600  1.0000
  K   K1        1.0  0.33200  0.16800  0.50000  1.0000
  K   K2        1.0  0.83200  0.33200  0.50000  1.0000
  K   K3        1.0  0.16800  0.66800  0.50000  1.0000
  K   K4        1.0  0.66800  0.83200  0.50000  1.0000
  Pd  Pd1       1.0  0.50000  0.00000  0.00000  1.0000
  Pd  Pd2       1.0  0.00000  0.50000  0.00000  1.0000
  Rb  Rb1       1.0  0.00000  0.00000  0.00000  1.0000
  Rb  Rb2       1.0  0.50000  0.50000  0.00000  1.0000
