data_image0
_chemical_formula_structural       Al3Cs2F12Na
_chemical_formula_sum              "Al3 Cs2 F12 Na1"
_cell_length_a       7.04307
_cell_length_b       7.04307
_cell_length_c       7.04307
_cell_angle_alpha    58.9813
_cell_angle_beta     58.9813
_cell_angle_gamma    58.9813

_space_group_name_H-M_alt    "P 1"
_space_group_IT_number       1

loop_
  _space_group_symop_operation_xyz
  'x, y, z'

loop_
  _atom_site_type_symbol
  _atom_site_label
  _atom_site_symmetry_multiplicity
  _atom_site_fract_x
  _atom_site_fract_y
  _atom_site_fract_z
  _atom_site_occupancy
  Al  Al1       1.0  0.00000  0.00000  0.50000  1.0000
  Al  Al2       1.0  0.50000  1.00000  0.00000  1.0000
  Al  Al3       1.0  0.00000  0.50000  0.00000  1.0000
  Cs  Cs1       1.0  0.38100  0.38100  0.38100  1.0000
  Cs  Cs2       1.0  0.61900  0.61900  0.61900  1.0000
  F   F1        1.0  0.70100  0.70100  0.08250  1.0000
  F   F2        1.0  0.09280  0.61800  0.09280  1.0000
  F   F3        1.0  0.61800  0.09280  0.09280  1.0000
  F   F4        1.0  0.29900  0.91800  0.29900  1.0000
  F   F5        1.0  0.91800  0.29900  0.29900  1.0000
  F   F6        1.0  0.90700  0.90700  0.38200  1.0000
  F   F7        1.0  0.09280  0.09280  0.61800  1.0000
  F   F8        1.0  0.08250  0.70100  0.70100  1.0000
  F   F9        1.0  0.70100  0.08250  0.70100  1.0000
  F   F10       1.0  0.38200  0.90700  0.90700  1.0000
  F   F11       1.0  0.90700  0.38200  0.90700  1.0000
  F   F12       1.0  0.29900  0.29900  0.91800  1.0000
  Na  Na1       1.0  0.00000  0.00000  0.00000  1.0000
