data_image0
_chemical_formula_structural       Ga4O12Te2
_chemical_formula_sum              "Ga4 O12 Te2"
_cell_length_a       4.56207
_cell_length_b       4.56207
_cell_length_c       9.04154
_cell_angle_alpha    90
_cell_angle_beta     90
_cell_angle_gamma    90

_space_group_name_H-M_alt    "P 1"
_space_group_IT_number       1

loop_
  _space_group_symop_operation_xyz
  'x, y, z'

loop_
  _atom_site_type_symbol
  _atom_site_label
  _atom_site_symmetry_multiplicity
  _atom_site_fract_x
  _atom_site_fract_y
  _atom_site_fract_z
  _atom_site_occupancy
  Ga  Ga1       1.0  0.50000  0.50000  0.16600  1.0000
  Ga  Ga2       1.0  0.00000  0.00000  0.33400  1.0000
  Ga  Ga3       1.0  0.00000  0.00000  0.66600  1.0000
  Ga  Ga4       1.0  0.50000  0.50000  0.83400  1.0000
  O   O1        1.0  0.69800  0.30200  0.00000  1.0000
  O   O2        1.0  0.30200  0.69800  0.00000  1.0000
  O   O3        1.0  0.19400  0.19400  0.16400  1.0000
  O   O4        1.0  0.80600  0.80600  0.16400  1.0000
  O   O5        1.0  0.69400  0.30600  0.33600  1.0000
  O   O6        1.0  0.30600  0.69400  0.33600  1.0000
  O   O7        1.0  0.19800  0.19800  0.50000  1.0000
  O   O8        1.0  0.80200  0.80200  0.50000  1.0000
  O   O9        1.0  0.69400  0.30600  0.66400  1.0000
  O   O10       1.0  0.30600  0.69400  0.66400  1.0000
  O   O11       1.0  0.19400  0.19400  0.83600  1.0000
  O   O12       1.0  0.80600  0.80600  0.83600  1.0000
  Te  Te1       1.0  0.00000  0.00000  0.00000  1.0000
  Te  Te2       1.0  0.50000  0.50000  0.50000  1.0000
