data_image0
_chemical_formula_structural       Cl14Fe2Se2
_chemical_formula_sum              "Cl14 Fe2 Se2"
_cell_length_a       6.39392
_cell_length_b       8.22782
_cell_length_c       9.84615
_cell_angle_alpha    85.6387
_cell_angle_beta     102.814
_cell_angle_gamma    96.594

_space_group_name_H-M_alt    "P 1"
_space_group_IT_number       1

loop_
  _space_group_symop_operation_xyz
  'x, y, z'

loop_
  _atom_site_type_symbol
  _atom_site_label
  _atom_site_symmetry_multiplicity
  _atom_site_fract_x
  _atom_site_fract_y
  _atom_site_fract_z
  _atom_site_occupancy
  Cl  Cl1       1.0  0.67900  0.37600  0.00051  1.0000
  Cl  Cl2       1.0  0.41700  0.96200  0.05960  1.0000
  Cl  Cl3       1.0  0.18000  0.52800  0.12300  1.0000
  Cl  Cl4       1.0  0.98200  0.05920  0.24300  1.0000
  Cl  Cl5       1.0  0.70400  0.64700  0.29600  1.0000
  Cl  Cl6       1.0  0.53600  0.23100  0.34900  1.0000
  Cl  Cl7       1.0  0.31900  0.82300  0.43600  1.0000
  Cl  Cl8       1.0  0.09220  0.38100  0.48300  1.0000
  Cl  Cl9       1.0  0.93000  0.95100  0.56500  1.0000
  Cl  Cl10      1.0  0.68100  0.50600  0.64100  1.0000
  Cl  Cl11      1.0  0.47700  0.08330  0.71600  1.0000
  Cl  Cl12      1.0  0.28200  0.66200  0.79200  1.0000
  Cl  Cl13      1.0  0.07420  0.26400  0.87600  1.0000
  Cl  Cl14      1.0  0.83800  0.81800  0.92900  1.0000
  Fe  Fe1       1.0  0.75300  0.44100  0.44400  1.0000
  Fe  Fe2       1.0  0.49800  0.87800  0.87800  1.0000
  Se  Se1       1.0  0.18200  0.04990  0.45400  1.0000
  Se  Se2       1.0  0.95900  0.49000  0.92100  1.0000
