data_image0
_chemical_formula_structural       Au3C6K3N6
_chemical_formula_sum              "Au3 C6 K3 N6"
_cell_length_a       7.17053
_cell_length_b       7.17053
_cell_length_c       9.77013
_cell_angle_alpha    90
_cell_angle_beta     111.528
_cell_angle_gamma    120

_space_group_name_H-M_alt    "P 1"
_space_group_IT_number       1

loop_
  _space_group_symop_operation_xyz
  'x, y, z'

loop_
  _atom_site_type_symbol
  _atom_site_label
  _atom_site_symmetry_multiplicity
  _atom_site_fract_x
  _atom_site_fract_y
  _atom_site_fract_z
  _atom_site_occupancy
  Au  Au1       1.0  0.50000  0.00000  0.50000  1.0000
  Au  Au2       1.0  0.00000  1.00000  0.50000  1.0000
  Au  Au3       1.0  0.50000  0.50000  0.50000  1.0000
  C   C1        1.0  0.46100  0.02300  0.29000  1.0000
  C   C2        1.0  0.26700  0.43800  0.29000  1.0000
  C   C3        1.0  0.85200  0.82900  0.29000  1.0000
  C   C4        1.0  0.14800  0.17100  0.71000  1.0000
  C   C5        1.0  0.73300  0.56200  0.71000  1.0000
  C   C6        1.0  0.53900  0.97700  0.71000  1.0000
  K   K1        1.0  0.00000  0.00000  0.00000  1.0000
  K   K2        1.0  0.68800  0.34400  0.03190  1.0000
  K   K3        1.0  0.31200  0.65600  0.96800  1.0000
  N   N1        1.0  0.43100  0.03220  0.16400  1.0000
  N   N2        1.0  0.13200  0.39800  0.16400  1.0000
  N   N3        1.0  0.76600  0.73400  0.16400  1.0000
  N   N4        1.0  0.23400  0.26600  0.83600  1.0000
  N   N5        1.0  0.86800  0.60200  0.83600  1.0000
  N   N6        1.0  0.56900  0.96800  0.83600  1.0000
