data_image0
_chemical_formula_structural       BrCl14P3
_chemical_formula_sum              "Br1 Cl14 P3"
_cell_length_a       8.75163
_cell_length_b       8.75163
_cell_length_c       8.75163
_cell_angle_alpha    90.3262
_cell_angle_beta     119.812
_cell_angle_gamma    119.812

_space_group_name_H-M_alt    "P 1"
_space_group_IT_number       1

loop_
  _space_group_symop_operation_xyz
  'x, y, z'

loop_
  _atom_site_type_symbol
  _atom_site_label
  _atom_site_symmetry_multiplicity
  _atom_site_fract_x
  _atom_site_fract_y
  _atom_site_fract_z
  _atom_site_occupancy
  Br  Br1       1.0  1.00000  1.00000  1.00000  1.0000
  Cl  Cl1       1.0  0.64100  0.83800  0.12000  1.0000
  Cl  Cl2       1.0  0.28200  0.80500  0.16300  1.0000
  Cl  Cl3       1.0  0.35900  0.48000  0.19800  1.0000
  Cl  Cl4       1.0  0.89700  0.61900  0.28500  1.0000
  Cl  Cl5       1.0  1.00000  0.32900  0.32900  1.0000
  Cl  Cl6       1.0  0.66600  0.28500  0.38800  1.0000
  Cl  Cl7       1.0  0.28200  0.12000  0.48000  1.0000
  Cl  Cl8       1.0  0.71800  0.88100  0.52200  1.0000
  Cl  Cl9       1.0  0.33400  0.72200  0.61900  1.0000
  Cl  Cl10      1.0  1.00000  0.67800  0.67800  1.0000
  Cl  Cl11      1.0  0.10300  0.38800  0.72200  1.0000
  Cl  Cl12      1.0  0.64200  0.52200  0.80500  1.0000
  Cl  Cl13      1.0  0.71800  0.19800  0.83800  1.0000
  Cl  Cl14      1.0  0.35800  0.16300  0.88100  1.0000
  P   P1        1.0  0.50000  0.75100  0.25100  1.0000
  P   P2        1.0  0.00000  0.50400  0.50400  1.0000
  P   P3        1.0  0.50000  0.25100  0.75100  1.0000
