data_image0
_chemical_formula_structural       Al2Ba4Nd2O10
_chemical_formula_sum              "Al2 Ba4 Nd2 O10"
_cell_length_a       7.31767
_cell_length_b       7.53206
_cell_length_c       6.13394
_cell_angle_alpha    90
_cell_angle_beta     90
_cell_angle_gamma    118.072

_space_group_name_H-M_alt    "P 1"
_space_group_IT_number       1

loop_
  _space_group_symop_operation_xyz
  'x, y, z'

loop_
  _atom_site_type_symbol
  _atom_site_label
  _atom_site_symmetry_multiplicity
  _atom_site_fract_x
  _atom_site_fract_y
  _atom_site_fract_z
  _atom_site_occupancy
  Al  Al1       1.0  0.16600  0.83700  0.22700  1.0000
  Al  Al2       1.0  0.83400  0.16300  0.72700  1.0000
  Ba  Ba1       1.0  0.13500  0.40400  0.23800  1.0000
  Ba  Ba2       1.0  0.70500  0.86100  0.24100  1.0000
  Ba  Ba3       1.0  0.86500  0.59600  0.73800  1.0000
  Ba  Ba4       1.0  0.29500  0.13900  0.74100  1.0000
  Nd  Nd1       1.0  0.58900  0.32600  0.23900  1.0000
  Nd  Nd2       1.0  0.41100  0.67400  0.73900  1.0000
  O   O1        1.0  0.50200  0.51400  0.00403  1.0000
  O   O2        1.0  0.20600  0.08730  0.25000  1.0000
  O   O3        1.0  0.90500  0.64500  0.26200  1.0000
  O   O4        1.0  0.31200  0.78800  0.42800  1.0000
  O   O5        1.0  0.76400  0.20500  0.46400  1.0000
  O   O6        1.0  0.49800  0.48600  0.50400  1.0000
  O   O7        1.0  0.79400  0.91300  0.75000  1.0000
  O   O8        1.0  0.09480  0.35500  0.76200  1.0000
  O   O9        1.0  0.68800  0.21200  0.92800  1.0000
  O   O10       1.0  0.23600  0.79500  0.96400  1.0000
