data_image0
_chemical_formula_structural       Cd6Cs4Te8
_chemical_formula_sum              "Cd6 Cs4 Te8"
_cell_length_a       6.78927
_cell_length_b       10.7527
_cell_length_c       10.7527
_cell_angle_alpha    92.3918
_cell_angle_beta     108.403
_cell_angle_gamma    108.403

_space_group_name_H-M_alt    "P 1"
_space_group_IT_number       1

loop_
  _space_group_symop_operation_xyz
  'x, y, z'

loop_
  _atom_site_type_symbol
  _atom_site_label
  _atom_site_symmetry_multiplicity
  _atom_site_fract_x
  _atom_site_fract_y
  _atom_site_fract_z
  _atom_site_occupancy
  Cd  Cd1       1.0  0.27200  0.52200  0.02190  1.0000
  Cd  Cd2       1.0  0.00000  0.75000  0.25000  1.0000
  Cd  Cd3       1.0  0.72800  0.97800  0.47800  1.0000
  Cd  Cd4       1.0  0.27200  0.02190  0.52200  1.0000
  Cd  Cd5       1.0  0.00000  0.25000  0.75000  1.0000
  Cd  Cd6       1.0  0.72800  0.47800  0.97800  1.0000
  Cs  Cs1       1.0  0.85400  0.12200  0.12200  1.0000
  Cs  Cs2       1.0  0.60900  0.37800  0.37800  1.0000
  Cs  Cs3       1.0  0.39100  0.62200  0.62200  1.0000
  Cs  Cs4       1.0  0.14600  0.87800  0.87800  1.0000
  Te  Te1       1.0  0.64300  0.73000  0.00972  1.0000
  Te  Te2       1.0  0.09610  0.51000  0.23000  1.0000
  Te  Te3       1.0  0.35700  0.99000  0.27000  1.0000
  Te  Te4       1.0  0.90400  0.77000  0.49000  1.0000
  Te  Te5       1.0  0.09610  0.23000  0.51000  1.0000
  Te  Te6       1.0  0.64300  0.00972  0.73000  1.0000
  Te  Te7       1.0  0.90400  0.49000  0.77000  1.0000
  Te  Te8       1.0  0.35700  0.27000  0.99000  1.0000
