data_image0
_chemical_formula_structural       Cs2Cu10S6
_chemical_formula_sum              "Cs2 Cu10 S6"
_cell_length_a       3.92351
_cell_length_b       8.97893
_cell_length_c       9.61149
_cell_angle_alpha    90
_cell_angle_beta     90
_cell_angle_gamma    90

_space_group_name_H-M_alt    "P 1"
_space_group_IT_number       1

loop_
  _space_group_symop_operation_xyz
  'x, y, z'

loop_
  _atom_site_type_symbol
  _atom_site_label
  _atom_site_symmetry_multiplicity
  _atom_site_fract_x
  _atom_site_fract_y
  _atom_site_fract_z
  _atom_site_occupancy
  Cs  Cs1       1.0  0.00000  0.05880  0.25000  1.0000
  Cs  Cs2       1.0  0.00000  0.94100  0.75000  1.0000
  Cu  Cu1       1.0  0.00000  0.64000  0.07810  1.0000
  Cu  Cu2       1.0  0.50000  0.42300  0.11300  1.0000
  Cu  Cu3       1.0  0.50000  0.71400  0.25000  1.0000
  Cu  Cu4       1.0  0.50000  0.42300  0.38700  1.0000
  Cu  Cu5       1.0  0.00000  0.64000  0.42200  1.0000
  Cu  Cu6       1.0  0.00000  0.36000  0.57800  1.0000
  Cu  Cu7       1.0  0.50000  0.57700  0.61300  1.0000
  Cu  Cu8       1.0  0.50000  0.28600  0.75000  1.0000
  Cu  Cu9       1.0  0.50000  0.57700  0.88700  1.0000
  Cu  Cu10      1.0  0.00000  0.36000  0.92200  1.0000
  S   S1        1.0  0.50000  0.78100  0.02800  1.0000
  S   S2        1.0  0.00000  0.45700  0.25000  1.0000
  S   S3        1.0  0.50000  0.78100  0.47200  1.0000
  S   S4        1.0  0.50000  0.21900  0.52800  1.0000
  S   S5        1.0  0.00000  0.54300  0.75000  1.0000
  S   S6        1.0  0.50000  0.21900  0.97200  1.0000
