data_image0
_chemical_formula_structural       Cr6S10Tl2
_chemical_formula_sum              "Cr6 S10 Tl2"
_cell_length_a       3.50145
_cell_length_b       9.88644
_cell_length_c       10.8529
_cell_angle_alpha    105.497
_cell_angle_beta     99.2832
_cell_angle_gamma    100.2

_space_group_name_H-M_alt    "P 1"
_space_group_IT_number       1

loop_
  _space_group_symop_operation_xyz
  'x, y, z'

loop_
  _atom_site_type_symbol
  _atom_site_label
  _atom_site_symmetry_multiplicity
  _atom_site_fract_x
  _atom_site_fract_y
  _atom_site_fract_z
  _atom_site_occupancy
  Cr  Cr1       1.0  0.50000  0.00000  0.00000  1.0000
  Cr  Cr2       1.0  0.24400  0.26200  0.22600  1.0000
  Cr  Cr3       1.0  0.22500  0.06100  0.38900  1.0000
  Cr  Cr4       1.0  0.00000  0.50000  0.50000  1.0000
  Cr  Cr5       1.0  0.77500  0.93900  0.61100  1.0000
  Cr  Cr6       1.0  0.75600  0.73800  0.77400  1.0000
  S   S1        1.0  0.67200  0.26200  0.08080  1.0000
  S   S2        1.0  0.07660  0.00147  0.15200  1.0000
  S   S3        1.0  0.42900  0.50900  0.34800  1.0000
  S   S4        1.0  0.63800  0.89500  0.38200  1.0000
  S   S5        1.0  0.81700  0.24200  0.39300  1.0000
  S   S6        1.0  0.18300  0.75800  0.60700  1.0000
  S   S7        1.0  0.36200  0.10500  0.61800  1.0000
  S   S8        1.0  0.57100  0.49100  0.65200  1.0000
  S   S9        1.0  0.92300  0.99900  0.84800  1.0000
  S   S10       1.0  0.32800  0.73800  0.91900  1.0000
  Tl  Tl1       1.0  0.91600  0.65400  0.17800  1.0000
  Tl  Tl2       1.0  0.08400  0.34600  0.82200  1.0000
