data_image0
_chemical_formula_structural       I2O12Rb2Sn2
_chemical_formula_sum              "I2 O12 Rb2 Sn2"
_cell_length_a       5.31377
_cell_length_b       5.31377
_cell_length_c       12.2253
_cell_angle_alpha    89.9995
_cell_angle_beta     90.0005
_cell_angle_gamma    120

_space_group_name_H-M_alt    "P 1"
_space_group_IT_number       1

loop_
  _space_group_symop_operation_xyz
  'x, y, z'

loop_
  _atom_site_type_symbol
  _atom_site_label
  _atom_site_symmetry_multiplicity
  _atom_site_fract_x
  _atom_site_fract_y
  _atom_site_fract_z
  _atom_site_occupancy
  I   I1        1.0  0.33300  0.66700  0.25000  1.0000
  I   I2        1.0  0.66700  0.33300  0.75000  1.0000
  O   O1        1.0  0.60600  0.97500  0.15900  1.0000
  O   O2        1.0  0.36900  0.39400  0.15900  1.0000
  O   O3        1.0  0.02510  0.63100  0.15900  1.0000
  O   O4        1.0  0.36900  0.97500  0.34100  1.0000
  O   O5        1.0  0.02510  0.39400  0.34100  1.0000
  O   O6        1.0  0.60600  0.63100  0.34100  1.0000
  O   O7        1.0  0.63100  0.60600  0.65900  1.0000
  O   O8        1.0  0.39400  0.02510  0.65900  1.0000
  O   O9        1.0  0.97500  0.36900  0.65900  1.0000
  O   O10       1.0  0.63100  0.02510  0.84100  1.0000
  O   O11       1.0  0.39400  0.36900  0.84100  1.0000
  O   O12       1.0  0.97500  0.60600  0.84100  1.0000
  Rb  Rb1       1.0  1.00000  1.00000  1.00000  1.0000
  Rb  Rb2       1.0  1.00000  1.00000  0.50000  1.0000
  Sn  Sn1       1.0  0.66700  0.33300  0.25000  1.0000
  Sn  Sn2       1.0  0.33300  0.66700  0.75000  1.0000
