data_image0
_chemical_formula_structural       Cu4O10Sr4
_chemical_formula_sum              "Cu4 O10 Sr4"
_cell_length_a       5.44532
_cell_length_b       10.8107
_cell_length_c       3.72851
_cell_angle_alpha    90
_cell_angle_beta     90
_cell_angle_gamma    90

_space_group_name_H-M_alt    "P 1"
_space_group_IT_number       1

loop_
  _space_group_symop_operation_xyz
  'x, y, z'

loop_
  _atom_site_type_symbol
  _atom_site_label
  _atom_site_symmetry_multiplicity
  _atom_site_fract_x
  _atom_site_fract_y
  _atom_site_fract_z
  _atom_site_occupancy
  Cu  Cu1       1.0  0.26400  0.11800  0.00000  1.0000
  Cu  Cu2       1.0  0.76400  0.38200  0.00000  1.0000
  Cu  Cu3       1.0  0.23600  0.61800  0.00000  1.0000
  Cu  Cu4       1.0  0.73600  0.88200  0.00000  1.0000
  O   O1        1.0  0.00000  0.00000  0.00000  1.0000
  O   O2        1.0  0.52000  0.22500  0.00000  1.0000
  O   O3        1.0  0.02030  0.27500  0.00000  1.0000
  O   O4        1.0  0.50000  0.50000  0.00000  1.0000
  O   O5        1.0  0.98000  0.72500  0.00000  1.0000
  O   O6        1.0  0.48000  0.77500  0.00000  1.0000
  O   O7        1.0  0.28700  0.09650  0.50000  1.0000
  O   O8        1.0  0.78700  0.40400  0.50000  1.0000
  O   O9        1.0  0.21300  0.59600  0.50000  1.0000
  O   O10       1.0  0.71300  0.90400  0.50000  1.0000
  Sr  Sr1       1.0  0.79100  0.13800  0.50000  1.0000
  Sr  Sr2       1.0  0.29100  0.36200  0.50000  1.0000
  Sr  Sr3       1.0  0.70900  0.63800  0.50000  1.0000
  Sr  Sr4       1.0  0.20900  0.86200  0.50000  1.0000
