data_image0
_chemical_formula_structural       B2Ba2Cu2Nd2O10
_chemical_formula_sum              "B2 Ba2 Cu2 Nd2 O10"
_cell_length_a       5.51147
_cell_length_b       5.51147
_cell_length_c       7.4572
_cell_angle_alpha    90
_cell_angle_beta     90
_cell_angle_gamma    90

_space_group_name_H-M_alt    "P 1"
_space_group_IT_number       1

loop_
  _space_group_symop_operation_xyz
  'x, y, z'

loop_
  _atom_site_type_symbol
  _atom_site_label
  _atom_site_symmetry_multiplicity
  _atom_site_fract_x
  _atom_site_fract_y
  _atom_site_fract_z
  _atom_site_occupancy
  B   B1        1.0  0.50000  0.00000  0.26800  1.0000
  B   B2        1.0  0.00000  0.50000  0.26800  1.0000
  Ba  Ba1       1.0  0.00000  0.00000  0.50700  1.0000
  Ba  Ba2       1.0  0.50000  0.50000  0.50700  1.0000
  Cu  Cu1       1.0  0.50000  0.00000  0.77700  1.0000
  Cu  Cu2       1.0  0.00000  0.50000  0.77700  1.0000
  Nd  Nd1       1.0  0.00000  0.00000  0.00211  1.0000
  Nd  Nd2       1.0  0.50000  0.50000  0.00211  1.0000
  O   O1        1.0  0.34300  0.15700  0.18000  1.0000
  O   O2        1.0  0.84300  0.34300  0.18000  1.0000
  O   O3        1.0  0.15700  0.65700  0.18000  1.0000
  O   O4        1.0  0.65700  0.84300  0.18000  1.0000
  O   O5        1.0  0.50000  0.00000  0.45500  1.0000
  O   O6        1.0  0.00000  0.50000  0.45500  1.0000
  O   O7        1.0  0.74700  0.24700  0.79600  1.0000
  O   O8        1.0  0.24700  0.25300  0.79600  1.0000
  O   O9        1.0  0.75300  0.74700  0.79600  1.0000
  O   O10       1.0  0.25300  0.75300  0.79600  1.0000
