data_image0
_chemical_formula_structural       Ni14Zr4
_chemical_formula_sum              "Ni14 Zr4"
_cell_length_a       4.67928
_cell_length_b       4.72113
_cell_length_c       12.13
_cell_angle_alpha    92.7961
_cell_angle_beta     95.6492
_cell_angle_gamma    60.2928

_space_group_name_H-M_alt    "P 1"
_space_group_IT_number       1

loop_
  _space_group_symop_operation_xyz
  'x, y, z'

loop_
  _atom_site_type_symbol
  _atom_site_label
  _atom_site_symmetry_multiplicity
  _atom_site_fract_x
  _atom_site_fract_y
  _atom_site_fract_z
  _atom_site_occupancy
  Ni  Ni1       1.0  0.38200  0.67100  0.07820  1.0000
  Ni  Ni2       1.0  0.05250  0.32900  0.07820  1.0000
  Ni  Ni3       1.0  0.27000  0.49500  0.25000  1.0000
  Ni  Ni4       1.0  0.76500  0.50500  0.25000  1.0000
  Ni  Ni5       1.0  0.26100  0.00000  0.25000  1.0000
  Ni  Ni6       1.0  0.13900  0.33300  0.42200  1.0000
  Ni  Ni7       1.0  0.47200  0.66700  0.42200  1.0000
  Ni  Ni8       1.0  0.86100  0.66700  0.57800  1.0000
  Ni  Ni9       1.0  0.52800  0.33300  0.57800  1.0000
  Ni  Ni10      1.0  0.73900  0.00000  0.75000  1.0000
  Ni  Ni11      1.0  0.73000  0.50500  0.75000  1.0000
  Ni  Ni12      1.0  0.23500  0.49500  0.75000  1.0000
  Ni  Ni13      1.0  0.61800  0.32900  0.92200  1.0000
  Ni  Ni14      1.0  0.94700  0.67100  0.92200  1.0000
  Zr  Zr1       1.0  0.73300  0.00000  0.11300  1.0000
  Zr  Zr2       1.0  0.79100  0.00000  0.38500  1.0000
  Zr  Zr3       1.0  0.20900  0.00000  0.61500  1.0000
  Zr  Zr4       1.0  0.26700  0.00000  0.88700  1.0000
