data_image0
_chemical_formula_structural       Mn6Rb4Se8
_chemical_formula_sum              "Mn6 Rb4 Se8"
_cell_length_a       6.18109
_cell_length_b       9.7562
_cell_length_c       9.7562
_cell_angle_alpha    93.2102
_cell_angle_beta     108.468
_cell_angle_gamma    108.468

_space_group_name_H-M_alt    "P 1"
_space_group_IT_number       1

loop_
  _space_group_symop_operation_xyz
  'x, y, z'

loop_
  _atom_site_type_symbol
  _atom_site_label
  _atom_site_symmetry_multiplicity
  _atom_site_fract_x
  _atom_site_fract_y
  _atom_site_fract_z
  _atom_site_occupancy
  Mn  Mn1       1.0  0.77000  0.52000  0.02050  1.0000
  Mn  Mn2       1.0  0.50000  0.75000  0.25000  1.0000
  Mn  Mn3       1.0  0.23000  0.98000  0.48000  1.0000
  Mn  Mn4       1.0  0.77000  0.02050  0.52000  1.0000
  Mn  Mn5       1.0  0.50000  0.25000  0.75000  1.0000
  Mn  Mn6       1.0  0.23000  0.48000  0.98000  1.0000
  Rb  Rb1       1.0  0.88700  0.12200  0.12200  1.0000
  Rb  Rb2       1.0  0.64300  0.37800  0.37800  1.0000
  Rb  Rb3       1.0  0.35700  0.62200  0.62200  1.0000
  Rb  Rb4       1.0  0.11300  0.87800  0.87800  1.0000
  Se  Se1       1.0  0.59100  0.72200  0.01360  1.0000
  Se  Se2       1.0  0.14500  0.51400  0.22200  1.0000
  Se  Se3       1.0  0.40900  0.98600  0.27800  1.0000
  Se  Se4       1.0  0.85500  0.77800  0.48600  1.0000
  Se  Se5       1.0  0.14500  0.22200  0.51400  1.0000
  Se  Se6       1.0  0.59100  0.01360  0.72200  1.0000
  Se  Se7       1.0  0.85500  0.48600  0.77800  1.0000
  Se  Se8       1.0  0.40900  0.27800  0.98600  1.0000
