data_image0
_chemical_formula_structural       Cl14Fe2Te2
_chemical_formula_sum              "Cl14 Fe2 Te2"
_cell_length_a       6.5665
_cell_length_b       8.42363
_cell_length_c       10.0056
_cell_angle_alpha    85.8464
_cell_angle_beta     102.848
_cell_angle_gamma    97.2106

_space_group_name_H-M_alt    "P 1"
_space_group_IT_number       1

loop_
  _space_group_symop_operation_xyz
  'x, y, z'

loop_
  _atom_site_type_symbol
  _atom_site_label
  _atom_site_symmetry_multiplicity
  _atom_site_fract_x
  _atom_site_fract_y
  _atom_site_fract_z
  _atom_site_occupancy
  Cl  Cl1       1.0  0.40700  0.95500  0.05480  1.0000
  Cl  Cl2       1.0  0.17300  0.53600  0.12200  1.0000
  Cl  Cl3       1.0  0.98500  0.07980  0.23400  1.0000
  Cl  Cl4       1.0  0.71300  0.65700  0.29400  1.0000
  Cl  Cl5       1.0  0.54300  0.24200  0.33500  1.0000
  Cl  Cl6       1.0  0.32400  0.83300  0.42900  1.0000
  Cl  Cl7       1.0  0.08260  0.40000  0.48100  1.0000
  Cl  Cl8       1.0  0.93000  0.96200  0.56600  1.0000
  Cl  Cl9       1.0  0.65900  0.49900  0.62700  1.0000
  Cl  Cl10      1.0  0.48900  0.08400  0.72300  1.0000
  Cl  Cl11      1.0  0.29200  0.66800  0.78500  1.0000
  Cl  Cl12      1.0  0.06570  0.26100  0.86800  1.0000
  Cl  Cl13      1.0  0.83000  0.82400  0.93400  1.0000
  Cl  Cl14      1.0  0.66100  0.38000  0.99400  1.0000
  Fe  Fe1       1.0  0.75000  0.45100  0.43300  1.0000
  Fe  Fe2       1.0  0.49700  0.87900  0.87800  1.0000
  Te  Te1       1.0  0.19800  0.07500  0.45500  1.0000
  Te  Te2       1.0  0.94800  0.50400  0.90600  1.0000
