data_image0
_chemical_formula_structural       O12Se4Sn2
_chemical_formula_sum              "O12 Se4 Sn2"
_cell_length_a       4.76125
_cell_length_b       8.55813
_cell_length_c       6.82931
_cell_angle_alpha    90
_cell_angle_beta     110.072
_cell_angle_gamma    90

_space_group_name_H-M_alt    "P 1"
_space_group_IT_number       1

loop_
  _space_group_symop_operation_xyz
  'x, y, z'

loop_
  _atom_site_type_symbol
  _atom_site_label
  _atom_site_symmetry_multiplicity
  _atom_site_fract_x
  _atom_site_fract_y
  _atom_site_fract_z
  _atom_site_occupancy
  O   O1        1.0  0.84900  0.15600  0.07920  1.0000
  O   O2        1.0  0.78100  0.84300  0.19900  1.0000
  O   O3        1.0  0.58000  0.55500  0.22700  1.0000
  O   O4        1.0  0.42000  0.05520  0.27300  1.0000
  O   O5        1.0  0.21900  0.34300  0.30100  1.0000
  O   O6        1.0  0.15100  0.65600  0.42100  1.0000
  O   O7        1.0  0.84900  0.34400  0.57900  1.0000
  O   O8        1.0  0.78100  0.65700  0.69900  1.0000
  O   O9        1.0  0.58000  0.94500  0.72700  1.0000
  O   O10       1.0  0.42000  0.44500  0.77300  1.0000
  O   O11       1.0  0.21900  0.15700  0.80100  1.0000
  O   O12       1.0  0.15100  0.84400  0.92100  1.0000
  Se  Se1       1.0  0.87000  0.64900  0.17800  1.0000
  Se  Se2       1.0  0.13000  0.14900  0.32200  1.0000
  Se  Se3       1.0  0.87000  0.85100  0.67800  1.0000
  Se  Se4       1.0  0.13000  0.35100  0.82200  1.0000
  Sn  Sn1       1.0  0.50000  0.00000  0.00000  1.0000
  Sn  Sn2       1.0  0.50000  0.50000  0.50000  1.0000
