data_image0
_chemical_formula_structural       B3Ca4GdO10
_chemical_formula_sum              "B3 Ca4 Gd1 O10"
_cell_length_a       3.52889
_cell_length_b       8.05366
_cell_length_c       8.92227
_cell_angle_alpha    63.1714
_cell_angle_beta     95.0174
_cell_angle_gamma    101.174

_space_group_name_H-M_alt    "P 1"
_space_group_IT_number       1

loop_
  _space_group_symop_operation_xyz
  'x, y, z'

loop_
  _atom_site_type_symbol
  _atom_site_label
  _atom_site_symmetry_multiplicity
  _atom_site_fract_x
  _atom_site_fract_y
  _atom_site_fract_z
  _atom_site_occupancy
  B   B1        1.0  0.70200  0.37500  0.00000  1.0000
  B   B2        1.0  0.08140  0.75500  0.38900  1.0000
  B   B3        1.0  0.08130  0.14400  0.61100  1.0000
  Ca  Ca1       1.0  0.32700  0.52900  0.22500  1.0000
  Ca  Ca2       1.0  0.65300  0.08070  0.36400  1.0000
  Ca  Ca3       1.0  0.65300  0.44400  0.63600  1.0000
  Ca  Ca4       1.0  0.32700  0.75400  0.77500  1.0000
  Gd  Gd1       1.0  0.00028  0.00028  0.00000  1.0000
  O   O1        1.0  0.60600  0.20000  0.00000  1.0000
  O   O2        1.0  0.42200  0.82600  0.00000  1.0000
  O   O3        1.0  0.74900  0.38700  0.15000  1.0000
  O   O4        1.0  0.07760  0.94500  0.28400  1.0000
  O   O5        1.0  0.88300  0.61900  0.34400  1.0000
  O   O6        1.0  0.28000  0.23800  0.46100  1.0000
  O   O7        1.0  0.28000  0.70000  0.53900  1.0000
  O   O8        1.0  0.88300  0.96300  0.65600  1.0000
  O   O9        1.0  0.07760  0.23000  0.71600  1.0000
  O   O10       1.0  0.74900  0.53700  0.85000  1.0000
