data_image0
_chemical_formula_structural       Br2Nd2O10Te4
_chemical_formula_sum              "Br2 Nd2 O10 Te4"
_cell_length_a       5.43956
_cell_length_b       5.43956
_cell_length_c       9.84228
_cell_angle_alpha    106.017
_cell_angle_beta     106.017
_cell_angle_gamma    90.0848

_space_group_name_H-M_alt    "P 1"
_space_group_IT_number       1

loop_
  _space_group_symop_operation_xyz
  'x, y, z'

loop_
  _atom_site_type_symbol
  _atom_site_label
  _atom_site_symmetry_multiplicity
  _atom_site_fract_x
  _atom_site_fract_y
  _atom_site_fract_z
  _atom_site_occupancy
  Br  Br1       1.0  0.24900  0.24900  0.49900  1.0000
  Br  Br2       1.0  0.75100  0.75100  0.50100  1.0000
  Nd  Nd1       1.0  0.00000  0.00000  0.00000  1.0000
  Nd  Nd2       1.0  0.50000  0.50000  0.00000  1.0000
  O   O1        1.0  0.51900  0.01920  0.03840  1.0000
  O   O2        1.0  0.86200  0.36000  0.18900  1.0000
  O   O3        1.0  0.32700  0.82800  0.18900  1.0000
  O   O4        1.0  0.32900  0.36200  0.18900  1.0000
  O   O5        1.0  0.86000  0.82700  0.18900  1.0000
  O   O6        1.0  0.17300  0.14000  0.81100  1.0000
  O   O7        1.0  0.63800  0.67100  0.81100  1.0000
  O   O8        1.0  0.64000  0.13800  0.81100  1.0000
  O   O9        1.0  0.17200  0.67300  0.81100  1.0000
  O   O10       1.0  0.98100  0.48100  0.96200  1.0000
  Te  Te1       1.0  0.62600  0.12600  0.25200  1.0000
  Te  Te2       1.0  0.14800  0.64800  0.29600  1.0000
  Te  Te3       1.0  0.35200  0.85200  0.70400  1.0000
  Te  Te4       1.0  0.87400  0.37400  0.74800  1.0000
