data_image0
_chemical_formula_structural       Cr6Rb2S10
_chemical_formula_sum              "Cr6 Rb2 S10"
_cell_length_a       3.53696
_cell_length_b       9.91811
_cell_length_c       10.86
_cell_angle_alpha    104.596
_cell_angle_beta     99.372
_cell_angle_gamma    100.271

_space_group_name_H-M_alt    "P 1"
_space_group_IT_number       1

loop_
  _space_group_symop_operation_xyz
  'x, y, z'

loop_
  _atom_site_type_symbol
  _atom_site_label
  _atom_site_symmetry_multiplicity
  _atom_site_fract_x
  _atom_site_fract_y
  _atom_site_fract_z
  _atom_site_occupancy
  Cr  Cr1       1.0  0.50000  0.00000  0.00000  1.0000
  Cr  Cr2       1.0  0.24700  0.26500  0.22800  1.0000
  Cr  Cr3       1.0  0.22500  0.06100  0.38900  1.0000
  Cr  Cr4       1.0  0.00000  0.50000  0.50000  1.0000
  Cr  Cr5       1.0  0.77500  0.93900  0.61100  1.0000
  Cr  Cr6       1.0  0.75300  0.73500  0.77200  1.0000
  Rb  Rb1       1.0  0.91400  0.66000  0.16900  1.0000
  Rb  Rb2       1.0  0.08550  0.34000  0.83100  1.0000
  S   S1        1.0  0.67300  0.26400  0.08080  1.0000
  S   S2        1.0  0.07890  0.00600  0.15200  1.0000
  S   S3        1.0  0.43000  0.50900  0.35000  1.0000
  S   S4        1.0  0.64200  0.89900  0.38400  1.0000
  S   S5        1.0  0.81700  0.24300  0.39200  1.0000
  S   S6        1.0  0.18300  0.75700  0.60800  1.0000
  S   S7        1.0  0.35800  0.10100  0.61600  1.0000
  S   S8        1.0  0.57000  0.49100  0.65000  1.0000
  S   S9        1.0  0.92100  0.99400  0.84800  1.0000
  S   S10       1.0  0.32700  0.73600  0.91900  1.0000
