data_image0
_chemical_formula_structural       Na8O8Pb2
_chemical_formula_sum              "Na8 O8 Pb2"
_cell_length_a       8.93948
_cell_length_b       6.70256
_cell_length_c       5.91295
_cell_angle_alpha    124.517
_cell_angle_beta     97.1971
_cell_angle_gamma    100.052

_space_group_name_H-M_alt    "P 1"
_space_group_IT_number       1

loop_
  _space_group_symop_operation_xyz
  'x, y, z'

loop_
  _atom_site_type_symbol
  _atom_site_label
  _atom_site_symmetry_multiplicity
  _atom_site_fract_x
  _atom_site_fract_y
  _atom_site_fract_z
  _atom_site_occupancy
  Na  Na1       1.0  0.20600  0.88700  0.16400  1.0000
  Na  Na2       1.0  0.57000  0.02100  0.28400  1.0000
  Na  Na3       1.0  0.59300  0.56100  0.30800  1.0000
  Na  Na4       1.0  0.00571  0.74900  0.50000  1.0000
  Na  Na5       1.0  0.99400  0.25100  0.50000  1.0000
  Na  Na6       1.0  0.40700  0.43900  0.69200  1.0000
  Na  Na7       1.0  0.43000  0.97900  0.71600  1.0000
  Na  Na8       1.0  0.79400  0.11300  0.83600  1.0000
  O   O1        1.0  0.02290  0.34800  0.19100  1.0000
  O   O2        1.0  0.38700  0.19900  0.19100  1.0000
  O   O3        1.0  0.37800  0.68800  0.20300  1.0000
  O   O4        1.0  0.80500  0.88500  0.37600  1.0000
  O   O5        1.0  0.19500  0.11500  0.62400  1.0000
  O   O6        1.0  0.62200  0.31200  0.79700  1.0000
  O   O7        1.0  0.61300  0.80100  0.80900  1.0000
  O   O8        1.0  0.97700  0.65200  0.80900  1.0000
  Pb  Pb1       1.0  0.22800  0.34000  0.06750  1.0000
  Pb  Pb2       1.0  0.77200  0.66000  0.93200  1.0000
