data_image0
_chemical_formula_structural       Cr12P6
_chemical_formula_sum              "Cr12 P6"
_cell_length_a       6.32061
_cell_length_b       6.54728
_cell_length_c       6.83407
_cell_angle_alpha    118.621
_cell_angle_beta     117.544
_cell_angle_gamma    90

_space_group_name_H-M_alt    "P 1"
_space_group_IT_number       1

loop_
  _space_group_symop_operation_xyz
  'x, y, z'

loop_
  _atom_site_type_symbol
  _atom_site_label
  _atom_site_symmetry_multiplicity
  _atom_site_fract_x
  _atom_site_fract_y
  _atom_site_fract_z
  _atom_site_occupancy
  Cr  Cr1       1.0  0.62600  0.00000  0.00000  1.0000
  Cr  Cr2       1.0  0.25800  0.20400  0.00000  1.0000
  Cr  Cr3       1.0  0.54700  0.50000  0.00000  1.0000
  Cr  Cr4       1.0  0.25800  0.79600  0.00000  1.0000
  Cr  Cr5       1.0  0.99700  0.41700  0.25000  1.0000
  Cr  Cr6       1.0  0.99700  0.83300  0.25000  1.0000
  Cr  Cr7       1.0  0.44600  0.71300  0.42600  1.0000
  Cr  Cr8       1.0  0.36500  0.21500  0.43000  1.0000
  Cr  Cr9       1.0  0.93500  0.78500  0.57000  1.0000
  Cr  Cr10      1.0  0.02030  0.28700  0.57400  1.0000
  Cr  Cr11      1.0  0.74700  0.16700  0.75000  1.0000
  Cr  Cr12      1.0  0.74700  0.58300  0.75000  1.0000
  P   P1        1.0  0.97400  0.00000  0.00000  1.0000
  P   P2        1.0  0.08150  0.50000  0.00000  1.0000
  P   P3        1.0  0.66600  0.39300  0.33000  1.0000
  P   P4        1.0  0.66600  0.93800  0.33000  1.0000
  P   P5        1.0  0.33500  0.06250  0.67000  1.0000
  P   P6        1.0  0.33500  0.60700  0.67000  1.0000
