data_image0
_chemical_formula_structural       Ir2K6Li2O8
_chemical_formula_sum              "Ir2 K6 Li2 O8"
_cell_length_a       5.85624
_cell_length_b       7.19023
_cell_length_c       7.19023
_cell_angle_alpha    95.9147
_cell_angle_beta     100.421
_cell_angle_gamma    79.5792

_space_group_name_H-M_alt    "P 1"
_space_group_IT_number       1

loop_
  _space_group_symop_operation_xyz
  'x, y, z'

loop_
  _atom_site_type_symbol
  _atom_site_label
  _atom_site_symmetry_multiplicity
  _atom_site_fract_x
  _atom_site_fract_y
  _atom_site_fract_z
  _atom_site_occupancy
  Ir  Ir1       1.0  0.50000  0.50000  0.00000  1.0000
  Ir  Ir2       1.0  0.00000  0.00000  0.50000  1.0000
  K   K1        1.0  0.97700  0.75600  0.06610  1.0000
  K   K2        1.0  0.47700  0.93400  0.24400  1.0000
  K   K3        1.0  0.25000  0.40500  0.40500  1.0000
  K   K4        1.0  0.75000  0.59500  0.59500  1.0000
  K   K5        1.0  0.52300  0.06610  0.75600  1.0000
  K   K6        1.0  0.02330  0.24400  0.93400  1.0000
  Li  Li1       1.0  0.75000  0.26900  0.26900  1.0000
  Li  Li2       1.0  0.25000  0.73100  0.73100  1.0000
  O   O1        1.0  0.46900  0.26200  0.08750  1.0000
  O   O2        1.0  0.75800  0.52100  0.20700  1.0000
  O   O3        1.0  0.03130  0.08750  0.26200  1.0000
  O   O4        1.0  0.25800  0.79300  0.47900  1.0000
  O   O5        1.0  0.74200  0.20700  0.52100  1.0000
  O   O6        1.0  0.96900  0.91200  0.73800  1.0000
  O   O7        1.0  0.24200  0.47900  0.79300  1.0000
  O   O8        1.0  0.53100  0.73800  0.91200  1.0000
