data_image0
_chemical_formula_structural       Mo2N4Na8O4
_chemical_formula_sum              "Mo2 N4 Na8 O4"
_cell_length_a       5.84016
_cell_length_b       5.86183
_cell_length_c       8.79458
_cell_angle_alpha    82.1584
_cell_angle_beta     71.7302
_cell_angle_gamma    68.3659

_space_group_name_H-M_alt    "P 1"
_space_group_IT_number       1

loop_
  _space_group_symop_operation_xyz
  'x, y, z'

loop_
  _atom_site_type_symbol
  _atom_site_label
  _atom_site_symmetry_multiplicity
  _atom_site_fract_x
  _atom_site_fract_y
  _atom_site_fract_z
  _atom_site_occupancy
  Mo  Mo1       1.0  0.15900  0.28000  0.23900  1.0000
  Mo  Mo2       1.0  0.84100  0.72000  0.76100  1.0000
  N   N1        1.0  0.84200  0.46000  0.35500  1.0000
  N   N2        1.0  0.29500  0.03380  0.36800  1.0000
  N   N3        1.0  0.70500  0.96600  0.63200  1.0000
  N   N4        1.0  0.15800  0.54000  0.64500  1.0000
  Na  Na1       1.0  0.76000  0.24100  0.01710  1.0000
  Na  Na2       1.0  0.60900  0.72800  0.18200  1.0000
  Na  Na3       1.0  0.05220  0.76100  0.39800  1.0000
  Na  Na4       1.0  0.52100  0.26400  0.44000  1.0000
  Na  Na5       1.0  0.47900  0.73600  0.56000  1.0000
  Na  Na6       1.0  0.94800  0.23900  0.60200  1.0000
  Na  Na7       1.0  0.39100  0.27200  0.81800  1.0000
  Na  Na8       1.0  0.24000  0.75900  0.98300  1.0000
  O   O1        1.0  0.15300  0.15100  0.05470  1.0000
  O   O2        1.0  0.36400  0.48300  0.18600  1.0000
  O   O3        1.0  0.63600  0.51700  0.81400  1.0000
  O   O4        1.0  0.84700  0.84900  0.94500  1.0000
