data_image0
_chemical_formula_structural       Fe4La4S10
_chemical_formula_sum              "Fe4 La4 S10"
_cell_length_a       3.98064
_cell_length_b       8.45384
_cell_length_c       11.0952
_cell_angle_alpha    90
_cell_angle_beta     90
_cell_angle_gamma    76.3828

_space_group_name_H-M_alt    "P 1"
_space_group_IT_number       1

loop_
  _space_group_symop_operation_xyz
  'x, y, z'

loop_
  _atom_site_type_symbol
  _atom_site_label
  _atom_site_symmetry_multiplicity
  _atom_site_fract_x
  _atom_site_fract_y
  _atom_site_fract_z
  _atom_site_occupancy
  Fe  Fe1       1.0  0.69400  0.61200  0.24000  1.0000
  Fe  Fe2       1.0  0.09120  0.81800  0.26900  1.0000
  Fe  Fe3       1.0  0.30600  0.38800  0.74000  1.0000
  Fe  Fe4       1.0  0.90900  0.18200  0.76900  1.0000
  La  La1       1.0  0.37600  0.24700  0.05740  1.0000
  La  La2       1.0  0.38200  0.23700  0.43900  1.0000
  La  La3       1.0  0.62400  0.75300  0.55700  1.0000
  La  La4       1.0  0.61800  0.76300  0.93900  1.0000
  S   S1        1.0  0.19600  0.60900  0.09650  1.0000
  S   S2        1.0  0.54000  0.91900  0.19000  1.0000
  S   S3        1.0  0.84500  0.31000  0.24500  1.0000
  S   S4        1.0  0.20200  0.59600  0.39700  1.0000
  S   S5        1.0  0.01280  0.97400  0.45100  1.0000
  S   S6        1.0  0.80400  0.39100  0.59600  1.0000
  S   S7        1.0  0.46000  0.08070  0.69000  1.0000
  S   S8        1.0  0.15500  0.69000  0.74500  1.0000
  S   S9        1.0  0.79800  0.40400  0.89700  1.0000
  S   S10       1.0  0.98700  0.02560  0.95100  1.0000
