data_image0
_chemical_formula_structural       K2O12Os4
_chemical_formula_sum              "K2 O12 Os4"
_cell_length_a       5.54927
_cell_length_b       6.46603
_cell_length_c       7.22105
_cell_angle_alpha    65.3778
_cell_angle_beta     70.9314
_cell_angle_gamma    75.4917

_space_group_name_H-M_alt    "P 1"
_space_group_IT_number       1

loop_
  _space_group_symop_operation_xyz
  'x, y, z'

loop_
  _atom_site_type_symbol
  _atom_site_label
  _atom_site_symmetry_multiplicity
  _atom_site_fract_x
  _atom_site_fract_y
  _atom_site_fract_z
  _atom_site_occupancy
  K   K1        1.0  0.80800  0.30300  0.10500  1.0000
  K   K2        1.0  0.19200  0.69700  0.89500  1.0000
  O   O1        1.0  0.70100  0.95800  0.04180  1.0000
  O   O2        1.0  0.29800  0.22500  0.23000  1.0000
  O   O3        1.0  0.38000  0.61100  0.25600  1.0000
  O   O4        1.0  0.89200  0.52200  0.32400  1.0000
  O   O5        1.0  0.00680  0.89500  0.37300  1.0000
  O   O6        1.0  0.50500  0.81400  0.46700  1.0000
  O   O7        1.0  0.49500  0.18600  0.53300  1.0000
  O   O8        1.0  0.99300  0.10500  0.62700  1.0000
  O   O9        1.0  0.10800  0.47800  0.67600  1.0000
  O   O10       1.0  0.62000  0.38900  0.74400  1.0000
  O   O11       1.0  0.70200  0.77500  0.77000  1.0000
  O   O12       1.0  0.29900  0.04170  0.95800  1.0000
  Os  Os1       1.0  0.36300  0.91600  0.23700  1.0000
  Os  Os2       1.0  0.18600  0.35900  0.44900  1.0000
  Os  Os3       1.0  0.81400  0.64100  0.55100  1.0000
  Os  Os4       1.0  0.63700  0.08450  0.76300  1.0000
