data_image0
_chemical_formula_structural       C10Ho8
_chemical_formula_sum              "C10 Ho8"
_cell_length_a       6.53863
_cell_length_b       11.887
_cell_length_c       3.63326
_cell_angle_alpha    90
_cell_angle_beta     90
_cell_angle_gamma    90

_space_group_name_H-M_alt    "P 1"
_space_group_IT_number       1

loop_
  _space_group_symop_operation_xyz
  'x, y, z'

loop_
  _atom_site_type_symbol
  _atom_site_label
  _atom_site_symmetry_multiplicity
  _atom_site_fract_x
  _atom_site_fract_y
  _atom_site_fract_z
  _atom_site_occupancy
  C   C1        1.0  0.59900  0.15500  0.00000  1.0000
  C   C2        1.0  0.14100  0.23500  0.00000  1.0000
  C   C3        1.0  0.64100  0.26500  0.00000  1.0000
  C   C4        1.0  0.09940  0.34500  0.00000  1.0000
  C   C5        1.0  0.90100  0.65500  0.00000  1.0000
  C   C6        1.0  0.35900  0.73500  0.00000  1.0000
  C   C7        1.0  0.85900  0.76500  0.00000  1.0000
  C   C8        1.0  0.40100  0.84500  0.00000  1.0000
  C   C9        1.0  0.00000  0.00000  0.50000  1.0000
  C   C10       1.0  0.50000  0.50000  0.50000  1.0000
  Ho  Ho1       1.0  0.24400  0.04230  0.00000  1.0000
  Ho  Ho2       1.0  0.74400  0.45800  0.00000  1.0000
  Ho  Ho3       1.0  0.25600  0.54200  0.00000  1.0000
  Ho  Ho4       1.0  0.75600  0.95800  0.00000  1.0000
  Ho  Ho5       1.0  0.89500  0.19600  0.50000  1.0000
  Ho  Ho6       1.0  0.39500  0.30400  0.50000  1.0000
  Ho  Ho7       1.0  0.60500  0.69600  0.50000  1.0000
  Ho  Ho8       1.0  0.10500  0.80400  0.50000  1.0000
