data_image0
_chemical_formula_structural       I12Te2Tl4
_chemical_formula_sum              "I12 Te2 Tl4"
_cell_length_a       7.88089
_cell_length_b       8.32987
_cell_length_c       13.8664
_cell_angle_alpha    90
_cell_angle_beta     124.19
_cell_angle_gamma    90

_space_group_name_H-M_alt    "P 1"
_space_group_IT_number       1

loop_
  _space_group_symop_operation_xyz
  'x, y, z'

loop_
  _atom_site_type_symbol
  _atom_site_label
  _atom_site_symmetry_multiplicity
  _atom_site_fract_x
  _atom_site_fract_y
  _atom_site_fract_z
  _atom_site_occupancy
  I   I1        1.0  0.23100  0.30200  0.03610  1.0000
  I   I2        1.0  0.35100  0.80300  0.04360  1.0000
  I   I3        1.0  0.83300  0.49600  0.24700  1.0000
  I   I4        1.0  0.16700  0.99600  0.25300  1.0000
  I   I5        1.0  0.64900  0.30300  0.45600  1.0000
  I   I6        1.0  0.76900  0.80200  0.46400  1.0000
  I   I7        1.0  0.23100  0.19800  0.53600  1.0000
  I   I8        1.0  0.35100  0.69700  0.54400  1.0000
  I   I9        1.0  0.83300  0.00377  0.74700  1.0000
  I   I10       1.0  0.16700  0.50400  0.75300  1.0000
  I   I11       1.0  0.64900  0.19700  0.95600  1.0000
  I   I12       1.0  0.76900  0.69800  0.96400  1.0000
  Te  Te1       1.0  0.00000  0.00000  0.00000  1.0000
  Te  Te2       1.0  0.00000  0.50000  0.50000  1.0000
  Tl  Tl1       1.0  0.71800  0.08870  0.24800  1.0000
  Tl  Tl2       1.0  0.28200  0.58900  0.25200  1.0000
  Tl  Tl3       1.0  0.71800  0.41100  0.74800  1.0000
  Tl  Tl4       1.0  0.28200  0.91100  0.75200  1.0000
