data_image0
_chemical_formula_structural       Ga8Ti10
_chemical_formula_sum              "Ga8 Ti10"
_cell_length_a       7.86084
_cell_length_b       7.86084
_cell_length_c       5.38865
_cell_angle_alpha    90
_cell_angle_beta     90
_cell_angle_gamma    120

_space_group_name_H-M_alt    "P 1"
_space_group_IT_number       1

loop_
  _space_group_symop_operation_xyz
  'x, y, z'

loop_
  _atom_site_type_symbol
  _atom_site_label
  _atom_site_symmetry_multiplicity
  _atom_site_fract_x
  _atom_site_fract_y
  _atom_site_fract_z
  _atom_site_occupancy
  Ga  Ga1       1.0  0.00000  0.00000  0.00000  1.0000
  Ga  Ga2       1.0  0.62300  0.00000  0.25000  1.0000
  Ga  Ga3       1.0  0.00000  0.62300  0.25000  1.0000
  Ga  Ga4       1.0  0.37700  0.37700  0.25000  1.0000
  Ga  Ga5       1.0  0.00000  0.00000  0.50000  1.0000
  Ga  Ga6       1.0  0.37700  1.00000  0.75000  1.0000
  Ga  Ga7       1.0  0.00000  0.37700  0.75000  1.0000
  Ga  Ga8       1.0  0.62300  0.62300  0.75000  1.0000
  Ti  Ti1       1.0  0.66700  0.33300  0.00000  1.0000
  Ti  Ti2       1.0  0.33300  0.66700  0.00000  1.0000
  Ti  Ti3       1.0  0.28800  0.00000  0.25000  1.0000
  Ti  Ti4       1.0  0.00000  0.28800  0.25000  1.0000
  Ti  Ti5       1.0  0.71200  0.71200  0.25000  1.0000
  Ti  Ti6       1.0  0.66700  0.33300  0.50000  1.0000
  Ti  Ti7       1.0  0.33300  0.66700  0.50000  1.0000
  Ti  Ti8       1.0  0.71200  1.00000  0.75000  1.0000
  Ti  Ti9       1.0  1.00000  0.71200  0.75000  1.0000
  Ti  Ti10      1.0  0.28800  0.28800  0.75000  1.0000
