data_image0
_chemical_formula_structural       Cs4Mn6Se8
_chemical_formula_sum              "Cs4 Mn6 Se8"
_cell_length_a       6.25609
_cell_length_b       9.98343
_cell_length_c       9.98343
_cell_angle_alpha    93.5607
_cell_angle_beta     108.26
_cell_angle_gamma    108.26

_space_group_name_H-M_alt    "P 1"
_space_group_IT_number       1

loop_
  _space_group_symop_operation_xyz
  'x, y, z'

loop_
  _atom_site_type_symbol
  _atom_site_label
  _atom_site_symmetry_multiplicity
  _atom_site_fract_x
  _atom_site_fract_y
  _atom_site_fract_z
  _atom_site_occupancy
  Cs  Cs1       1.0  0.88800  0.12000  0.12000  1.0000
  Cs  Cs2       1.0  0.64700  0.38000  0.38000  1.0000
  Cs  Cs3       1.0  0.35300  0.62000  0.62000  1.0000
  Cs  Cs4       1.0  0.11200  0.88000  0.88000  1.0000
  Mn  Mn1       1.0  0.76900  0.51900  0.01880  1.0000
  Mn  Mn2       1.0  0.50000  0.75000  0.25000  1.0000
  Mn  Mn3       1.0  0.23100  0.98100  0.48100  1.0000
  Mn  Mn4       1.0  0.76900  0.01880  0.51900  1.0000
  Mn  Mn5       1.0  0.50000  0.25000  0.75000  1.0000
  Mn  Mn6       1.0  0.23100  0.48100  0.98100  1.0000
  Se  Se1       1.0  0.59100  0.71600  0.01890  1.0000
  Se  Se2       1.0  0.14400  0.51900  0.21600  1.0000
  Se  Se3       1.0  0.40900  0.98100  0.28400  1.0000
  Se  Se4       1.0  0.85600  0.78400  0.48100  1.0000
  Se  Se5       1.0  0.14400  0.21600  0.51900  1.0000
  Se  Se6       1.0  0.59100  0.01890  0.71600  1.0000
  Se  Se7       1.0  0.85600  0.48100  0.78400  1.0000
  Se  Se8       1.0  0.40900  0.28400  0.98100  1.0000
