data_image0
_chemical_formula_structural       F2K6O8S2
_chemical_formula_sum              "F2 K6 O8 S2"
_cell_length_a       7.18348
_cell_length_b       7.18348
_cell_length_c       7.40123
_cell_angle_alpha    119.031
_cell_angle_beta     119.031
_cell_angle_gamma    90

_space_group_name_H-M_alt    "P 1"
_space_group_IT_number       1

loop_
  _space_group_symop_operation_xyz
  'x, y, z'

loop_
  _atom_site_type_symbol
  _atom_site_label
  _atom_site_symmetry_multiplicity
  _atom_site_fract_x
  _atom_site_fract_y
  _atom_site_fract_z
  _atom_site_occupancy
  F   F1        1.0  0.00000  0.00000  0.00000  1.0000
  F   F2        1.0  0.50000  0.50000  0.00000  1.0000
  K   K1        1.0  0.31000  0.19000  0.00000  1.0000
  K   K2        1.0  0.81000  0.31000  0.00000  1.0000
  K   K3        1.0  0.19000  0.69000  0.00000  1.0000
  K   K4        1.0  0.69000  0.81000  0.00000  1.0000
  K   K5        1.0  0.25000  0.25000  0.50000  1.0000
  K   K6        1.0  0.75000  0.75000  0.50000  1.0000
  O   O1        1.0  0.55000  0.05000  0.33900  1.0000
  O   O2        1.0  0.78900  0.28900  0.33900  1.0000
  O   O3        1.0  0.28900  0.55000  0.33900  1.0000
  O   O4        1.0  0.05000  0.78900  0.33900  1.0000
  O   O5        1.0  0.95000  0.21100  0.66100  1.0000
  O   O6        1.0  0.71100  0.45000  0.66100  1.0000
  O   O7        1.0  0.21100  0.71100  0.66100  1.0000
  O   O8        1.0  0.45000  0.95000  0.66100  1.0000
  S   S1        1.0  0.75000  0.25000  0.50000  1.0000
  S   S2        1.0  0.25000  0.75000  0.50000  1.0000
