data_image0
_chemical_formula_structural       Ba2P16
_chemical_formula_sum              "Ba2 P16"
_cell_length_a       6.83154
_cell_length_b       7.29645
_cell_length_c       8.64826
_cell_angle_alpha    86.3203
_cell_angle_beta     83.9607
_cell_angle_gamma    70.253

_space_group_name_H-M_alt    "P 1"
_space_group_IT_number       1

loop_
  _space_group_symop_operation_xyz
  'x, y, z'

loop_
  _atom_site_type_symbol
  _atom_site_label
  _atom_site_symmetry_multiplicity
  _atom_site_fract_x
  _atom_site_fract_y
  _atom_site_fract_z
  _atom_site_occupancy
  Ba  Ba1       1.0  0.73800  0.66400  0.32000  1.0000
  Ba  Ba2       1.0  0.26200  0.33600  0.68000  1.0000
  P   P1        1.0  0.14100  0.05090  0.00194  1.0000
  P   P2        1.0  0.40300  0.77500  0.03960  1.0000
  P   P3        1.0  0.23700  0.57900  0.15500  1.0000
  P   P4        1.0  0.52500  0.33100  0.20400  1.0000
  P   P5        1.0  0.09000  0.18600  0.24200  1.0000
  P   P6        1.0  0.39700  0.12100  0.32900  1.0000
  P   P7        1.0  0.98500  0.95900  0.38100  1.0000
  P   P8        1.0  0.23500  0.67600  0.39400  1.0000
  P   P9        1.0  0.76500  0.32400  0.60600  1.0000
  P   P10       1.0  0.01470  0.04090  0.61900  1.0000
  P   P11       1.0  0.60300  0.87900  0.67100  1.0000
  P   P12       1.0  0.91000  0.81400  0.75800  1.0000
  P   P13       1.0  0.47500  0.66900  0.79600  1.0000
  P   P14       1.0  0.76300  0.42100  0.84500  1.0000
  P   P15       1.0  0.59700  0.22500  0.96000  1.0000
  P   P16       1.0  0.85900  0.94900  0.99800  1.0000
