data_image0
_chemical_formula_structural       Cu2Hf4Na2Se10
_chemical_formula_sum              "Cu2 Hf4 Na2 Se10"
_cell_length_a       3.7902
_cell_length_b       7.16008
_cell_length_c       16.2599
_cell_angle_alpha    90
_cell_angle_beta     90
_cell_angle_gamma    74.6523

_space_group_name_H-M_alt    "P 1"
_space_group_IT_number       1

loop_
  _space_group_symop_operation_xyz
  'x, y, z'

loop_
  _atom_site_type_symbol
  _atom_site_label
  _atom_site_symmetry_multiplicity
  _atom_site_fract_x
  _atom_site_fract_y
  _atom_site_fract_z
  _atom_site_occupancy
  Cu  Cu1       1.0  0.67700  0.64600  0.25000  1.0000
  Cu  Cu2       1.0  0.32300  0.35400  0.75000  1.0000
  Hf  Hf1       1.0  0.20900  0.58200  0.09830  1.0000
  Hf  Hf2       1.0  0.20900  0.58200  0.40200  1.0000
  Hf  Hf3       1.0  0.79100  0.41800  0.59800  1.0000
  Hf  Hf4       1.0  0.79100  0.41800  0.90200  1.0000
  Na  Na1       1.0  0.96600  0.06810  0.25000  1.0000
  Na  Na2       1.0  0.03400  0.93200  0.75000  1.0000
  Se  Se1       1.0  0.84100  0.31700  0.06080  1.0000
  Se  Se2       1.0  0.57600  0.84800  0.12800  1.0000
  Se  Se3       1.0  0.29200  0.41700  0.25000  1.0000
  Se  Se4       1.0  0.57600  0.84800  0.37200  1.0000
  Se  Se5       1.0  0.84100  0.31700  0.43900  1.0000
  Se  Se6       1.0  0.15900  0.68300  0.56100  1.0000
  Se  Se7       1.0  0.42400  0.15200  0.62800  1.0000
  Se  Se8       1.0  0.70800  0.58300  0.75000  1.0000
  Se  Se9       1.0  0.42400  0.15200  0.87200  1.0000
  Se  Se10      1.0  0.15900  0.68300  0.93900  1.0000
