data_image0
_chemical_formula_structural       Ba3Cu2Ho2O10Pt
_chemical_formula_sum              "Ba3 Cu2 Ho2 O10 Pt1"
_cell_length_a       5.79708
_cell_length_b       6.89213
_cell_length_c       7.35485
_cell_angle_alpha    104.194
_cell_angle_beta     90
_cell_angle_gamma    114.87

_space_group_name_H-M_alt    "P 1"
_space_group_IT_number       1

loop_
  _space_group_symop_operation_xyz
  'x, y, z'

loop_
  _atom_site_type_symbol
  _atom_site_label
  _atom_site_symmetry_multiplicity
  _atom_site_fract_x
  _atom_site_fract_y
  _atom_site_fract_z
  _atom_site_occupancy
  Ba  Ba1       1.0  0.00000  0.00000  0.00000  1.0000
  Ba  Ba2       1.0  0.84800  0.69700  0.46400  1.0000
  Ba  Ba3       1.0  0.15200  0.30300  0.53600  1.0000
  Cu  Cu1       1.0  0.59200  0.18400  0.20400  1.0000
  Cu  Cu2       1.0  0.40800  0.81600  0.79600  1.0000
  Ho  Ho1       1.0  0.31100  0.62200  0.12600  1.0000
  Ho  Ho2       1.0  0.68900  0.37800  0.87400  1.0000
  O   O1        1.0  0.45500  0.36900  0.12800  1.0000
  O   O2        1.0  0.91400  0.36900  0.12800  1.0000
  O   O3        1.0  0.25900  0.96200  0.27800  1.0000
  O   O4        1.0  0.70300  0.96200  0.27800  1.0000
  O   O5        1.0  0.33300  0.66500  0.45300  1.0000
  O   O6        1.0  0.66700  0.33500  0.54700  1.0000
  O   O7        1.0  0.29700  0.03750  0.72200  1.0000
  O   O8        1.0  0.74100  0.03750  0.72200  1.0000
  O   O9        1.0  0.08610  0.63100  0.87200  1.0000
  O   O10       1.0  0.54500  0.63100  0.87200  1.0000
  Pt  Pt1       1.0  0.50000  0.00000  0.50000  1.0000
