data_image0
_chemical_formula_structural       As6Ce3Pd9
_chemical_formula_sum              "As6 Ce3 Pd9"
_cell_length_a       4.16266
_cell_length_b       8.65998
_cell_length_c       10.0993
_cell_angle_alpha    107.35
_cell_angle_beta     90
_cell_angle_gamma    103.907

_space_group_name_H-M_alt    "P 1"
_space_group_IT_number       1

loop_
  _space_group_symop_operation_xyz
  'x, y, z'

loop_
  _atom_site_type_symbol
  _atom_site_label
  _atom_site_symmetry_multiplicity
  _atom_site_fract_x
  _atom_site_fract_y
  _atom_site_fract_z
  _atom_site_occupancy
  As  As1       1.0  0.20000  0.39900  0.12900  1.0000
  As  As2       1.0  0.46400  0.92700  0.21500  1.0000
  As  As3       1.0  0.63700  0.27300  0.45300  1.0000
  As  As4       1.0  0.36300  0.72700  0.54700  1.0000
  As  As5       1.0  0.53600  0.07250  0.78500  1.0000
  As  As6       1.0  0.80000  0.60100  0.87100  1.0000
  Ce  Ce1       1.0  0.00000  0.00000  0.00000  1.0000
  Ce  Ce2       1.0  0.84600  0.69100  0.29900  1.0000
  Ce  Ce3       1.0  0.15400  0.30900  0.70100  1.0000
  Pd  Pd1       1.0  0.32300  0.64500  0.03370  1.0000
  Pd  Pd2       1.0  0.62600  0.25300  0.20400  1.0000
  Pd  Pd3       1.0  0.04360  0.08710  0.33500  1.0000
  Pd  Pd4       1.0  0.22000  0.44100  0.39200  1.0000
  Pd  Pd5       1.0  0.50000  0.00000  0.50000  1.0000
  Pd  Pd6       1.0  0.78000  0.55900  0.60800  1.0000
  Pd  Pd7       1.0  0.95600  0.91300  0.66500  1.0000
  Pd  Pd8       1.0  0.37400  0.74700  0.79600  1.0000
  Pd  Pd9       1.0  0.67700  0.35500  0.96600  1.0000
