data_image0
_chemical_formula_structural       Np4Si8Tc6
_chemical_formula_sum              "Np4 Si8 Tc6"
_cell_length_a       6.77255
_cell_length_b       8.05342
_cell_length_c       5.65394
_cell_angle_alpha    90
_cell_angle_beta     104.228
_cell_angle_gamma    90

_space_group_name_H-M_alt    "P 1"
_space_group_IT_number       1

loop_
  _space_group_symop_operation_xyz
  'x, y, z'

loop_
  _atom_site_type_symbol
  _atom_site_label
  _atom_site_symmetry_multiplicity
  _atom_site_fract_x
  _atom_site_fract_y
  _atom_site_fract_z
  _atom_site_occupancy
  Np  Np1       1.0  0.74500  0.55600  0.07290  1.0000
  Np  Np2       1.0  0.25500  0.05610  0.42700  1.0000
  Np  Np3       1.0  0.74500  0.94400  0.57300  1.0000
  Np  Np4       1.0  0.25500  0.44400  0.92700  1.0000
  Si  Si1       1.0  0.87300  0.90400  0.11500  1.0000
  Si  Si2       1.0  0.42200  0.74900  0.22400  1.0000
  Si  Si3       1.0  0.57800  0.24900  0.27600  1.0000
  Si  Si4       1.0  0.12700  0.40400  0.38500  1.0000
  Si  Si5       1.0  0.87300  0.59600  0.61500  1.0000
  Si  Si6       1.0  0.42200  0.75100  0.72400  1.0000
  Si  Si7       1.0  0.57800  0.25100  0.77600  1.0000
  Si  Si8       1.0  0.12700  0.09600  0.88500  1.0000
  Tc  Tc1       1.0  0.50000  0.00000  0.00000  1.0000
  Tc  Tc2       1.0  0.88800  0.20700  0.11700  1.0000
  Tc  Tc3       1.0  0.11200  0.70700  0.38300  1.0000
  Tc  Tc4       1.0  0.50000  0.50000  0.50000  1.0000
  Tc  Tc5       1.0  0.88800  0.29300  0.61700  1.0000
  Tc  Tc6       1.0  0.11200  0.79300  0.88300  1.0000
