data_image0
_chemical_formula_structural       Br12Te2Tl4
_chemical_formula_sum              "Br12 Te2 Tl4"
_cell_length_a       7.47404
_cell_length_b       7.47404
_cell_length_c       10.9543
_cell_angle_alpha    90
_cell_angle_beta     90
_cell_angle_gamma    90

_space_group_name_H-M_alt    "P 1"
_space_group_IT_number       1

loop_
  _space_group_symop_operation_xyz
  'x, y, z'

loop_
  _atom_site_type_symbol
  _atom_site_label
  _atom_site_symmetry_multiplicity
  _atom_site_fract_x
  _atom_site_fract_y
  _atom_site_fract_z
  _atom_site_occupancy
  Br  Br1       1.0  0.69500  0.20100  0.00000  1.0000
  Br  Br2       1.0  0.20100  0.30500  0.00000  1.0000
  Br  Br3       1.0  0.79900  0.69500  0.00000  1.0000
  Br  Br4       1.0  0.30500  0.79900  0.00000  1.0000
  Br  Br5       1.0  0.00000  0.00000  0.24900  1.0000
  Br  Br6       1.0  0.50000  0.50000  0.25100  1.0000
  Br  Br7       1.0  0.70100  0.19500  0.50000  1.0000
  Br  Br8       1.0  0.19500  0.29900  0.50000  1.0000
  Br  Br9       1.0  0.80500  0.70100  0.50000  1.0000
  Br  Br10      1.0  0.29900  0.80500  0.50000  1.0000
  Br  Br11      1.0  0.50000  0.50000  0.74900  1.0000
  Br  Br12      1.0  0.00000  0.00000  0.75100  1.0000
  Te  Te1       1.0  0.00000  0.00000  0.00000  1.0000
  Te  Te2       1.0  0.50000  0.50000  0.50000  1.0000
  Tl  Tl1       1.0  0.50000  0.00000  0.25000  1.0000
  Tl  Tl2       1.0  0.00000  0.50000  0.25000  1.0000
  Tl  Tl3       1.0  0.50000  0.00000  0.75000  1.0000
  Tl  Tl4       1.0  0.00000  0.50000  0.75000  1.0000
