data_image0
_chemical_formula_structural       N10Na2Ta6
_chemical_formula_sum              "N10 Na2 Ta6"
_cell_length_a       4.03391
_cell_length_b       5.47518
_cell_length_c       10.3416
_cell_angle_alpha    90
_cell_angle_beta     90
_cell_angle_gamma    68.3842

_space_group_name_H-M_alt    "P 1"
_space_group_IT_number       1

loop_
  _space_group_symop_operation_xyz
  'x, y, z'

loop_
  _atom_site_type_symbol
  _atom_site_label
  _atom_site_symmetry_multiplicity
  _atom_site_fract_x
  _atom_site_fract_y
  _atom_site_fract_z
  _atom_site_occupancy
  N   N1        1.0  0.32200  0.35600  0.07860  1.0000
  N   N2        1.0  0.04530  0.90900  0.12200  1.0000
  N   N3        1.0  0.74800  0.50400  0.25000  1.0000
  N   N4        1.0  0.04530  0.90900  0.37800  1.0000
  N   N5        1.0  0.32200  0.35600  0.42100  1.0000
  N   N6        1.0  0.67800  0.64400  0.57900  1.0000
  N   N7        1.0  0.95500  0.09050  0.62200  1.0000
  N   N8        1.0  0.25200  0.49600  0.75000  1.0000
  N   N9        1.0  0.95500  0.09050  0.87800  1.0000
  N   N10       1.0  0.67800  0.64400  0.92100  1.0000
  Na  Na1       1.0  0.49600  0.00788  0.25000  1.0000
  Na  Na2       1.0  0.50400  0.99200  0.75000  1.0000
  Ta  Ta1       1.0  0.85900  0.28200  0.04760  1.0000
  Ta  Ta2       1.0  0.20300  0.59400  0.25000  1.0000
  Ta  Ta3       1.0  0.85900  0.28200  0.45200  1.0000
  Ta  Ta4       1.0  0.14100  0.71800  0.54800  1.0000
  Ta  Ta5       1.0  0.79700  0.40600  0.75000  1.0000
  Ta  Ta6       1.0  0.14100  0.71800  0.95200  1.0000
