data_image0
_chemical_formula_structural       Mo6Si8Y4
_chemical_formula_sum              "Mo6 Si8 Y4"
_cell_length_a       7.91854
_cell_length_b       6.92736
_cell_length_c       6.75956
_cell_angle_alpha    90
_cell_angle_beta     124.902
_cell_angle_gamma    90

_space_group_name_H-M_alt    "P 1"
_space_group_IT_number       1

loop_
  _space_group_symop_operation_xyz
  'x, y, z'

loop_
  _atom_site_type_symbol
  _atom_site_label
  _atom_site_symmetry_multiplicity
  _atom_site_fract_x
  _atom_site_fract_y
  _atom_site_fract_z
  _atom_site_occupancy
  Mo  Mo1       1.0  0.75000  0.66200  0.99900  1.0000
  Mo  Mo2       1.0  0.50000  0.00000  0.00000  1.0000
  Mo  Mo3       1.0  0.25000  0.33800  0.00126  1.0000
  Mo  Mo4       1.0  0.75000  0.83800  0.49900  1.0000
  Mo  Mo5       1.0  0.50000  0.50000  0.50000  1.0000
  Mo  Mo6       1.0  0.25000  0.16200  0.50100  1.0000
  Si  Si1       1.0  0.50500  0.63200  0.13300  1.0000
  Si  Si2       1.0  0.09030  0.45500  0.22200  1.0000
  Si  Si3       1.0  0.91000  0.95500  0.27800  1.0000
  Si  Si4       1.0  0.49500  0.13200  0.36700  1.0000
  Si  Si5       1.0  0.50500  0.86800  0.63300  1.0000
  Si  Si6       1.0  0.09030  0.04510  0.72200  1.0000
  Si  Si7       1.0  0.91000  0.54500  0.77800  1.0000
  Si  Si8       1.0  0.49500  0.36800  0.86700  1.0000
  Y   Y1        1.0  0.19100  0.83000  0.12900  1.0000
  Y   Y2        1.0  0.80900  0.33000  0.37100  1.0000
  Y   Y3        1.0  0.19100  0.67000  0.62900  1.0000
  Y   Y4        1.0  0.80900  0.17000  0.87100  1.0000
