data_image0
_chemical_formula_structural       Ba6Cu6N6
_chemical_formula_sum              "Ba6 Cu6 N6"
_cell_length_a       5.59333
_cell_length_b       7.77667
_cell_length_c       9.52326
_cell_angle_alpha    102.108
_cell_angle_beta     90
_cell_angle_gamma    111.077

_space_group_name_H-M_alt    "P 1"
_space_group_IT_number       1

loop_
  _space_group_symop_operation_xyz
  'x, y, z'

loop_
  _atom_site_type_symbol
  _atom_site_label
  _atom_site_symmetry_multiplicity
  _atom_site_fract_x
  _atom_site_fract_y
  _atom_site_fract_z
  _atom_site_occupancy
  Ba  Ba1       1.0  0.93200  0.33800  0.12900  1.0000
  Ba  Ba2       1.0  0.28000  0.00000  0.25000  1.0000
  Ba  Ba3       1.0  0.59400  0.66200  0.37100  1.0000
  Ba  Ba4       1.0  0.40600  0.33800  0.62900  1.0000
  Ba  Ba5       1.0  0.72000  0.00000  0.75000  1.0000
  Ba  Ba6       1.0  0.06780  0.66200  0.87100  1.0000
  Cu  Cu1       1.0  0.50000  0.50000  1.00000  1.0000
  Cu  Cu2       1.0  0.69200  0.85300  0.06060  1.0000
  Cu  Cu3       1.0  0.83900  0.14700  0.43900  1.0000
  Cu  Cu4       1.0  0.00000  0.50000  0.50000  1.0000
  Cu  Cu5       1.0  0.16100  0.85300  0.56100  1.0000
  Cu  Cu6       1.0  0.30800  0.14700  0.93900  1.0000
  N   N1        1.0  0.00000  0.00000  0.00000  1.0000
  N   N2        1.0  0.38100  0.68200  0.10800  1.0000
  N   N3        1.0  0.69900  0.31800  0.39200  1.0000
  N   N4        1.0  0.00000  0.00000  0.50000  1.0000
  N   N5        1.0  0.30100  0.68200  0.60800  1.0000
  N   N6        1.0  0.61900  0.31800  0.89200  1.0000
