data_image0
_chemical_formula_structural       Al6Ge8La4
_chemical_formula_sum              "Al6 Ge8 La4"
_cell_length_a       6.15533
_cell_length_b       8.0574
_cell_length_c       8.21698
_cell_angle_alpha    90
_cell_angle_beta     68.0036
_cell_angle_gamma    90

_space_group_name_H-M_alt    "P 1"
_space_group_IT_number       1

loop_
  _space_group_symop_operation_xyz
  'x, y, z'

loop_
  _atom_site_type_symbol
  _atom_site_label
  _atom_site_symmetry_multiplicity
  _atom_site_fract_x
  _atom_site_fract_y
  _atom_site_fract_z
  _atom_site_occupancy
  Al  Al1       1.0  0.00000  0.00000  0.00000  1.0000
  Al  Al2       1.0  0.50000  0.50000  0.00000  1.0000
  Al  Al3       1.0  0.03420  0.75000  0.43200  1.0000
  Al  Al4       1.0  0.53400  0.75000  0.43200  1.0000
  Al  Al5       1.0  0.46600  0.25000  0.56800  1.0000
  Al  Al6       1.0  0.96600  0.25000  0.56800  1.0000
  Ge  Ge1       1.0  0.20100  0.75000  0.09800  1.0000
  Ge  Ge2       1.0  0.70100  0.75000  0.09800  1.0000
  Ge  Ge3       1.0  0.81300  0.05170  0.37400  1.0000
  Ge  Ge4       1.0  0.31300  0.44800  0.37400  1.0000
  Ge  Ge5       1.0  0.68700  0.55200  0.62600  1.0000
  Ge  Ge6       1.0  0.18700  0.94800  0.62600  1.0000
  Ge  Ge7       1.0  0.29900  0.25000  0.90200  1.0000
  Ge  Ge8       1.0  0.79900  0.25000  0.90200  1.0000
  La  La1       1.0  0.38600  0.08280  0.22800  1.0000
  La  La2       1.0  0.88600  0.41700  0.22800  1.0000
  La  La3       1.0  0.11400  0.58300  0.77200  1.0000
  La  La4       1.0  0.61400  0.91700  0.77200  1.0000
