data_image0
_chemical_formula_structural       Sb4Si4Tm10
_chemical_formula_sum              "Sb4 Si4 Tm10"
_cell_length_a       7.73748
_cell_length_b       7.76591
_cell_length_c       8.40279
_cell_angle_alpha    90
_cell_angle_beta     62.5863
_cell_angle_gamma    90

_space_group_name_H-M_alt    "P 1"
_space_group_IT_number       1

loop_
  _space_group_symop_operation_xyz
  'x, y, z'

loop_
  _atom_site_type_symbol
  _atom_site_label
  _atom_site_symmetry_multiplicity
  _atom_site_fract_x
  _atom_site_fract_y
  _atom_site_fract_z
  _atom_site_occupancy
  Sb  Sb1       1.0  0.79400  0.00000  0.41200  1.0000
  Sb  Sb2       1.0  0.29400  0.50000  0.41200  1.0000
  Sb  Sb3       1.0  0.20600  0.00000  0.58800  1.0000
  Sb  Sb4       1.0  0.70600  0.50000  0.58800  1.0000
  Si  Si1       1.0  0.63400  0.13300  0.00000  1.0000
  Si  Si2       1.0  0.13400  0.36700  0.00000  1.0000
  Si  Si3       1.0  0.86600  0.63300  0.00000  1.0000
  Si  Si4       1.0  0.36600  0.86700  0.00000  1.0000
  Tm  Tm1       1.0  0.00000  0.00000  0.00000  1.0000
  Tm  Tm2       1.0  0.50000  0.50000  0.00000  1.0000
  Tm  Tm3       1.0  0.21000  0.16500  0.25000  1.0000
  Tm  Tm4       1.0  0.71000  0.33500  0.25000  1.0000
  Tm  Tm5       1.0  0.03990  0.66500  0.25000  1.0000
  Tm  Tm6       1.0  0.54000  0.83500  0.25000  1.0000
  Tm  Tm7       1.0  0.46000  0.16500  0.75000  1.0000
  Tm  Tm8       1.0  0.96000  0.33500  0.75000  1.0000
  Tm  Tm9       1.0  0.29000  0.66500  0.75000  1.0000
  Tm  Tm10      1.0  0.79000  0.83500  0.75000  1.0000
