data_image0
_chemical_formula_structural       Bi6Cu2Gd10
_chemical_formula_sum              "Bi6 Cu2 Gd10"
_cell_length_a       9.38776
_cell_length_b       9.38776
_cell_length_c       6.44376
_cell_angle_alpha    90
_cell_angle_beta     90
_cell_angle_gamma    120.001

_space_group_name_H-M_alt    "P 1"
_space_group_IT_number       1

loop_
  _space_group_symop_operation_xyz
  'x, y, z'

loop_
  _atom_site_type_symbol
  _atom_site_label
  _atom_site_symmetry_multiplicity
  _atom_site_fract_x
  _atom_site_fract_y
  _atom_site_fract_z
  _atom_site_occupancy
  Bi  Bi1       1.0  0.61500  0.00000  0.25000  1.0000
  Bi  Bi2       1.0  0.00000  0.61500  0.25000  1.0000
  Bi  Bi3       1.0  0.38500  0.38500  0.25000  1.0000
  Bi  Bi4       1.0  0.38500  0.00000  0.75000  1.0000
  Bi  Bi5       1.0  0.00000  0.38500  0.75000  1.0000
  Bi  Bi6       1.0  0.61500  0.61500  0.75000  1.0000
  Cu  Cu1       1.0  1.00000  1.00000  0.00000  1.0000
  Cu  Cu2       1.0  0.00000  0.00000  0.50000  1.0000
  Gd  Gd1       1.0  0.66700  0.33300  0.00000  1.0000
  Gd  Gd2       1.0  0.33300  0.66700  0.00000  1.0000
  Gd  Gd3       1.0  0.25600  0.00000  0.25000  1.0000
  Gd  Gd4       1.0  0.00000  0.25600  0.25000  1.0000
  Gd  Gd5       1.0  0.74400  0.74400  0.25000  1.0000
  Gd  Gd6       1.0  0.66700  0.33300  0.50000  1.0000
  Gd  Gd7       1.0  0.33300  0.66700  0.50000  1.0000
  Gd  Gd8       1.0  0.74400  0.00000  0.75000  1.0000
  Gd  Gd9       1.0  0.00000  0.74400  0.75000  1.0000
  Gd  Gd10      1.0  0.25600  0.25600  0.75000  1.0000
