data_image0
_chemical_formula_structural       Li13Sn5
_chemical_formula_sum              "Li13 Sn5"
_cell_length_a       4.6178
_cell_length_b       4.61787
_cell_length_c       16.8595
_cell_angle_alpha    90
_cell_angle_beta     89.9997
_cell_angle_gamma    120.001

_space_group_name_H-M_alt    "P 1"
_space_group_IT_number       1

loop_
  _space_group_symop_operation_xyz
  'x, y, z'

loop_
  _atom_site_type_symbol
  _atom_site_label
  _atom_site_symmetry_multiplicity
  _atom_site_fract_x
  _atom_site_fract_y
  _atom_site_fract_z
  _atom_site_occupancy
  Li  Li1       1.0  0.66700  0.33300  0.05290  1.0000
  Li  Li2       1.0  0.33300  0.66700  0.11200  1.0000
  Li  Li3       1.0  0.00001  0.00000  0.16400  1.0000
  Li  Li4       1.0  0.33300  0.66700  0.28400  1.0000
  Li  Li5       1.0  0.00000  0.00000  0.32700  1.0000
  Li  Li6       1.0  0.33300  0.66700  0.44600  1.0000
  Li  Li7       1.0  0.00000  0.00000  0.50000  1.0000
  Li  Li8       1.0  0.66700  0.33300  0.55400  1.0000
  Li  Li9       1.0  0.00000  0.00000  0.67300  1.0000
  Li  Li10      1.0  0.66700  0.33300  0.71600  1.0000
  Li  Li11      1.0  0.00000  0.00000  0.83600  1.0000
  Li  Li12      1.0  0.66700  0.33300  0.88800  1.0000
  Li  Li13      1.0  0.33300  0.66700  0.94700  1.0000
  Sn  Sn1       1.0  0.00000  0.00000  0.00000  1.0000
  Sn  Sn2       1.0  0.66700  0.33300  0.22100  1.0000
  Sn  Sn3       1.0  0.66700  0.33300  0.39200  1.0000
  Sn  Sn4       1.0  0.33300  0.66700  0.60800  1.0000
  Sn  Sn5       1.0  0.33300  0.66700  0.77900  1.0000
