data_image0
_chemical_formula_structural       Ge2Li4O10V2
_chemical_formula_sum              "Ge2 Li4 O10 V2"
_cell_length_a       6.50782
_cell_length_b       6.50782
_cell_length_c       4.49927
_cell_angle_alpha    90
_cell_angle_beta     90
_cell_angle_gamma    90

_space_group_name_H-M_alt    "P 1"
_space_group_IT_number       1

loop_
  _space_group_symop_operation_xyz
  'x, y, z'

loop_
  _atom_site_type_symbol
  _atom_site_label
  _atom_site_symmetry_multiplicity
  _atom_site_fract_x
  _atom_site_fract_y
  _atom_site_fract_z
  _atom_site_occupancy
  Ge  Ge1       1.0  0.75000  0.25000  0.50000  1.0000
  Ge  Ge2       1.0  0.25000  0.75000  0.50000  1.0000
  Li  Li1       1.0  0.00000  0.00000  0.00000  1.0000
  Li  Li2       1.0  0.50000  0.00000  0.00000  1.0000
  Li  Li3       1.0  0.00000  0.50000  0.00000  1.0000
  Li  Li4       1.0  0.50000  0.50000  0.00000  1.0000
  O   O1        1.0  0.25000  0.25000  0.22500  1.0000
  O   O2        1.0  0.75000  0.03660  0.26100  1.0000
  O   O3        1.0  0.75000  0.46300  0.26100  1.0000
  O   O4        1.0  0.03660  0.75000  0.26100  1.0000
  O   O5        1.0  0.46300  0.75000  0.26100  1.0000
  O   O6        1.0  0.53700  0.25000  0.73900  1.0000
  O   O7        1.0  0.96300  0.25000  0.73900  1.0000
  O   O8        1.0  0.25000  0.53700  0.73900  1.0000
  O   O9        1.0  0.25000  0.96300  0.73900  1.0000
  O   O10       1.0  0.75000  0.75000  0.77500  1.0000
  V   V1        1.0  0.75000  0.75000  0.40200  1.0000
  V   V2        1.0  0.25000  0.25000  0.59800  1.0000
