data_image0
_chemical_formula_structural       Ag4K4Se8Sn2
_chemical_formula_sum              "Ag4 K4 Se8 Sn2"
_cell_length_a       7.64771
_cell_length_b       5.98292
_cell_length_c       12.4229
_cell_angle_alpha    90
_cell_angle_beta     113.873
_cell_angle_gamma    90

_space_group_name_H-M_alt    "P 1"
_space_group_IT_number       1

loop_
  _space_group_symop_operation_xyz
  'x, y, z'

loop_
  _atom_site_type_symbol
  _atom_site_label
  _atom_site_symmetry_multiplicity
  _atom_site_fract_x
  _atom_site_fract_y
  _atom_site_fract_z
  _atom_site_occupancy
  Ag  Ag1       1.0  0.49900  0.75000  0.03060  1.0000
  Ag  Ag2       1.0  0.50100  0.75000  0.46900  1.0000
  Ag  Ag3       1.0  0.49900  0.25000  0.53100  1.0000
  Ag  Ag4       1.0  0.50100  0.25000  0.96900  1.0000
  K   K1        1.0  0.00000  0.00000  0.00000  1.0000
  K   K2        1.0  0.00000  0.52100  0.25000  1.0000
  K   K3        1.0  0.00000  0.00000  0.50000  1.0000
  K   K4        1.0  0.00000  0.47900  0.75000  1.0000
  Se  Se1       1.0  0.26500  0.47000  0.07300  1.0000
  Se  Se2       1.0  0.73600  0.03050  0.18900  1.0000
  Se  Se3       1.0  0.26400  0.03050  0.31100  1.0000
  Se  Se4       1.0  0.73500  0.47000  0.42700  1.0000
  Se  Se5       1.0  0.26500  0.53000  0.57300  1.0000
  Se  Se6       1.0  0.73600  0.97000  0.68900  1.0000
  Se  Se7       1.0  0.26400  0.97000  0.81100  1.0000
  Se  Se8       1.0  0.73500  0.53000  0.92700  1.0000
  Sn  Sn1       1.0  0.50000  0.24900  0.25000  1.0000
  Sn  Sn2       1.0  0.50000  0.75100  0.75000  1.0000
