data_image0
_chemical_formula_structural       Al4Fe6Si8
_chemical_formula_sum              "Al4 Fe6 Si8"
_cell_length_a       3.64952
_cell_length_b       6.36688
_cell_length_c       10.057
_cell_angle_alpha    90
_cell_angle_beta     90
_cell_angle_gamma    73.3454

_space_group_name_H-M_alt    "P 1"
_space_group_IT_number       1

loop_
  _space_group_symop_operation_xyz
  'x, y, z'

loop_
  _atom_site_type_symbol
  _atom_site_label
  _atom_site_symmetry_multiplicity
  _atom_site_fract_x
  _atom_site_fract_y
  _atom_site_fract_z
  _atom_site_occupancy
  Al  Al1       1.0  0.05760  0.88500  0.10900  1.0000
  Al  Al2       1.0  0.05760  0.88500  0.39100  1.0000
  Al  Al3       1.0  0.94200  0.11500  0.60900  1.0000
  Al  Al4       1.0  0.94200  0.11500  0.89100  1.0000
  Fe  Fe1       1.0  0.85100  0.29900  0.12500  1.0000
  Fe  Fe2       1.0  0.64800  0.70500  0.25000  1.0000
  Fe  Fe3       1.0  0.85100  0.29900  0.37500  1.0000
  Fe  Fe4       1.0  0.14900  0.70100  0.62500  1.0000
  Fe  Fe5       1.0  0.35200  0.29500  0.75000  1.0000
  Fe  Fe6       1.0  0.14900  0.70100  0.87500  1.0000
  Si  Si1       1.0  0.68000  0.63900  0.01360  1.0000
  Si  Si2       1.0  0.45500  0.09060  0.25000  1.0000
  Si  Si3       1.0  0.25900  0.48200  0.25000  1.0000
  Si  Si4       1.0  0.68000  0.63900  0.48600  1.0000
  Si  Si5       1.0  0.32000  0.36100  0.51400  1.0000
  Si  Si6       1.0  0.74100  0.51800  0.75000  1.0000
  Si  Si7       1.0  0.54500  0.90900  0.75000  1.0000
  Si  Si8       1.0  0.32000  0.36100  0.98600  1.0000
