data_image0
_chemical_formula_structural       Ca2Fe6O10
_chemical_formula_sum              "Ca2 Fe6 O10"
_cell_length_a       3.01966
_cell_length_b       5.27069
_cell_length_c       12.5729
_cell_angle_alpha    90
_cell_angle_beta     90
_cell_angle_gamma    73.354

_space_group_name_H-M_alt    "P 1"
_space_group_IT_number       1

loop_
  _space_group_symop_operation_xyz
  'x, y, z'

loop_
  _atom_site_type_symbol
  _atom_site_label
  _atom_site_symmetry_multiplicity
  _atom_site_fract_x
  _atom_site_fract_y
  _atom_site_fract_z
  _atom_site_occupancy
  Ca  Ca1       1.0  0.52100  0.95800  0.25000  1.0000
  Ca  Ca2       1.0  0.47900  0.04200  0.75000  1.0000
  Fe  Fe1       1.0  0.00000  0.00000  0.00000  1.0000
  Fe  Fe2       1.0  0.26800  0.46500  0.10900  1.0000
  Fe  Fe3       1.0  0.26800  0.46500  0.39100  1.0000
  Fe  Fe4       1.0  0.00000  0.00000  0.50000  1.0000
  Fe  Fe5       1.0  0.73200  0.53500  0.60900  1.0000
  Fe  Fe6       1.0  0.73200  0.53500  0.89100  1.0000
  O   O1        1.0  0.64900  0.70200  0.05120  1.0000
  O   O2        1.0  0.90100  0.19900  0.13800  1.0000
  O   O3        1.0  0.18900  0.62100  0.25000  1.0000
  O   O4        1.0  0.90100  0.19900  0.36200  1.0000
  O   O5        1.0  0.64900  0.70200  0.44900  1.0000
  O   O6        1.0  0.35100  0.29800  0.55100  1.0000
  O   O7        1.0  0.09930  0.80100  0.63800  1.0000
  O   O8        1.0  0.81100  0.37900  0.75000  1.0000
  O   O9        1.0  0.09930  0.80100  0.86200  1.0000
  O   O10       1.0  0.35100  0.29800  0.94900  1.0000
