data_image0
_chemical_formula_structural       C10Tb8
_chemical_formula_sum              "C10 Tb8"
_cell_length_a       6.61502
_cell_length_b       12.0286
_cell_length_c       3.68572
_cell_angle_alpha    90
_cell_angle_beta     90
_cell_angle_gamma    90

_space_group_name_H-M_alt    "P 1"
_space_group_IT_number       1

loop_
  _space_group_symop_operation_xyz
  'x, y, z'

loop_
  _atom_site_type_symbol
  _atom_site_label
  _atom_site_symmetry_multiplicity
  _atom_site_fract_x
  _atom_site_fract_y
  _atom_site_fract_z
  _atom_site_occupancy
  C   C1        1.0  0.59900  0.15700  0.00000  1.0000
  C   C2        1.0  0.14100  0.23500  0.00000  1.0000
  C   C3        1.0  0.64100  0.26500  0.00000  1.0000
  C   C4        1.0  0.09930  0.34300  0.00000  1.0000
  C   C5        1.0  0.90100  0.65700  0.00000  1.0000
  C   C6        1.0  0.35900  0.73500  0.00000  1.0000
  C   C7        1.0  0.85900  0.76500  0.00000  1.0000
  C   C8        1.0  0.40100  0.84300  0.00000  1.0000
  C   C9        1.0  0.00000  0.00000  0.50000  1.0000
  C   C10       1.0  0.50000  0.50000  0.50000  1.0000
  Tb  Tb1       1.0  0.24500  0.04160  0.00000  1.0000
  Tb  Tb2       1.0  0.74500  0.45800  0.00000  1.0000
  Tb  Tb3       1.0  0.25500  0.54200  0.00000  1.0000
  Tb  Tb4       1.0  0.75500  0.95800  0.00000  1.0000
  Tb  Tb5       1.0  0.89400  0.19700  0.50000  1.0000
  Tb  Tb6       1.0  0.39400  0.30300  0.50000  1.0000
  Tb  Tb7       1.0  0.60600  0.69700  0.50000  1.0000
  Tb  Tb8       1.0  0.10600  0.80300  0.50000  1.0000
