data_image0
_chemical_formula_structural       Cr2Na8O8
_chemical_formula_sum              "Cr2 Na8 O8"
_cell_length_a       8.55633
_cell_length_b       5.67436
_cell_length_c       6.35972
_cell_angle_alpha    124.023
_cell_angle_beta     98.0988
_cell_angle_gamma    99.2354

_space_group_name_H-M_alt    "P 1"
_space_group_IT_number       1

loop_
  _space_group_symop_operation_xyz
  'x, y, z'

loop_
  _atom_site_type_symbol
  _atom_site_label
  _atom_site_symmetry_multiplicity
  _atom_site_fract_x
  _atom_site_fract_y
  _atom_site_fract_z
  _atom_site_occupancy
  Cr  Cr1       1.0  0.75700  0.43400  0.15400  1.0000
  Cr  Cr2       1.0  0.24300  0.56600  0.84600  1.0000
  Na  Na1       1.0  0.60600  0.81100  0.04920  1.0000
  Na  Na2       1.0  0.01670  0.99200  0.24100  1.0000
  Na  Na3       1.0  0.18000  0.66000  0.40100  1.0000
  Na  Na4       1.0  0.43200  0.21300  0.48000  1.0000
  Na  Na5       1.0  0.56800  0.78700  0.52000  1.0000
  Na  Na6       1.0  0.82000  0.34000  0.59900  1.0000
  Na  Na7       1.0  0.98300  0.00790  0.75900  1.0000
  Na  Na8       1.0  0.39400  0.18900  0.95100  1.0000
  O   O1        1.0  0.93100  0.29800  0.15400  1.0000
  O   O2        1.0  0.36100  0.69200  0.16800  1.0000
  O   O3        1.0  0.62000  0.32100  0.29600  1.0000
  O   O4        1.0  0.80400  0.83600  0.36300  1.0000
  O   O5        1.0  0.19600  0.16400  0.63700  1.0000
  O   O6        1.0  0.38000  0.67900  0.70400  1.0000
  O   O7        1.0  0.63900  0.30800  0.83200  1.0000
  O   O8        1.0  0.06920  0.70200  0.84600  1.0000
