data_image0
_chemical_formula_structural       As6Gd3Pd9
_chemical_formula_sum              "As6 Gd3 Pd9"
_cell_length_a       4.07191
_cell_length_b       8.59448
_cell_length_c       9.99826
_cell_angle_alpha    107.245
_cell_angle_beta     90
_cell_angle_gamma    103.703

_space_group_name_H-M_alt    "P 1"
_space_group_IT_number       1

loop_
  _space_group_symop_operation_xyz
  'x, y, z'

loop_
  _atom_site_type_symbol
  _atom_site_label
  _atom_site_symmetry_multiplicity
  _atom_site_fract_x
  _atom_site_fract_y
  _atom_site_fract_z
  _atom_site_occupancy
  As  As1       1.0  0.19900  0.39700  0.13100  1.0000
  As  As2       1.0  0.46000  0.91900  0.21100  1.0000
  As  As3       1.0  0.63600  0.27300  0.45500  1.0000
  As  As4       1.0  0.36400  0.72700  0.54500  1.0000
  As  As5       1.0  0.54000  0.08050  0.78900  1.0000
  As  As6       1.0  0.80100  0.60300  0.86900  1.0000
  Gd  Gd1       1.0  0.00000  0.00000  0.00000  1.0000
  Gd  Gd2       1.0  0.84700  0.69400  0.30100  1.0000
  Gd  Gd3       1.0  0.15300  0.30600  0.69900  1.0000
  Pd  Pd1       1.0  0.31900  0.63900  0.03500  1.0000
  Pd  Pd2       1.0  0.62000  0.24000  0.19600  1.0000
  Pd  Pd3       1.0  0.04090  0.08180  0.33000  1.0000
  Pd  Pd4       1.0  0.22100  0.44200  0.38900  1.0000
  Pd  Pd5       1.0  0.50000  0.00000  0.50000  1.0000
  Pd  Pd6       1.0  0.77900  0.55800  0.61100  1.0000
  Pd  Pd7       1.0  0.95900  0.91800  0.67000  1.0000
  Pd  Pd8       1.0  0.38000  0.76000  0.80400  1.0000
  Pd  Pd9       1.0  0.68100  0.36100  0.96500  1.0000
