data_image0
_chemical_formula_structural       F4O8Pb4S2
_chemical_formula_sum              "F4 O8 Pb4 S2"
_cell_length_a       4.40928
_cell_length_b       7.42259
_cell_length_c       8.57124
_cell_angle_alpha    106.983
_cell_angle_beta     90
_cell_angle_gamma    107.279

_space_group_name_H-M_alt    "P 1"
_space_group_IT_number       1

loop_
  _space_group_symop_operation_xyz
  'x, y, z'

loop_
  _atom_site_type_symbol
  _atom_site_label
  _atom_site_symmetry_multiplicity
  _atom_site_fract_x
  _atom_site_fract_y
  _atom_site_fract_z
  _atom_site_occupancy
  F   F1        1.0  0.21900  0.49000  0.12100  1.0000
  F   F2        1.0  0.72900  0.51000  0.37900  1.0000
  F   F3        1.0  0.27100  0.49000  0.62100  1.0000
  F   F4        1.0  0.78100  0.51000  0.87900  1.0000
  O   O1        1.0  0.24000  0.99400  0.10700  1.0000
  O   O2        1.0  0.76700  0.81700  0.20900  1.0000
  O   O3        1.0  0.94900  0.18300  0.29100  1.0000
  O   O4        1.0  0.24700  0.00641  0.39300  1.0000
  O   O5        1.0  0.75300  0.99400  0.60700  1.0000
  O   O6        1.0  0.05080  0.81700  0.70900  1.0000
  O   O7        1.0  0.23300  0.18300  0.79100  1.0000
  O   O8        1.0  0.76000  0.00641  0.89300  1.0000
  Pb  Pb1       1.0  0.64100  0.31000  0.07650  1.0000
  Pb  Pb2       1.0  0.33100  0.69000  0.42400  1.0000
  Pb  Pb3       1.0  0.66900  0.31000  0.57600  1.0000
  Pb  Pb4       1.0  0.35900  0.69000  0.92400  1.0000
  S   S1        1.0  0.04430  0.00000  0.25000  1.0000
  S   S2        1.0  0.95600  0.00000  0.75000  1.0000
