data_image0
_chemical_formula_structural       Ce6Pd10Si2
_chemical_formula_sum              "Ce6 Pd10 Si2"
_cell_length_a       7.49834
_cell_length_b       7.66324
_cell_length_c       8.46541
_cell_angle_alpha    116.912
_cell_angle_beta     116.288
_cell_angle_gamma    90

_space_group_name_H-M_alt    "P 1"
_space_group_IT_number       1

loop_
  _space_group_symop_operation_xyz
  'x, y, z'

loop_
  _atom_site_type_symbol
  _atom_site_label
  _atom_site_symmetry_multiplicity
  _atom_site_fract_x
  _atom_site_fract_y
  _atom_site_fract_z
  _atom_site_occupancy
  Ce  Ce1       1.0  0.75000  0.38800  0.00000  1.0000
  Ce  Ce2       1.0  0.25000  0.61200  0.00000  1.0000
  Ce  Ce3       1.0  0.45000  0.17500  0.40000  1.0000
  Ce  Ce4       1.0  0.95000  0.22500  0.40000  1.0000
  Ce  Ce5       1.0  0.05000  0.77500  0.60000  1.0000
  Ce  Ce6       1.0  0.55000  0.82500  0.60000  1.0000
  Pd  Pd1       1.0  0.00000  0.00000  0.00000  1.0000
  Pd  Pd2       1.0  0.50000  0.00000  0.00000  1.0000
  Pd  Pd3       1.0  0.19400  0.45500  0.28400  1.0000
  Pd  Pd4       1.0  0.59000  0.45500  0.28400  1.0000
  Pd  Pd5       1.0  0.08990  0.83000  0.28400  1.0000
  Pd  Pd6       1.0  0.69400  0.83000  0.28400  1.0000
  Pd  Pd7       1.0  0.30600  0.17000  0.71600  1.0000
  Pd  Pd8       1.0  0.91000  0.17000  0.71600  1.0000
  Pd  Pd9       1.0  0.41000  0.54500  0.71600  1.0000
  Pd  Pd10      1.0  0.80600  0.54500  0.71600  1.0000
  Si  Si1       1.0  0.25000  0.21100  0.00000  1.0000
  Si  Si2       1.0  0.75000  0.78900  0.00000  1.0000
