data_image0
_chemical_formula_structural       Ba4Bi8Cd6
_chemical_formula_sum              "Ba4 Bi8 Cd6"
_cell_length_a       7.02134
_cell_length_b       9.41775
_cell_length_c       9.51966
_cell_angle_alpha    90
_cell_angle_beta     68.3596
_cell_angle_gamma    90

_space_group_name_H-M_alt    "P 1"
_space_group_IT_number       1

loop_
  _space_group_symop_operation_xyz
  'x, y, z'

loop_
  _atom_site_type_symbol
  _atom_site_label
  _atom_site_symmetry_multiplicity
  _atom_site_fract_x
  _atom_site_fract_y
  _atom_site_fract_z
  _atom_site_occupancy
  Ba  Ba1       1.0  0.88300  0.57700  0.23500  1.0000
  Ba  Ba2       1.0  0.38300  0.92300  0.23500  1.0000
  Ba  Ba3       1.0  0.61700  0.07700  0.76500  1.0000
  Ba  Ba4       1.0  0.11700  0.42300  0.76500  1.0000
  Bi  Bi1       1.0  0.19900  0.25000  0.10200  1.0000
  Bi  Bi2       1.0  0.69900  0.25000  0.10200  1.0000
  Bi  Bi3       1.0  0.31500  0.55200  0.37000  1.0000
  Bi  Bi4       1.0  0.81500  0.94800  0.37000  1.0000
  Bi  Bi5       1.0  0.18500  0.05240  0.63000  1.0000
  Bi  Bi6       1.0  0.68500  0.44800  0.63000  1.0000
  Bi  Bi7       1.0  0.30100  0.75000  0.89800  1.0000
  Bi  Bi8       1.0  0.80100  0.75000  0.89800  1.0000
  Cd  Cd1       1.0  0.00000  0.00000  0.00000  1.0000
  Cd  Cd2       1.0  0.50000  0.50000  0.00000  1.0000
  Cd  Cd3       1.0  0.02980  0.25000  0.44000  1.0000
  Cd  Cd4       1.0  0.53000  0.25000  0.44000  1.0000
  Cd  Cd5       1.0  0.47000  0.75000  0.56000  1.0000
  Cd  Cd6       1.0  0.97000  0.75000  0.56000  1.0000
