data_image0
_chemical_formula_structural       B3Li3Mn3O9
_chemical_formula_sum              "B3 Li3 Mn3 O9"
_cell_length_a       8.16386
_cell_length_b       8.16392
_cell_length_c       3.1259
_cell_angle_alpha    90
_cell_angle_beta     90
_cell_angle_gamma    120

_space_group_name_H-M_alt    "P 1"
_space_group_IT_number       1

loop_
  _space_group_symop_operation_xyz
  'x, y, z'

loop_
  _atom_site_type_symbol
  _atom_site_label
  _atom_site_symmetry_multiplicity
  _atom_site_fract_x
  _atom_site_fract_y
  _atom_site_fract_z
  _atom_site_occupancy
  B   B1        1.0  0.00000  0.00000  0.00000  1.0000
  B   B2        1.0  0.66700  0.33300  0.50000  1.0000
  B   B3        1.0  0.33300  0.66700  0.50000  1.0000
  Li  Li1       1.0  0.01810  0.30100  0.50000  1.0000
  Li  Li2       1.0  0.69900  0.71700  0.50000  1.0000
  Li  Li3       1.0  0.28300  0.98200  0.50000  1.0000
  Mn  Mn1       1.0  0.64200  0.01280  0.00000  1.0000
  Mn  Mn2       1.0  0.37100  0.35800  0.00000  1.0000
  Mn  Mn3       1.0  0.98700  0.62900  0.00000  1.0000
  O   O1        1.0  0.07680  0.19500  0.00000  1.0000
  O   O2        1.0  0.80500  0.88200  0.00000  1.0000
  O   O3        1.0  0.11800  0.92300  0.00000  1.0000
  O   O4        1.0  0.75300  0.22400  0.50000  1.0000
  O   O5        1.0  0.47100  0.24700  0.50000  1.0000
  O   O6        1.0  0.77600  0.52900  0.50000  1.0000
  O   O7        1.0  0.42200  0.56000  0.50000  1.0000
  O   O8        1.0  0.13800  0.57800  0.50000  1.0000
  O   O9        1.0  0.44000  0.86200  0.50000  1.0000
