data_image0
_chemical_formula_structural       La4O12S2
_chemical_formula_sum              "La4 O12 S2"
_cell_length_a       4.25711
_cell_length_b       7.4678
_cell_length_c       8.32834
_cell_angle_alpha    106.237
_cell_angle_beta     90
_cell_angle_gamma    106.561

_space_group_name_H-M_alt    "P 1"
_space_group_IT_number       1

loop_
  _space_group_symop_operation_xyz
  'x, y, z'

loop_
  _atom_site_type_symbol
  _atom_site_label
  _atom_site_symmetry_multiplicity
  _atom_site_fract_x
  _atom_site_fract_y
  _atom_site_fract_z
  _atom_site_occupancy
  La  La1       1.0  0.66400  0.33400  0.08360  1.0000
  La  La2       1.0  0.33000  0.66600  0.41600  1.0000
  La  La3       1.0  0.67000  0.33400  0.58400  1.0000
  La  La4       1.0  0.33600  0.66600  0.91600  1.0000
  O   O1        1.0  0.26300  0.00140  0.10500  1.0000
  O   O2        1.0  0.23600  0.49400  0.12400  1.0000
  O   O3        1.0  0.77300  0.82000  0.20300  1.0000
  O   O4        1.0  0.95300  0.18000  0.29700  1.0000
  O   O5        1.0  0.74300  0.50600  0.37600  1.0000
  O   O6        1.0  0.26100  0.99900  0.39500  1.0000
  O   O7        1.0  0.73900  0.00140  0.60500  1.0000
  O   O8        1.0  0.25700  0.49400  0.62400  1.0000
  O   O9        1.0  0.04730  0.82000  0.70300  1.0000
  O   O10       1.0  0.22700  0.18000  0.79700  1.0000
  O   O11       1.0  0.76400  0.50600  0.87600  1.0000
  O   O12       1.0  0.73700  0.99900  0.89500  1.0000
  S   S1        1.0  0.05680  0.00000  0.25000  1.0000
  S   S2        1.0  0.94300  0.00000  0.75000  1.0000
