data_image0
_chemical_formula_structural       Ni6Rb4Se8
_chemical_formula_sum              "Ni6 Rb4 Se8"
_cell_length_a       6.09049
_cell_length_b       6.13648
_cell_length_c       14.1721
_cell_angle_alpha    96.1212
_cell_angle_beta     77.5918
_cell_angle_gamma    119.752

_space_group_name_H-M_alt    "P 1"
_space_group_IT_number       1

loop_
  _space_group_symop_operation_xyz
  'x, y, z'

loop_
  _atom_site_type_symbol
  _atom_site_label
  _atom_site_symmetry_multiplicity
  _atom_site_fract_x
  _atom_site_fract_y
  _atom_site_fract_z
  _atom_site_occupancy
  Ni  Ni1       1.0  0.87500  0.75000  0.24900  1.0000
  Ni  Ni2       1.0  0.87500  0.25000  0.25000  1.0000
  Ni  Ni3       1.0  0.37500  0.75000  0.25100  1.0000
  Ni  Ni4       1.0  0.62500  0.25000  0.74900  1.0000
  Ni  Ni5       1.0  0.12500  0.75000  0.75000  1.0000
  Ni  Ni6       1.0  0.12500  0.25000  0.75100  1.0000
  Rb  Rb1       1.0  0.45200  0.25000  0.09560  1.0000
  Rb  Rb2       1.0  0.29800  0.25000  0.40400  1.0000
  Rb  Rb3       1.0  0.70200  0.75000  0.59600  1.0000
  Rb  Rb4       1.0  0.54800  0.75000  0.90400  1.0000
  Se  Se1       1.0  0.09900  0.58200  0.13900  1.0000
  Se  Se2       1.0  0.76200  0.91800  0.13900  1.0000
  Se  Se3       1.0  0.98300  0.58200  0.36100  1.0000
  Se  Se4       1.0  0.65600  0.91800  0.36100  1.0000
  Se  Se5       1.0  0.34400  0.08230  0.63900  1.0000
  Se  Se6       1.0  0.01670  0.41800  0.63900  1.0000
  Se  Se7       1.0  0.23800  0.08230  0.86100  1.0000
  Se  Se8       1.0  0.90100  0.41800  0.86100  1.0000
