data_image0
_chemical_formula_structural       Br8Cs4O4U2
_chemical_formula_sum              "Br8 Cs4 O4 U2"
_cell_length_a       10.051
_cell_length_b       9.81544
_cell_length_c       6.50044
_cell_angle_alpha    90
_cell_angle_beta     104.979
_cell_angle_gamma    90

_space_group_name_H-M_alt    "P 1"
_space_group_IT_number       1

loop_
  _space_group_symop_operation_xyz
  'x, y, z'

loop_
  _atom_site_type_symbol
  _atom_site_label
  _atom_site_symmetry_multiplicity
  _atom_site_fract_x
  _atom_site_fract_y
  _atom_site_fract_z
  _atom_site_occupancy
  Br  Br1       1.0  0.28500  0.94000  0.16500  1.0000
  Br  Br2       1.0  0.78500  0.56000  0.16500  1.0000
  Br  Br3       1.0  0.52600  0.26300  0.26300  1.0000
  Br  Br4       1.0  0.02580  0.23700  0.26300  1.0000
  Br  Br5       1.0  0.47400  0.73700  0.73700  1.0000
  Br  Br6       1.0  0.97400  0.76300  0.73700  1.0000
  Br  Br7       1.0  0.71500  0.06040  0.83500  1.0000
  Br  Br8       1.0  0.21500  0.44000  0.83500  1.0000
  Cs  Cs1       1.0  0.16200  0.61600  0.32100  1.0000
  Cs  Cs2       1.0  0.66200  0.88400  0.32100  1.0000
  Cs  Cs3       1.0  0.33800  0.11600  0.67900  1.0000
  Cs  Cs4       1.0  0.83800  0.38400  0.67900  1.0000
  O   O1        1.0  0.46100  0.60200  0.20300  1.0000
  O   O2        1.0  0.96100  0.89800  0.20300  1.0000
  O   O3        1.0  0.53900  0.39800  0.79700  1.0000
  O   O4        1.0  0.03920  0.10200  0.79700  1.0000
  U   U1        1.0  0.00000  0.00000  0.00000  1.0000
  U   U2        1.0  0.50000  0.50000  0.00000  1.0000
