data_image0
_chemical_formula_structural       Cl12Te4W2
_chemical_formula_sum              "Cl12 Te4 W2"
_cell_length_a       6.45384
_cell_length_b       7.6053
_cell_length_c       11.2068
_cell_angle_alpha    101.751
_cell_angle_beta     103.252
_cell_angle_gamma    89.8408

_space_group_name_H-M_alt    "P 1"
_space_group_IT_number       1

loop_
  _space_group_symop_operation_xyz
  'x, y, z'

loop_
  _atom_site_type_symbol
  _atom_site_label
  _atom_site_symmetry_multiplicity
  _atom_site_fract_x
  _atom_site_fract_y
  _atom_site_fract_z
  _atom_site_occupancy
  Cl  Cl1       1.0  0.13700  0.71000  0.00147  1.0000
  Cl  Cl2       1.0  0.45500  0.19700  0.10900  1.0000
  Cl  Cl3       1.0  0.66500  0.61600  0.18000  1.0000
  Cl  Cl4       1.0  0.91900  0.04070  0.21600  1.0000
  Cl  Cl5       1.0  0.13400  0.45300  0.28300  1.0000
  Cl  Cl6       1.0  0.72700  0.36900  0.39600  1.0000
  Cl  Cl7       1.0  0.27300  0.63100  0.60400  1.0000
  Cl  Cl8       1.0  0.86600  0.54700  0.71700  1.0000
  Cl  Cl9       1.0  0.08120  0.95900  0.78400  1.0000
  Cl  Cl10      1.0  0.33500  0.38400  0.82000  1.0000
  Cl  Cl11      1.0  0.54500  0.80300  0.89100  1.0000
  Cl  Cl12      1.0  0.86300  0.29000  0.99900  1.0000
  Te  Te1       1.0  0.38200  0.90300  0.32400  1.0000
  Te  Te2       1.0  0.75000  0.85800  0.49300  1.0000
  Te  Te3       1.0  0.25000  0.14200  0.50700  1.0000
  Te  Te4       1.0  0.61800  0.09660  0.67600  1.0000
  W   W1        1.0  0.79100  0.32900  0.19400  1.0000
  W   W2        1.0  0.20900  0.67100  0.80600  1.0000
