data_image0
_chemical_formula_structural       Mo6Np4Si8
_chemical_formula_sum              "Mo6 Np4 Si8"
_cell_length_a       6.86816
_cell_length_b       6.89131
_cell_length_c       6.77451
_cell_angle_alpha    90
_cell_angle_beta     109.713
_cell_angle_gamma    90

_space_group_name_H-M_alt    "P 1"
_space_group_IT_number       1

loop_
  _space_group_symop_operation_xyz
  'x, y, z'

loop_
  _atom_site_type_symbol
  _atom_site_label
  _atom_site_symmetry_multiplicity
  _atom_site_fract_x
  _atom_site_fract_y
  _atom_site_fract_z
  _atom_site_occupancy
  Mo  Mo1       1.0  0.00000  0.00000  0.00000  1.0000
  Mo  Mo2       1.0  0.25100  0.33600  0.24700  1.0000
  Mo  Mo3       1.0  0.74900  0.83600  0.25300  1.0000
  Mo  Mo4       1.0  0.00000  0.50000  0.50000  1.0000
  Mo  Mo5       1.0  0.25100  0.16400  0.74700  1.0000
  Mo  Mo6       1.0  0.74900  0.66400  0.75300  1.0000
  Np  Np1       1.0  0.68200  0.33900  0.05570  1.0000
  Np  Np2       1.0  0.31800  0.83900  0.44400  1.0000
  Np  Np3       1.0  0.68200  0.16100  0.55600  1.0000
  Np  Np4       1.0  0.31800  0.66100  0.94400  1.0000
  Si  Si1       1.0  0.40900  0.04380  0.12800  1.0000
  Si  Si2       1.0  0.00055  0.63300  0.13300  1.0000
  Si  Si3       1.0  0.99900  0.13300  0.36700  1.0000
  Si  Si4       1.0  0.59100  0.54400  0.37200  1.0000
  Si  Si5       1.0  0.40900  0.45600  0.62800  1.0000
  Si  Si6       1.0  0.00055  0.86700  0.63300  1.0000
  Si  Si7       1.0  0.99900  0.36700  0.86700  1.0000
  Si  Si8       1.0  0.59100  0.95600  0.87200  1.0000
