data_image0
_chemical_formula_structural       Mn2O12Se4
_chemical_formula_sum              "Mn2 O12 Se4"
_cell_length_a       5.07089
_cell_length_b       6.53694
_cell_length_c       7.18332
_cell_angle_alpha    90
_cell_angle_beta     91.1399
_cell_angle_gamma    90

_space_group_name_H-M_alt    "P 1"
_space_group_IT_number       1

loop_
  _space_group_symop_operation_xyz
  'x, y, z'

loop_
  _atom_site_type_symbol
  _atom_site_label
  _atom_site_symmetry_multiplicity
  _atom_site_fract_x
  _atom_site_fract_y
  _atom_site_fract_z
  _atom_site_occupancy
  Mn  Mn1       1.0  0.00000  0.00000  0.00000  1.0000
  Mn  Mn2       1.0  0.50000  0.50000  0.50000  1.0000
  O   O1        1.0  0.31000  0.16400  0.99100  1.0000
  O   O2        1.0  0.69000  0.83600  0.00871  1.0000
  O   O3        1.0  0.80700  0.23900  0.07790  1.0000
  O   O4        1.0  0.43400  0.43100  0.24500  1.0000
  O   O5        1.0  0.06620  0.93100  0.25500  1.0000
  O   O6        1.0  0.69300  0.73900  0.42200  1.0000
  O   O7        1.0  0.81000  0.33600  0.49100  1.0000
  O   O8        1.0  0.19000  0.66400  0.50900  1.0000
  O   O9        1.0  0.30700  0.26100  0.57800  1.0000
  O   O10       1.0  0.93400  0.06920  0.74500  1.0000
  O   O11       1.0  0.56600  0.56900  0.75500  1.0000
  O   O12       1.0  0.19300  0.76100  0.92200  1.0000
  Se  Se1       1.0  0.51700  0.17900  0.19100  1.0000
  Se  Se2       1.0  0.98300  0.67900  0.30900  1.0000
  Se  Se3       1.0  0.01740  0.32100  0.69100  1.0000
  Se  Se4       1.0  0.48300  0.82100  0.80900  1.0000
