data_image0
_chemical_formula_structural       Ba4F12Pd2
_chemical_formula_sum              "Ba4 F12 Pd2"
_cell_length_a       6.10135
_cell_length_b       6.10307
_cell_length_c       9.00412
_cell_angle_alpha    70.1899
_cell_angle_beta     90
_cell_angle_gamma    90

_space_group_name_H-M_alt    "P 1"
_space_group_IT_number       1

loop_
  _space_group_symop_operation_xyz
  'x, y, z'

loop_
  _atom_site_type_symbol
  _atom_site_label
  _atom_site_symmetry_multiplicity
  _atom_site_fract_x
  _atom_site_fract_y
  _atom_site_fract_z
  _atom_site_occupancy
  Ba  Ba1       1.0  0.50000  0.34000  0.32100  1.0000
  Ba  Ba2       1.0  0.00000  0.84000  0.32100  1.0000
  Ba  Ba3       1.0  0.00000  0.16000  0.67900  1.0000
  Ba  Ba4       1.0  0.50000  0.66000  0.67900  1.0000
  F   F1        1.0  0.66300  0.07910  0.16600  1.0000
  F   F2        1.0  0.16300  0.25500  0.16600  1.0000
  F   F3        1.0  0.83700  0.57900  0.16600  1.0000
  F   F4        1.0  0.33700  0.75500  0.16600  1.0000
  F   F5        1.0  0.75000  0.00531  0.50000  1.0000
  F   F6        1.0  0.25000  0.49500  0.50000  1.0000
  F   F7        1.0  0.75000  0.50500  0.50000  1.0000
  F   F8        1.0  0.25000  0.99500  0.50000  1.0000
  F   F9        1.0  0.66300  0.24500  0.83400  1.0000
  F   F10       1.0  0.16300  0.42100  0.83400  1.0000
  F   F11       1.0  0.83700  0.74500  0.83400  1.0000
  F   F12       1.0  0.33700  0.92100  0.83400  1.0000
  Pd  Pd1       1.0  0.50000  0.00000  0.00000  1.0000
  Pd  Pd2       1.0  0.00000  0.50000  0.00000  1.0000
