data_image0
_chemical_formula_structural       Br8Os2Y8
_chemical_formula_sum              "Br8 Os2 Y8"
_cell_length_a       6.56939
_cell_length_b       8.89599
_cell_length_c       8.89599
_cell_angle_alpha    89.4232
_cell_angle_beta     90.5535
_cell_angle_gamma    90.5535

_space_group_name_H-M_alt    "P 1"
_space_group_IT_number       1

loop_
  _space_group_symop_operation_xyz
  'x, y, z'

loop_
  _atom_site_type_symbol
  _atom_site_label
  _atom_site_symmetry_multiplicity
  _atom_site_fract_x
  _atom_site_fract_y
  _atom_site_fract_z
  _atom_site_occupancy
  Br  Br1       1.0  0.90600  0.57900  0.18500  1.0000
  Br  Br2       1.0  0.40300  0.41600  0.19400  1.0000
  Br  Br3       1.0  0.90300  0.19400  0.41600  1.0000
  Br  Br4       1.0  0.59400  0.81500  0.42100  1.0000
  Br  Br5       1.0  0.40600  0.18500  0.57900  1.0000
  Br  Br6       1.0  0.09700  0.80600  0.58400  1.0000
  Br  Br7       1.0  0.59700  0.58400  0.80600  1.0000
  Br  Br8       1.0  0.09440  0.42100  0.81500  1.0000
  Os  Os1       1.0  0.25000  0.99500  0.00501  1.0000
  Os  Os2       1.0  0.75000  0.00501  0.99500  1.0000
  Y   Y1        1.0  0.00863  0.25100  0.09770  1.0000
  Y   Y2        1.0  0.51000  0.74800  0.09900  1.0000
  Y   Y3        1.0  0.50900  0.09770  0.25100  1.0000
  Y   Y4        1.0  0.99000  0.90100  0.25200  1.0000
  Y   Y5        1.0  0.00987  0.09900  0.74800  1.0000
  Y   Y6        1.0  0.49100  0.90200  0.74900  1.0000
  Y   Y7        1.0  0.49000  0.25200  0.90100  1.0000
  Y   Y8        1.0  0.99100  0.74900  0.90200  1.0000
