data_image0
_chemical_formula_structural       Si8U4W6
_chemical_formula_sum              "Si8 U4 W6"
_cell_length_a       6.87272
_cell_length_b       6.89838
_cell_length_c       6.75326
_cell_angle_alpha    90
_cell_angle_beta     109.849
_cell_angle_gamma    90

_space_group_name_H-M_alt    "P 1"
_space_group_IT_number       1

loop_
  _space_group_symop_operation_xyz
  'x, y, z'

loop_
  _atom_site_type_symbol
  _atom_site_label
  _atom_site_symmetry_multiplicity
  _atom_site_fract_x
  _atom_site_fract_y
  _atom_site_fract_z
  _atom_site_occupancy
  Si  Si1       1.0  0.91100  0.45600  0.13200  1.0000
  Si  Si2       1.0  0.49900  0.86700  0.13300  1.0000
  Si  Si3       1.0  0.50100  0.36700  0.36700  1.0000
  Si  Si4       1.0  0.08880  0.95600  0.36800  1.0000
  Si  Si5       1.0  0.91100  0.04390  0.63200  1.0000
  Si  Si6       1.0  0.49900  0.63300  0.63300  1.0000
  Si  Si7       1.0  0.50100  0.13300  0.86700  1.0000
  Si  Si8       1.0  0.08880  0.54400  0.86800  1.0000
  U   U1        1.0  0.18600  0.16500  0.05650  1.0000
  U   U2        1.0  0.81400  0.66500  0.44400  1.0000
  U   U3        1.0  0.18600  0.33500  0.55600  1.0000
  U   U4        1.0  0.81400  0.83500  0.94400  1.0000
  W   W1        1.0  0.50000  0.50000  0.00000  1.0000
  W   W2        1.0  0.75500  0.16300  0.24700  1.0000
  W   W3        1.0  0.24500  0.66300  0.25300  1.0000
  W   W4        1.0  0.50000  0.00000  0.50000  1.0000
  W   W5        1.0  0.75500  0.33700  0.74700  1.0000
  W   W6        1.0  0.24500  0.83700  0.75300  1.0000
