data_image0
_chemical_formula_structural       B8Nd2Os8
_chemical_formula_sum              "B8 Nd2 Os8"
_cell_length_a       7.61434
_cell_length_b       7.61434
_cell_length_c       4.00685
_cell_angle_alpha    90
_cell_angle_beta     90
_cell_angle_gamma    90

_space_group_name_H-M_alt    "P 1"
_space_group_IT_number       1

loop_
  _space_group_symop_operation_xyz
  'x, y, z'

loop_
  _atom_site_type_symbol
  _atom_site_label
  _atom_site_symmetry_multiplicity
  _atom_site_fract_x
  _atom_site_fract_y
  _atom_site_fract_z
  _atom_site_occupancy
  B   B1        1.0  0.96800  0.08550  0.13900  1.0000
  B   B2        1.0  0.53200  0.41500  0.13900  1.0000
  B   B3        1.0  0.08550  0.53200  0.36100  1.0000
  B   B4        1.0  0.41500  0.96800  0.36100  1.0000
  B   B5        1.0  0.58600  0.03160  0.63900  1.0000
  B   B6        1.0  0.91500  0.46800  0.63900  1.0000
  B   B7        1.0  0.46800  0.58600  0.86100  1.0000
  B   B8        1.0  0.03160  0.91500  0.86100  1.0000
  Nd  Nd1       1.0  0.75000  0.75000  0.25000  1.0000
  Nd  Nd2       1.0  0.25000  0.25000  0.75000  1.0000
  Os  Os1       1.0  0.60400  0.14300  0.13800  1.0000
  Os  Os2       1.0  0.89600  0.35700  0.13800  1.0000
  Os  Os3       1.0  0.35700  0.60400  0.36200  1.0000
  Os  Os4       1.0  0.14300  0.89600  0.36200  1.0000
  Os  Os5       1.0  0.85700  0.10400  0.63800  1.0000
  Os  Os6       1.0  0.64300  0.39600  0.63800  1.0000
  Os  Os7       1.0  0.10400  0.64300  0.86200  1.0000
  Os  Os8       1.0  0.39600  0.85700  0.86200  1.0000
