data_image0
_chemical_formula_structural       Ba3Cu2Er2O10Pt
_chemical_formula_sum              "Ba3 Cu2 Er2 O10 Pt1"
_cell_length_a       5.79398
_cell_length_b       6.876
_cell_length_c       7.34355
_cell_angle_alpha    104.336
_cell_angle_beta     90
_cell_angle_gamma    114.918

_space_group_name_H-M_alt    "P 1"
_space_group_IT_number       1

loop_
  _space_group_symop_operation_xyz
  'x, y, z'

loop_
  _atom_site_type_symbol
  _atom_site_label
  _atom_site_symmetry_multiplicity
  _atom_site_fract_x
  _atom_site_fract_y
  _atom_site_fract_z
  _atom_site_occupancy
  Ba  Ba1       1.0  0.00000  0.00000  0.00000  1.0000
  Ba  Ba2       1.0  0.84800  0.69600  0.46200  1.0000
  Ba  Ba3       1.0  0.15200  0.30400  0.53800  1.0000
  Cu  Cu1       1.0  0.59100  0.18100  0.20200  1.0000
  Cu  Cu2       1.0  0.40900  0.81900  0.79800  1.0000
  Er  Er1       1.0  0.31000  0.62100  0.12500  1.0000
  Er  Er2       1.0  0.69000  0.37900  0.87500  1.0000
  O   O1        1.0  0.45600  0.36900  0.12800  1.0000
  O   O2        1.0  0.91400  0.36900  0.12800  1.0000
  O   O3        1.0  0.26000  0.96200  0.27700  1.0000
  O   O4        1.0  0.70100  0.96200  0.27700  1.0000
  O   O5        1.0  0.33200  0.66500  0.45100  1.0000
  O   O6        1.0  0.66800  0.33500  0.54900  1.0000
  O   O7        1.0  0.29900  0.03840  0.72300  1.0000
  O   O8        1.0  0.74000  0.03840  0.72300  1.0000
  O   O9        1.0  0.08650  0.63100  0.87200  1.0000
  O   O10       1.0  0.54400  0.63100  0.87200  1.0000
  Pt  Pt1       1.0  0.50000  0.00000  0.50000  1.0000
