data_image0
_chemical_formula_structural       Li12Sb6
_chemical_formula_sum              "Li12 Sb6"
_cell_length_a       7.86252
_cell_length_b       7.86252
_cell_length_c       6.41516
_cell_angle_alpha    90
_cell_angle_beta     90
_cell_angle_gamma    120.001

_space_group_name_H-M_alt    "P 1"
_space_group_IT_number       1

loop_
  _space_group_symop_operation_xyz
  'x, y, z'

loop_
  _atom_site_type_symbol
  _atom_site_label
  _atom_site_symmetry_multiplicity
  _atom_site_fract_x
  _atom_site_fract_y
  _atom_site_fract_z
  _atom_site_occupancy
  Li  Li1       1.0  0.29400  0.00000  0.00000  1.0000
  Li  Li2       1.0  0.00000  0.29400  0.00000  1.0000
  Li  Li3       1.0  0.70600  0.70600  0.00000  1.0000
  Li  Li4       1.0  0.63300  0.00190  0.25000  1.0000
  Li  Li5       1.0  0.36900  0.36700  0.25000  1.0000
  Li  Li6       1.0  0.99800  0.63100  0.25000  1.0000
  Li  Li7       1.0  0.29400  0.00000  0.50000  1.0000
  Li  Li8       1.0  0.00000  0.29400  0.50000  1.0000
  Li  Li9       1.0  0.70600  0.70600  0.50000  1.0000
  Li  Li10      1.0  0.36700  0.36900  0.75000  1.0000
  Li  Li11      1.0  0.00190  0.63300  0.75000  1.0000
  Li  Li12      1.0  0.63100  0.99800  0.75000  1.0000
  Sb  Sb1       1.0  0.33300  0.66700  0.00326  1.0000
  Sb  Sb2       1.0  0.00001  0.00001  0.25000  1.0000
  Sb  Sb3       1.0  0.33300  0.66700  0.49700  1.0000
  Sb  Sb4       1.0  0.66700  0.33300  0.50300  1.0000
  Sb  Sb5       1.0  0.00001  0.00001  0.75000  1.0000
  Sb  Sb6       1.0  0.66700  0.33300  0.99700  1.0000
