data_image0
_chemical_formula_structural       Br12Pb4Pd2
_chemical_formula_sum              "Br12 Pb4 Pd2"
_cell_length_a       9.63843
_cell_length_b       6.74814
_cell_length_c       8.43499
_cell_angle_alpha    90
_cell_angle_beta     90.6247
_cell_angle_gamma    90

_space_group_name_H-M_alt    "P 1"
_space_group_IT_number       1

loop_
  _space_group_symop_operation_xyz
  'x, y, z'

loop_
  _atom_site_type_symbol
  _atom_site_label
  _atom_site_symmetry_multiplicity
  _atom_site_fract_x
  _atom_site_fract_y
  _atom_site_fract_z
  _atom_site_occupancy
  Br  Br1       1.0  0.75800  0.11900  0.02670  1.0000
  Br  Br2       1.0  0.94300  0.69700  0.15100  1.0000
  Br  Br3       1.0  0.55800  0.64900  0.17000  1.0000
  Br  Br4       1.0  0.44200  0.14900  0.33000  1.0000
  Br  Br5       1.0  0.05750  0.19700  0.34900  1.0000
  Br  Br6       1.0  0.24200  0.61900  0.47300  1.0000
  Br  Br7       1.0  0.75800  0.38100  0.52700  1.0000
  Br  Br8       1.0  0.94300  0.80300  0.65100  1.0000
  Br  Br9       1.0  0.55800  0.85100  0.67000  1.0000
  Br  Br10      1.0  0.44200  0.35100  0.83000  1.0000
  Br  Br11      1.0  0.05750  0.30300  0.84900  1.0000
  Br  Br12      1.0  0.24200  0.88100  0.97300  1.0000
  Pb  Pb1       1.0  0.27900  0.45400  0.11900  1.0000
  Pb  Pb2       1.0  0.72100  0.95400  0.38100  1.0000
  Pb  Pb3       1.0  0.27900  0.04560  0.61900  1.0000
  Pb  Pb4       1.0  0.72100  0.54600  0.88100  1.0000
  Pd  Pd1       1.0  0.00000  0.00000  0.00000  1.0000
  Pd  Pd2       1.0  0.00000  0.50000  0.50000  1.0000
