data_image0
_chemical_formula_structural       Cl8Os2Sc8
_chemical_formula_sum              "Cl8 Os2 Sc8"
_cell_length_a       6.13227
_cell_length_b       8.0345
_cell_length_c       8.0345
_cell_angle_alpha    90.5811
_cell_angle_beta     90.4882
_cell_angle_gamma    89.5118

_space_group_name_H-M_alt    "P 1"
_space_group_IT_number       1

loop_
  _space_group_symop_operation_xyz
  'x, y, z'

loop_
  _atom_site_type_symbol
  _atom_site_label
  _atom_site_symmetry_multiplicity
  _atom_site_fract_x
  _atom_site_fract_y
  _atom_site_fract_z
  _atom_site_occupancy
  Cl  Cl1       1.0  0.89900  0.42200  0.18200  1.0000
  Cl  Cl2       1.0  0.39600  0.58200  0.19400  1.0000
  Cl  Cl3       1.0  0.89600  0.80600  0.41800  1.0000
  Cl  Cl4       1.0  0.60100  0.18200  0.42200  1.0000
  Cl  Cl5       1.0  0.39900  0.81800  0.57800  1.0000
  Cl  Cl6       1.0  0.10400  0.19400  0.58200  1.0000
  Cl  Cl7       1.0  0.60400  0.41800  0.80600  1.0000
  Cl  Cl8       1.0  0.10100  0.57800  0.81800  1.0000
  Os  Os1       1.0  0.25000  0.00928  0.00928  1.0000
  Os  Os2       1.0  0.75000  0.99100  0.99100  1.0000
  Sc  Sc1       1.0  0.01260  0.74200  0.10300  1.0000
  Sc  Sc2       1.0  0.51500  0.26000  0.10400  1.0000
  Sc  Sc3       1.0  0.51300  0.89700  0.25800  1.0000
  Sc  Sc4       1.0  0.98500  0.10400  0.26000  1.0000
  Sc  Sc5       1.0  0.01550  0.89600  0.74000  1.0000
  Sc  Sc6       1.0  0.48700  0.10300  0.74200  1.0000
  Sc  Sc7       1.0  0.48500  0.74000  0.89600  1.0000
  Sc  Sc8       1.0  0.98700  0.25800  0.89700  1.0000
