data_image0
_chemical_formula_structural       Ce6Pt10Si2
_chemical_formula_sum              "Ce6 Pt10 Si2"
_cell_length_a       7.56586
_cell_length_b       7.66768
_cell_length_c       8.4885
_cell_angle_alpha    116.85
_cell_angle_beta     116.465
_cell_angle_gamma    90

_space_group_name_H-M_alt    "P 1"
_space_group_IT_number       1

loop_
  _space_group_symop_operation_xyz
  'x, y, z'

loop_
  _atom_site_type_symbol
  _atom_site_label
  _atom_site_symmetry_multiplicity
  _atom_site_fract_x
  _atom_site_fract_y
  _atom_site_fract_z
  _atom_site_occupancy
  Ce  Ce1       1.0  0.55000  0.82900  0.10000  1.0000
  Ce  Ce2       1.0  0.05020  0.77200  0.10000  1.0000
  Ce  Ce3       1.0  0.25000  0.61200  0.50000  1.0000
  Ce  Ce4       1.0  0.75000  0.38800  0.50000  1.0000
  Ce  Ce5       1.0  0.95000  0.22800  0.90000  1.0000
  Ce  Ce6       1.0  0.45000  0.17100  0.90000  1.0000
  Pt  Pt1       1.0  0.41000  0.54500  0.21600  1.0000
  Pt  Pt2       1.0  0.80600  0.54500  0.21600  1.0000
  Pt  Pt3       1.0  0.30600  0.17200  0.21600  1.0000
  Pt  Pt4       1.0  0.91000  0.17200  0.21600  1.0000
  Pt  Pt5       1.0  0.00000  0.00000  0.50000  1.0000
  Pt  Pt6       1.0  0.50000  0.00000  0.50000  1.0000
  Pt  Pt7       1.0  0.08950  0.82800  0.78400  1.0000
  Pt  Pt8       1.0  0.69400  0.82800  0.78400  1.0000
  Pt  Pt9       1.0  0.19400  0.45500  0.78400  1.0000
  Pt  Pt10      1.0  0.59000  0.45500  0.78400  1.0000
  Si  Si1       1.0  0.75000  0.78900  0.50000  1.0000
  Si  Si2       1.0  0.25000  0.21100  0.50000  1.0000
