data_image0
_chemical_formula_structural       Cd2Cs5Tl11
_chemical_formula_sum              "Cd2 Cs5 Tl11"
_cell_length_a       5.75098
_cell_length_b       11.5111
_cell_length_c       11.5111
_cell_angle_alpha    72.4164
_cell_angle_beta     90
_cell_angle_gamma    90

_space_group_name_H-M_alt    "P 1"
_space_group_IT_number       1

loop_
  _space_group_symop_operation_xyz
  'x, y, z'

loop_
  _atom_site_type_symbol
  _atom_site_label
  _atom_site_symmetry_multiplicity
  _atom_site_fract_x
  _atom_site_fract_y
  _atom_site_fract_z
  _atom_site_occupancy
  Cd  Cd1       1.0  0.25000  0.93800  0.06220  1.0000
  Cd  Cd2       1.0  0.75000  0.93800  0.06220  1.0000
  Cs  Cs1       1.0  0.00000  0.39000  0.22900  1.0000
  Cs  Cs2       1.0  0.50000  0.10600  0.51300  1.0000
  Cs  Cs3       1.0  0.00000  0.77100  0.61000  1.0000
  Cs  Cs4       1.0  0.00000  0.37000  0.63000  1.0000
  Cs  Cs5       1.0  0.50000  0.48700  0.89400  1.0000
  Tl  Tl1       1.0  0.50000  0.65800  0.14000  1.0000
  Tl  Tl2       1.0  0.50000  0.16100  0.14900  1.0000
  Tl  Tl3       1.0  0.00000  0.71500  0.28500  1.0000
  Tl  Tl4       1.0  0.00000  0.02420  0.28900  1.0000
  Tl  Tl5       1.0  0.50000  0.86000  0.34200  1.0000
  Tl  Tl6       1.0  0.50000  0.56900  0.43100  1.0000
  Tl  Tl7       1.0  0.00000  0.01650  0.79100  1.0000
  Tl  Tl8       1.0  0.50000  0.16300  0.83700  1.0000
  Tl  Tl9       1.0  0.50000  0.85100  0.83900  1.0000
  Tl  Tl10      1.0  0.00000  0.71100  0.97600  1.0000
  Tl  Tl11      1.0  0.00000  0.20900  0.98300  1.0000
