data_image0
_chemical_formula_structural       Al2Gd4Ge12
_chemical_formula_sum              "Al2 Gd4 Ge12"
_cell_length_a       6.01107
_cell_length_b       6.01107
_cell_length_c       10.5693
_cell_angle_alpha    98.2316
_cell_angle_beta     98.2316
_cell_angle_gamma    91.9057

_space_group_name_H-M_alt    "P 1"
_space_group_IT_number       1

loop_
  _space_group_symop_operation_xyz
  'x, y, z'

loop_
  _atom_site_type_symbol
  _atom_site_label
  _atom_site_symmetry_multiplicity
  _atom_site_fract_x
  _atom_site_fract_y
  _atom_site_fract_z
  _atom_site_occupancy
  Al  Al1       1.0  0.80100  0.80100  0.20000  1.0000
  Al  Al2       1.0  0.19900  0.19900  0.80000  1.0000
  Gd  Gd1       1.0  0.84100  0.33500  0.33900  1.0000
  Gd  Gd2       1.0  0.33500  0.84100  0.33900  1.0000
  Gd  Gd3       1.0  0.66500  0.15900  0.66100  1.0000
  Gd  Gd4       1.0  0.15900  0.66500  0.66100  1.0000
  Ge  Ge1       1.0  0.06940  0.06940  0.11800  1.0000
  Ge  Ge2       1.0  0.49600  0.06660  0.11800  1.0000
  Ge  Ge3       1.0  0.06660  0.49600  0.11800  1.0000
  Ge  Ge4       1.0  0.49200  0.49200  0.11800  1.0000
  Ge  Ge5       1.0  0.36400  0.36400  0.40900  1.0000
  Ge  Ge6       1.0  0.85100  0.85100  0.44100  1.0000
  Ge  Ge7       1.0  0.14900  0.14900  0.55900  1.0000
  Ge  Ge8       1.0  0.63600  0.63600  0.59100  1.0000
  Ge  Ge9       1.0  0.50800  0.50800  0.88200  1.0000
  Ge  Ge10      1.0  0.93300  0.50400  0.88200  1.0000
  Ge  Ge11      1.0  0.50400  0.93300  0.88200  1.0000
  Ge  Ge12      1.0  0.93100  0.93100  0.88200  1.0000
