data_image0
_chemical_formula_structural       Au10In2K6
_chemical_formula_sum              "Au10 In2 K6"
_cell_length_a       5.67311
_cell_length_b       8.62026
_cell_length_c       11.2554
_cell_angle_alpha    112.516
_cell_angle_beta     104.597
_cell_angle_gamma    90

_space_group_name_H-M_alt    "P 1"
_space_group_IT_number       1

loop_
  _space_group_symop_operation_xyz
  'x, y, z'

loop_
  _atom_site_type_symbol
  _atom_site_label
  _atom_site_symmetry_multiplicity
  _atom_site_fract_x
  _atom_site_fract_y
  _atom_site_fract_z
  _atom_site_occupancy
  Au  Au1       1.0  0.00000  0.00000  0.00000  1.0000
  Au  Au2       1.0  0.50000  0.50000  0.00000  1.0000
  Au  Au3       1.0  0.31400  0.31400  0.12800  1.0000
  Au  Au4       1.0  0.81400  0.31400  0.12800  1.0000
  Au  Au5       1.0  0.14500  0.18000  0.29100  1.0000
  Au  Au6       1.0  0.64500  0.61000  0.29100  1.0000
  Au  Au7       1.0  0.35500  0.39000  0.70900  1.0000
  Au  Au8       1.0  0.85500  0.82000  0.70900  1.0000
  Au  Au9       1.0  0.18600  0.68600  0.87200  1.0000
  Au  Au10      1.0  0.68600  0.68600  0.87200  1.0000
  In  In1       1.0  0.25000  0.08370  0.50000  1.0000
  In  In2       1.0  0.75000  0.91600  0.50000  1.0000
  K   K1        1.0  0.08580  0.70700  0.17200  1.0000
  K   K2        1.0  0.58600  0.96500  0.17200  1.0000
  K   K3        1.0  0.75000  0.36900  0.50000  1.0000
  K   K4        1.0  0.25000  0.63100  0.50000  1.0000
  K   K5        1.0  0.41400  0.03520  0.82800  1.0000
  K   K6        1.0  0.91400  0.29300  0.82800  1.0000
