data_image0
_chemical_formula_structural       Ga5Pd13
_chemical_formula_sum              "Ga5 Pd13"
_cell_length_a       4.09638
_cell_length_b       5.53611
_cell_length_c       12.4726
_cell_angle_alpha    102.377
_cell_angle_beta     99.4516
_cell_angle_gamma    90

_space_group_name_H-M_alt    "P 1"
_space_group_IT_number       1

loop_
  _space_group_symop_operation_xyz
  'x, y, z'

loop_
  _atom_site_type_symbol
  _atom_site_label
  _atom_site_symmetry_multiplicity
  _atom_site_fract_x
  _atom_site_fract_y
  _atom_site_fract_z
  _atom_site_occupancy
  Ga  Ga1       1.0  0.00000  0.00000  0.00000  1.0000
  Ga  Ga2       1.0  0.10600  0.64400  0.21200  1.0000
  Ga  Ga3       1.0  0.67700  0.31300  0.35300  1.0000
  Ga  Ga4       1.0  0.32300  0.68700  0.64700  1.0000
  Ga  Ga5       1.0  0.89400  0.35600  0.78800  1.0000
  Pd  Pd1       1.0  0.00000  0.50000  0.00000  1.0000
  Pd  Pd2       1.0  0.54500  0.84900  0.09020  1.0000
  Pd  Pd3       1.0  0.57000  0.37300  0.14100  1.0000
  Pd  Pd4       1.0  0.11300  0.12400  0.22500  1.0000
  Pd  Pd5       1.0  0.66000  0.82900  0.32000  1.0000
  Pd  Pd6       1.0  0.21300  0.59300  0.42500  1.0000
  Pd  Pd7       1.0  0.22500  0.10900  0.44900  1.0000
  Pd  Pd8       1.0  0.77500  0.89100  0.55100  1.0000
  Pd  Pd9       1.0  0.78700  0.40700  0.57500  1.0000
  Pd  Pd10      1.0  0.34000  0.17100  0.68000  1.0000
  Pd  Pd11      1.0  0.88700  0.87600  0.77500  1.0000
  Pd  Pd12      1.0  0.43000  0.62700  0.85900  1.0000
  Pd  Pd13      1.0  0.45500  0.15100  0.91000  1.0000
