data_image0
_chemical_formula_structural       B4Ba2Se12
_chemical_formula_sum              "B4 Ba2 Se12"
_cell_length_a       6.92847
_cell_length_b       6.92847
_cell_length_c       10.5725
_cell_angle_alpha    90
_cell_angle_beta     90
_cell_angle_gamma    111.52

_space_group_name_H-M_alt    "P 1"
_space_group_IT_number       1

loop_
  _space_group_symop_operation_xyz
  'x, y, z'

loop_
  _atom_site_type_symbol
  _atom_site_label
  _atom_site_symmetry_multiplicity
  _atom_site_fract_x
  _atom_site_fract_y
  _atom_site_fract_z
  _atom_site_occupancy
  B   B1        1.0  0.61400  0.38600  0.00000  1.0000
  B   B2        1.0  0.38600  0.61400  0.00000  1.0000
  B   B3        1.0  0.88600  0.11400  0.50000  1.0000
  B   B4        1.0  0.11400  0.88600  0.50000  1.0000
  Ba  Ba1       1.0  0.00000  0.00000  0.00000  1.0000
  Ba  Ba2       1.0  0.50000  0.50000  0.50000  1.0000
  Se  Se1       1.0  0.52300  0.10800  0.09240  1.0000
  Se  Se2       1.0  0.10800  0.52300  0.09240  1.0000
  Se  Se3       1.0  0.59900  0.59900  0.13600  1.0000
  Se  Se4       1.0  0.09900  0.09900  0.36400  1.0000
  Se  Se5       1.0  0.60800  0.02300  0.40800  1.0000
  Se  Se6       1.0  0.02300  0.60800  0.40800  1.0000
  Se  Se7       1.0  0.97700  0.39200  0.59200  1.0000
  Se  Se8       1.0  0.39200  0.97700  0.59200  1.0000
  Se  Se9       1.0  0.90100  0.90100  0.63600  1.0000
  Se  Se10      1.0  0.40100  0.40100  0.86400  1.0000
  Se  Se11      1.0  0.89200  0.47700  0.90800  1.0000
  Se  Se12      1.0  0.47700  0.89200  0.90800  1.0000
