data_image0
_chemical_formula_structural       As2Br2Hg6S8
_chemical_formula_sum              "As2 Br2 Hg6 S8"
_cell_length_a       7.58594
_cell_length_b       7.58601
_cell_length_c       9.77864
_cell_angle_alpha    90
_cell_angle_beta     90
_cell_angle_gamma    120

_space_group_name_H-M_alt    "P 1"
_space_group_IT_number       1

loop_
  _space_group_symop_operation_xyz
  'x, y, z'

loop_
  _atom_site_type_symbol
  _atom_site_label
  _atom_site_symmetry_multiplicity
  _atom_site_fract_x
  _atom_site_fract_y
  _atom_site_fract_z
  _atom_site_occupancy
  As  As1       1.0  0.00000  0.00000  0.23200  1.0000
  As  As2       1.0  0.00000  0.00001  0.73200  1.0000
  Br  Br1       1.0  0.66700  0.33300  0.03030  1.0000
  Br  Br2       1.0  0.33300  0.66700  0.53000  1.0000
  Hg  Hg1       1.0  0.49700  0.99300  0.24400  1.0000
  Hg  Hg2       1.0  0.00675  0.50300  0.24400  1.0000
  Hg  Hg3       1.0  0.49700  0.50300  0.24400  1.0000
  Hg  Hg4       1.0  0.50300  0.00675  0.74400  1.0000
  Hg  Hg5       1.0  0.50300  0.49700  0.74400  1.0000
  Hg  Hg6       1.0  0.99300  0.49700  0.74400  1.0000
  S   S1        1.0  0.33300  0.66700  0.11300  1.0000
  S   S2        1.0  0.29800  0.14900  0.35700  1.0000
  S   S3        1.0  0.85100  0.14900  0.35700  1.0000
  S   S4        1.0  0.85100  0.70200  0.35700  1.0000
  S   S5        1.0  0.66700  0.33300  0.61300  1.0000
  S   S6        1.0  0.14900  0.85100  0.85700  1.0000
  S   S7        1.0  0.70200  0.85100  0.85700  1.0000
  S   S8        1.0  0.14900  0.29800  0.85700  1.0000
