data_image0
_chemical_formula_structural       La8N4S6
_chemical_formula_sum              "La8 N4 S6"
_cell_length_a       6.53211
_cell_length_b       15.721
_cell_length_c       4.09105
_cell_angle_alpha    90
_cell_angle_beta     90
_cell_angle_gamma    90

_space_group_name_H-M_alt    "P 1"
_space_group_IT_number       1

loop_
  _space_group_symop_operation_xyz
  'x, y, z'

loop_
  _atom_site_type_symbol
  _atom_site_label
  _atom_site_symmetry_multiplicity
  _atom_site_fract_x
  _atom_site_fract_y
  _atom_site_fract_z
  _atom_site_occupancy
  La  La1       1.0  0.73300  0.15700  0.00000  1.0000
  La  La2       1.0  0.77600  0.43500  0.00000  1.0000
  La  La3       1.0  0.22400  0.56500  0.00000  1.0000
  La  La4       1.0  0.26700  0.84300  0.00000  1.0000
  La  La5       1.0  0.27600  0.06500  0.50000  1.0000
  La  La6       1.0  0.23300  0.34300  0.50000  1.0000
  La  La7       1.0  0.76700  0.65700  0.50000  1.0000
  La  La8       1.0  0.72400  0.93500  0.50000  1.0000
  N   N1        1.0  0.13000  0.41600  0.00000  1.0000
  N   N2        1.0  0.87000  0.58400  0.00000  1.0000
  N   N3        1.0  0.63000  0.08440  0.50000  1.0000
  N   N4        1.0  0.37000  0.91600  0.50000  1.0000
  S   S1        1.0  0.00000  0.00000  0.00000  1.0000
  S   S2        1.0  0.26900  0.20000  0.00000  1.0000
  S   S3        1.0  0.73100  0.80000  0.00000  1.0000
  S   S4        1.0  0.76900  0.30000  0.50000  1.0000
  S   S5        1.0  0.50000  0.50000  0.50000  1.0000
  S   S6        1.0  0.23100  0.70000  0.50000  1.0000
