data_image0
_chemical_formula_structural       F12Li2Ni2Sr2
_chemical_formula_sum              "F12 Li2 Ni2 Sr2"
_cell_length_a       5.00813
_cell_length_b       5.00821
_cell_length_c       10.1079
_cell_angle_alpha    90.0008
_cell_angle_beta     89.9996
_cell_angle_gamma    120.001

_space_group_name_H-M_alt    "P 1"
_space_group_IT_number       1

loop_
  _space_group_symop_operation_xyz
  'x, y, z'

loop_
  _atom_site_type_symbol
  _atom_site_label
  _atom_site_symmetry_multiplicity
  _atom_site_fract_x
  _atom_site_fract_y
  _atom_site_fract_z
  _atom_site_occupancy
  F   F1        1.0  0.37900  0.01240  0.14300  1.0000
  F   F2        1.0  0.98800  0.36600  0.14300  1.0000
  F   F3        1.0  0.63400  0.62100  0.14300  1.0000
  F   F4        1.0  0.63400  0.01250  0.35700  1.0000
  F   F5        1.0  0.98800  0.62100  0.35700  1.0000
  F   F6        1.0  0.37900  0.36600  0.35700  1.0000
  F   F7        1.0  0.62100  0.63400  0.64300  1.0000
  F   F8        1.0  0.01240  0.37900  0.64300  1.0000
  F   F9        1.0  0.36600  0.98800  0.64300  1.0000
  F   F10       1.0  0.36600  0.37900  0.85700  1.0000
  F   F11       1.0  0.01240  0.63400  0.85700  1.0000
  F   F12       1.0  0.62100  0.98800  0.85700  1.0000
  Li  Li1       1.0  0.33300  0.66700  0.25000  1.0000
  Li  Li2       1.0  0.66700  0.33300  0.75000  1.0000
  Ni  Ni1       1.0  0.66700  0.33300  0.25000  1.0000
  Ni  Ni2       1.0  0.33300  0.66700  0.75000  1.0000
  Sr  Sr1       1.0  0.00000  0.00000  0.00000  1.0000
  Sr  Sr2       1.0  0.00000  0.00000  0.50000  1.0000
