data_image0
_chemical_formula_structural       Cu8Na4S6
_chemical_formula_sum              "Cu8 Na4 S6"
_cell_length_a       3.83062
_cell_length_b       8.14522
_cell_length_c       10.2888
_cell_angle_alpha    107.502
_cell_angle_beta     90
_cell_angle_gamma    103.6

_space_group_name_H-M_alt    "P 1"
_space_group_IT_number       1

loop_
  _space_group_symop_operation_xyz
  'x, y, z'

loop_
  _atom_site_type_symbol
  _atom_site_label
  _atom_site_symmetry_multiplicity
  _atom_site_fract_x
  _atom_site_fract_y
  _atom_site_fract_z
  _atom_site_occupancy
  Cu  Cu1       1.0  0.08930  0.17900  0.08910  1.0000
  Cu  Cu2       1.0  0.48500  0.96900  0.11800  1.0000
  Cu  Cu3       1.0  0.47600  0.95100  0.36700  1.0000
  Cu  Cu4       1.0  0.90800  0.81700  0.48900  1.0000
  Cu  Cu5       1.0  0.09170  0.18300  0.51100  1.0000
  Cu  Cu6       1.0  0.52400  0.04870  0.63300  1.0000
  Cu  Cu7       1.0  0.51500  0.03070  0.88200  1.0000
  Cu  Cu8       1.0  0.91100  0.82100  0.91100  1.0000
  Na  Na1       1.0  0.83300  0.66600  0.15900  1.0000
  Na  Na2       1.0  0.68800  0.37500  0.34500  1.0000
  Na  Na3       1.0  0.31200  0.62500  0.65500  1.0000
  Na  Na4       1.0  0.16700  0.33400  0.84100  1.0000
  S   S1        1.0  0.65000  0.30000  0.04480  1.0000
  S   S2        1.0  0.03010  0.06010  0.27400  1.0000
  S   S3        1.0  0.33400  0.66800  0.38400  1.0000
  S   S4        1.0  0.66600  0.33200  0.61600  1.0000
  S   S5        1.0  0.97000  0.94000  0.72600  1.0000
  S   S6        1.0  0.35000  0.70000  0.95500  1.0000
