data_image0
_chemical_formula_structural       F10K2N2O2Os2
_chemical_formula_sum              "F10 K2 N2 O2 Os2"
_cell_length_a       8.87822
_cell_length_b       5.7454
_cell_length_c       4.51072
_cell_angle_alpha    90
_cell_angle_beta     99.0314
_cell_angle_gamma    90

_space_group_name_H-M_alt    "P 1"
_space_group_IT_number       1

loop_
  _space_group_symop_operation_xyz
  'x, y, z'

loop_
  _atom_site_type_symbol
  _atom_site_label
  _atom_site_symmetry_multiplicity
  _atom_site_fract_x
  _atom_site_fract_y
  _atom_site_fract_z
  _atom_site_occupancy
  F   F1        1.0  0.65100  0.50900  0.13900  1.0000
  F   F2        1.0  0.65100  0.99100  0.13900  1.0000
  F   F3        1.0  0.90600  0.75000  0.20100  1.0000
  F   F4        1.0  0.16700  0.01000  0.28100  1.0000
  F   F5        1.0  0.16700  0.49000  0.28100  1.0000
  F   F6        1.0  0.83300  0.51000  0.71900  1.0000
  F   F7        1.0  0.83300  0.99000  0.71900  1.0000
  F   F8        1.0  0.09390  0.25000  0.79900  1.0000
  F   F9        1.0  0.34900  0.00939  0.86100  1.0000
  F   F10       1.0  0.34900  0.49100  0.86100  1.0000
  K   K1        1.0  0.89900  0.25000  0.27200  1.0000
  K   K2        1.0  0.10100  0.75000  0.72800  1.0000
  N   N1        1.0  0.44000  0.25000  0.37600  1.0000
  N   N2        1.0  0.56000  0.75000  0.62400  1.0000
  O   O1        1.0  0.45100  0.75000  0.44200  1.0000
  O   O2        1.0  0.54900  0.25000  0.55800  1.0000
  Os  Os1       1.0  0.27800  0.25000  0.10200  1.0000
  Os  Os2       1.0  0.72200  0.75000  0.89800  1.0000
