data_image0
_chemical_formula_structural       Er12Ga2Ni4
_chemical_formula_sum              "Er12 Ga2 Ni4"
_cell_length_a       8.22715
_cell_length_b       8.22715
_cell_length_c       8.22715
_cell_angle_alpha    109.758
_cell_angle_beta     106.423
_cell_angle_gamma    112.286

_space_group_name_H-M_alt    "P 1"
_space_group_IT_number       1

loop_
  _space_group_symop_operation_xyz
  'x, y, z'

loop_
  _atom_site_type_symbol
  _atom_site_label
  _atom_site_symmetry_multiplicity
  _atom_site_fract_x
  _atom_site_fract_y
  _atom_site_fract_z
  _atom_site_occupancy
  Er  Er1       1.0  0.73600  0.30300  0.03900  1.0000
  Er  Er2       1.0  0.21600  0.39700  0.18100  1.0000
  Er  Er3       1.0  0.78400  0.96500  0.18100  1.0000
  Er  Er4       1.0  0.52200  0.19600  0.32600  1.0000
  Er  Er5       1.0  0.13100  0.80400  0.32600  1.0000
  Er  Er6       1.0  0.73600  0.69700  0.43300  1.0000
  Er  Er7       1.0  0.26400  0.30300  0.56700  1.0000
  Er  Er8       1.0  0.47800  0.80400  0.67400  1.0000
  Er  Er9       1.0  0.86900  0.19600  0.67400  1.0000
  Er  Er10      1.0  0.21600  0.03530  0.81900  1.0000
  Er  Er11      1.0  0.78400  0.60300  0.81900  1.0000
  Er  Er12      1.0  0.26400  0.69700  0.96100  1.0000
  Ga  Ga1       1.0  0.50000  0.50000  1.00000  1.0000
  Ga  Ga2       1.0  0.00000  0.50000  0.50000  1.0000
  Ni  Ni1       1.0  0.12300  0.00000  0.12300  1.0000
  Ni  Ni2       1.0  0.50000  0.85100  0.35100  1.0000
  Ni  Ni3       1.0  0.50000  0.14900  0.64900  1.0000
  Ni  Ni4       1.0  0.87700  1.00000  0.87700  1.0000
