data_image0
_chemical_formula_structural       K4Ni6S8
_chemical_formula_sum              "K4 Ni6 S8"
_cell_length_a       5.74419
_cell_length_b       5.80132
_cell_length_c       13.3279
_cell_angle_alpha    96.1243
_cell_angle_beta     102.445
_cell_angle_gamma    60.3252

_space_group_name_H-M_alt    "P 1"
_space_group_IT_number       1

loop_
  _space_group_symop_operation_xyz
  'x, y, z'

loop_
  _atom_site_type_symbol
  _atom_site_label
  _atom_site_symmetry_multiplicity
  _atom_site_fract_x
  _atom_site_fract_y
  _atom_site_fract_z
  _atom_site_occupancy
  K   K1        1.0  0.54700  0.25000  0.09310  1.0000
  K   K2        1.0  0.70300  0.25000  0.40700  1.0000
  K   K3        1.0  0.29700  0.75000  0.59300  1.0000
  K   K4        1.0  0.45300  0.75000  0.90700  1.0000
  Ni  Ni1       1.0  0.12400  0.75000  0.24900  1.0000
  Ni  Ni2       1.0  0.12500  0.25000  0.25000  1.0000
  Ni  Ni3       1.0  0.62600  0.75000  0.25100  1.0000
  Ni  Ni4       1.0  0.37400  0.25000  0.74900  1.0000
  Ni  Ni5       1.0  0.87500  0.75000  0.75000  1.0000
  Ni  Ni6       1.0  0.87600  0.25000  0.75100  1.0000
  S   S1        1.0  0.89900  0.58200  0.13900  1.0000
  S   S2        1.0  0.24000  0.91800  0.13900  1.0000
  S   S3        1.0  0.01900  0.58200  0.36100  1.0000
  S   S4        1.0  0.34200  0.91800  0.36100  1.0000
  S   S5        1.0  0.65800  0.08200  0.63900  1.0000
  S   S6        1.0  0.98100  0.41800  0.63900  1.0000
  S   S7        1.0  0.76000  0.08200  0.86100  1.0000
  S   S8        1.0  0.10100  0.41800  0.86100  1.0000
