data_image0
_chemical_formula_structural       Cl4Pd2Se12
_chemical_formula_sum              "Cl4 Pd2 Se12"
_cell_length_a       4.68565
_cell_length_b       8.59642
_cell_length_c       13.1978
_cell_angle_alpha    90
_cell_angle_beta     101.013
_cell_angle_gamma    90

_space_group_name_H-M_alt    "P 1"
_space_group_IT_number       1

loop_
  _space_group_symop_operation_xyz
  'x, y, z'

loop_
  _atom_site_type_symbol
  _atom_site_label
  _atom_site_symmetry_multiplicity
  _atom_site_fract_x
  _atom_site_fract_y
  _atom_site_fract_z
  _atom_site_occupancy
  Cl  Cl1       1.0  0.36300  0.03560  0.14600  1.0000
  Cl  Cl2       1.0  0.63700  0.53600  0.35400  1.0000
  Cl  Cl3       1.0  0.36300  0.46400  0.64600  1.0000
  Cl  Cl4       1.0  0.63700  0.96400  0.85400  1.0000
  Pd  Pd1       1.0  0.00000  0.00000  0.00000  1.0000
  Pd  Pd2       1.0  0.00000  0.50000  0.50000  1.0000
  Se  Se1       1.0  0.83000  0.26800  0.00673  1.0000
  Se  Se2       1.0  0.98700  0.63100  0.14000  1.0000
  Se  Se3       1.0  0.18100  0.37800  0.14800  1.0000
  Se  Se4       1.0  0.81900  0.87800  0.35200  1.0000
  Se  Se5       1.0  0.01320  0.13100  0.36000  1.0000
  Se  Se6       1.0  0.17000  0.76800  0.49300  1.0000
  Se  Se7       1.0  0.83000  0.23200  0.50700  1.0000
  Se  Se8       1.0  0.98700  0.86900  0.64000  1.0000
  Se  Se9       1.0  0.18100  0.12200  0.64800  1.0000
  Se  Se10      1.0  0.81900  0.62200  0.85200  1.0000
  Se  Se11      1.0  0.01320  0.36900  0.86000  1.0000
  Se  Se12      1.0  0.17000  0.73200  0.99300  1.0000
