data_image0
_chemical_formula_structural       Au10K6Tl2
_chemical_formula_sum              "Au10 K6 Tl2"
_cell_length_a       5.72809
_cell_length_b       8.61158
_cell_length_c       11.3478
_cell_angle_alpha    112.299
_cell_angle_beta     104.619
_cell_angle_gamma    90

_space_group_name_H-M_alt    "P 1"
_space_group_IT_number       1

loop_
  _space_group_symop_operation_xyz
  'x, y, z'

loop_
  _atom_site_type_symbol
  _atom_site_label
  _atom_site_symmetry_multiplicity
  _atom_site_fract_x
  _atom_site_fract_y
  _atom_site_fract_z
  _atom_site_occupancy
  Au  Au1       1.0  0.00000  0.00000  0.00000  1.0000
  Au  Au2       1.0  0.50000  0.50000  0.00000  1.0000
  Au  Au3       1.0  0.31100  0.31100  0.12100  1.0000
  Au  Au4       1.0  0.81100  0.31100  0.12100  1.0000
  Au  Au5       1.0  0.14400  0.18700  0.28800  1.0000
  Au  Au6       1.0  0.64400  0.60100  0.28800  1.0000
  Au  Au7       1.0  0.35600  0.39900  0.71200  1.0000
  Au  Au8       1.0  0.85600  0.81300  0.71200  1.0000
  Au  Au9       1.0  0.18900  0.68900  0.87900  1.0000
  Au  Au10      1.0  0.68900  0.68900  0.87900  1.0000
  K   K1        1.0  0.08650  0.70600  0.17300  1.0000
  K   K2        1.0  0.58700  0.96700  0.17300  1.0000
  K   K3        1.0  0.75000  0.37000  0.50000  1.0000
  K   K4        1.0  0.25000  0.63000  0.50000  1.0000
  K   K5        1.0  0.41300  0.03280  0.82700  1.0000
  K   K6        1.0  0.91300  0.29400  0.82700  1.0000
  Tl  Tl1       1.0  0.25000  0.08420  0.50000  1.0000
  Tl  Tl2       1.0  0.75000  0.91600  0.50000  1.0000
