data_image0
_chemical_formula_structural       Dy4Mo6Si8
_chemical_formula_sum              "Dy4 Mo6 Si8"
_cell_length_a       6.86517
_cell_length_b       6.75916
_cell_length_c       6.9235
_cell_angle_alpha    90
_cell_angle_beta     90
_cell_angle_gamma    109.002

_space_group_name_H-M_alt    "P 1"
_space_group_IT_number       1

loop_
  _space_group_symop_operation_xyz
  'x, y, z'

loop_
  _atom_site_type_symbol
  _atom_site_label
  _atom_site_symmetry_multiplicity
  _atom_site_fract_x
  _atom_site_fract_y
  _atom_site_fract_z
  _atom_site_occupancy
  Dy  Dy1       1.0  0.19000  0.06160  0.17000  1.0000
  Dy  Dy2       1.0  0.19000  0.56200  0.33000  1.0000
  Dy  Dy3       1.0  0.81000  0.43800  0.67000  1.0000
  Dy  Dy4       1.0  0.81000  0.93800  0.83000  1.0000
  Mo  Mo1       1.0  0.50000  0.50000  0.00000  1.0000
  Mo  Mo2       1.0  0.75000  0.25100  0.16300  1.0000
  Mo  Mo3       1.0  0.75000  0.75100  0.33700  1.0000
  Mo  Mo4       1.0  0.50000  0.00000  0.50000  1.0000
  Mo  Mo5       1.0  0.25000  0.24900  0.66300  1.0000
  Mo  Mo6       1.0  0.25000  0.74900  0.83700  1.0000
  Si  Si1       1.0  0.91000  0.63200  0.04500  1.0000
  Si  Si2       1.0  0.50500  0.87200  0.13200  1.0000
  Si  Si3       1.0  0.50500  0.37200  0.36800  1.0000
  Si  Si4       1.0  0.91000  0.13200  0.45500  1.0000
  Si  Si5       1.0  0.09000  0.86800  0.54500  1.0000
  Si  Si6       1.0  0.49500  0.62800  0.63200  1.0000
  Si  Si7       1.0  0.49500  0.12800  0.86800  1.0000
  Si  Si8       1.0  0.09000  0.36800  0.95500  1.0000
