data_image0
_chemical_formula_structural       Cu2Hf10Pb6
_chemical_formula_sum              "Cu2 Hf10 Pb6"
_cell_length_a       8.70373
_cell_length_b       8.70373
_cell_length_c       5.87283
_cell_angle_alpha    90
_cell_angle_beta     90
_cell_angle_gamma    120.001

_space_group_name_H-M_alt    "P 1"
_space_group_IT_number       1

loop_
  _space_group_symop_operation_xyz
  'x, y, z'

loop_
  _atom_site_type_symbol
  _atom_site_label
  _atom_site_symmetry_multiplicity
  _atom_site_fract_x
  _atom_site_fract_y
  _atom_site_fract_z
  _atom_site_occupancy
  Cu  Cu1       1.0  0.00000  0.00000  0.00001  1.0000
  Cu  Cu2       1.0  0.00002  0.00001  0.50000  1.0000
  Hf  Hf1       1.0  0.66700  0.33300  0.00000  1.0000
  Hf  Hf2       1.0  0.33300  0.66700  0.00000  1.0000
  Hf  Hf3       1.0  0.25900  0.00000  0.25000  1.0000
  Hf  Hf4       1.0  0.00000  0.25900  0.25000  1.0000
  Hf  Hf5       1.0  0.74100  0.74100  0.25000  1.0000
  Hf  Hf6       1.0  0.66700  0.33300  0.50000  1.0000
  Hf  Hf7       1.0  0.33300  0.66700  0.50000  1.0000
  Hf  Hf8       1.0  0.74100  0.00000  0.75000  1.0000
  Hf  Hf9       1.0  0.00000  0.74100  0.75000  1.0000
  Hf  Hf10      1.0  0.25900  0.25900  0.75000  1.0000
  Pb  Pb1       1.0  0.61300  0.00001  0.25000  1.0000
  Pb  Pb2       1.0  0.00001  0.61300  0.25000  1.0000
  Pb  Pb3       1.0  0.38700  0.38700  0.25000  1.0000
  Pb  Pb4       1.0  0.38700  0.00000  0.75000  1.0000
  Pb  Pb5       1.0  0.00000  0.38700  0.75000  1.0000
  Pb  Pb6       1.0  0.61300  0.61300  0.75000  1.0000
