data_image0
_chemical_formula_structural       Dy12Ga2Ni4
_chemical_formula_sum              "Dy12 Ga2 Ni4"
_cell_length_a       8.31418
_cell_length_b       8.31418
_cell_length_c       8.31418
_cell_angle_alpha    109.432
_cell_angle_beta     106.257
_cell_angle_gamma    112.79

_space_group_name_H-M_alt    "P 1"
_space_group_IT_number       1

loop_
  _space_group_symop_operation_xyz
  'x, y, z'

loop_
  _atom_site_type_symbol
  _atom_site_label
  _atom_site_symmetry_multiplicity
  _atom_site_fract_x
  _atom_site_fract_y
  _atom_site_fract_z
  _atom_site_occupancy
  Dy  Dy1       1.0  0.73500  0.30500  0.04010  1.0000
  Dy  Dy2       1.0  0.78600  0.96600  0.18000  1.0000
  Dy  Dy3       1.0  0.21400  0.39500  0.18000  1.0000
  Dy  Dy4       1.0  0.13300  0.80600  0.32700  1.0000
  Dy  Dy5       1.0  0.52000  0.19400  0.32700  1.0000
  Dy  Dy6       1.0  0.73500  0.69500  0.43100  1.0000
  Dy  Dy7       1.0  0.26500  0.30500  0.56900  1.0000
  Dy  Dy8       1.0  0.48000  0.80600  0.67300  1.0000
  Dy  Dy9       1.0  0.86700  0.19400  0.67300  1.0000
  Dy  Dy10      1.0  0.78600  0.60500  0.82000  1.0000
  Dy  Dy11      1.0  0.21400  0.03420  0.82000  1.0000
  Dy  Dy12      1.0  0.26500  0.69500  0.96000  1.0000
  Ga  Ga1       1.0  0.50000  0.50000  0.00000  1.0000
  Ga  Ga2       1.0  1.00000  0.50000  0.50000  1.0000
  Ni  Ni1       1.0  0.12300  0.00000  0.12300  1.0000
  Ni  Ni2       1.0  0.50000  0.84900  0.34900  1.0000
  Ni  Ni3       1.0  0.50000  0.15100  0.65100  1.0000
  Ni  Ni4       1.0  0.87700  0.00000  0.87700  1.0000
