data_image0
_chemical_formula_structural       Pu4Si8Tc6
_chemical_formula_sum              "Pu4 Si8 Tc6"
_cell_length_a       6.83152
_cell_length_b       8.03188
_cell_length_c       5.65327
_cell_angle_alpha    90
_cell_angle_beta     104.029
_cell_angle_gamma    90

_space_group_name_H-M_alt    "P 1"
_space_group_IT_number       1

loop_
  _space_group_symop_operation_xyz
  'x, y, z'

loop_
  _atom_site_type_symbol
  _atom_site_label
  _atom_site_symmetry_multiplicity
  _atom_site_fract_x
  _atom_site_fract_y
  _atom_site_fract_z
  _atom_site_occupancy
  Pu  Pu1       1.0  0.74700  0.55800  0.07130  1.0000
  Pu  Pu2       1.0  0.25300  0.05770  0.42900  1.0000
  Pu  Pu3       1.0  0.74700  0.94200  0.57100  1.0000
  Pu  Pu4       1.0  0.25300  0.44200  0.92900  1.0000
  Si  Si1       1.0  0.87300  0.90400  0.11400  1.0000
  Si  Si2       1.0  0.42100  0.74800  0.22300  1.0000
  Si  Si3       1.0  0.57900  0.24800  0.27700  1.0000
  Si  Si4       1.0  0.12700  0.40400  0.38600  1.0000
  Si  Si5       1.0  0.87300  0.59600  0.61400  1.0000
  Si  Si6       1.0  0.42100  0.75200  0.72300  1.0000
  Si  Si7       1.0  0.57900  0.25200  0.77700  1.0000
  Si  Si8       1.0  0.12700  0.09620  0.88600  1.0000
  Tc  Tc1       1.0  0.50000  0.00000  0.00000  1.0000
  Tc  Tc2       1.0  0.88600  0.20700  0.11300  1.0000
  Tc  Tc3       1.0  0.11400  0.70700  0.38700  1.0000
  Tc  Tc4       1.0  0.50000  0.50000  0.50000  1.0000
  Tc  Tc5       1.0  0.88600  0.29300  0.61300  1.0000
  Tc  Tc6       1.0  0.11400  0.79300  0.88700  1.0000
