data_image0
_chemical_formula_structural       Ag4Ge2Rb4S8
_chemical_formula_sum              "Ag4 Ge2 Rb4 S8"
_cell_length_a       6.42442
_cell_length_b       7.5079
_cell_length_c       11.8509
_cell_angle_alpha    101.904
_cell_angle_beta     98.1593
_cell_angle_gamma    114.056

_space_group_name_H-M_alt    "P 1"
_space_group_IT_number       1

loop_
  _space_group_symop_operation_xyz
  'x, y, z'

loop_
  _atom_site_type_symbol
  _atom_site_label
  _atom_site_symmetry_multiplicity
  _atom_site_fract_x
  _atom_site_fract_y
  _atom_site_fract_z
  _atom_site_occupancy
  Ag  Ag1       1.0  0.78600  0.53600  0.07150  1.0000
  Ag  Ag2       1.0  0.93100  0.68100  0.36200  1.0000
  Ag  Ag3       1.0  0.06920  0.31900  0.63800  1.0000
  Ag  Ag4       1.0  0.21400  0.46400  0.92900  1.0000
  Ge  Ge1       1.0  0.37200  0.62200  0.24300  1.0000
  Ge  Ge2       1.0  0.62800  0.37800  0.75700  1.0000
  Rb  Rb1       1.0  0.81200  0.06220  0.12400  1.0000
  Rb  Rb2       1.0  0.44200  0.19200  0.38400  1.0000
  Rb  Rb3       1.0  0.55800  0.80800  0.61600  1.0000
  Rb  Rb4       1.0  0.18800  0.93800  0.87600  1.0000
  S   S1        1.0  0.41100  0.36200  0.13000  1.0000
  S   S2        1.0  0.21800  0.76800  0.13000  1.0000
  S   S3        1.0  0.71700  0.87700  0.36000  1.0000
  S   S4        1.0  0.14300  0.48300  0.36000  1.0000
  S   S5        1.0  0.85700  0.51700  0.64000  1.0000
  S   S6        1.0  0.28300  0.12300  0.64000  1.0000
  S   S7        1.0  0.58900  0.63800  0.87000  1.0000
  S   S8        1.0  0.78200  0.23200  0.87000  1.0000
