data_image0
_chemical_formula_structural       As2F12I4
_chemical_formula_sum              "As2 F12 I4"
_cell_length_a       5.6079
_cell_length_b       7.66146
_cell_length_c       7.66146
_cell_angle_alpha    77.6488
_cell_angle_beta     102.569
_cell_angle_gamma    102.569

_space_group_name_H-M_alt    "P 1"
_space_group_IT_number       1

loop_
  _space_group_symop_operation_xyz
  'x, y, z'

loop_
  _atom_site_type_symbol
  _atom_site_label
  _atom_site_symmetry_multiplicity
  _atom_site_fract_x
  _atom_site_fract_y
  _atom_site_fract_z
  _atom_site_occupancy
  As  As1       1.0  0.57100  0.31200  0.31200  1.0000
  As  As2       1.0  0.42900  0.68800  0.68800  1.0000
  F   F1        1.0  0.77400  0.41400  0.15600  1.0000
  F   F2        1.0  0.41900  0.16000  0.16000  1.0000
  F   F3        1.0  0.36700  0.46400  0.20400  1.0000
  F   F4        1.0  0.77400  0.15600  0.41400  1.0000
  F   F5        1.0  0.73600  0.46000  0.46000  1.0000
  F   F6        1.0  0.36700  0.20400  0.46400  1.0000
  F   F7        1.0  0.63300  0.79600  0.53600  1.0000
  F   F8        1.0  0.26400  0.54000  0.54000  1.0000
  F   F9        1.0  0.22600  0.84400  0.58600  1.0000
  F   F10       1.0  0.63300  0.53600  0.79600  1.0000
  F   F11       1.0  0.58100  0.84000  0.84000  1.0000
  F   F12       1.0  0.22600  0.58600  0.84400  1.0000
  I   I1        1.0  0.12900  0.76100  0.09070  1.0000
  I   I2        1.0  0.87100  0.90900  0.23900  1.0000
  I   I3        1.0  0.12900  0.09070  0.76100  1.0000
  I   I4        1.0  0.87100  0.23900  0.90900  1.0000
