data_image0
_chemical_formula_structural       F12O2Xe4
_chemical_formula_sum              "F12 O2 Xe4"
_cell_length_a       7.21649
_cell_length_b       7.21649
_cell_length_c       7.35554
_cell_angle_alpha    119.377
_cell_angle_beta     119.377
_cell_angle_gamma    90

_space_group_name_H-M_alt    "P 1"
_space_group_IT_number       1

loop_
  _space_group_symop_operation_xyz
  'x, y, z'

loop_
  _atom_site_type_symbol
  _atom_site_label
  _atom_site_symmetry_multiplicity
  _atom_site_fract_x
  _atom_site_fract_y
  _atom_site_fract_z
  _atom_site_occupancy
  F   F1        1.0  0.76700  0.11100  0.00000  1.0000
  F   F2        1.0  0.11100  0.23300  0.00000  1.0000
  F   F3        1.0  0.88900  0.76700  0.00000  1.0000
  F   F4        1.0  0.23300  0.88900  0.00000  1.0000
  F   F5        1.0  0.95600  0.15000  0.45000  1.0000
  F   F6        1.0  0.49300  0.30000  0.45000  1.0000
  F   F7        1.0  0.15000  0.49300  0.45000  1.0000
  F   F8        1.0  0.30000  0.95600  0.45000  1.0000
  F   F9        1.0  0.70000  0.04360  0.55000  1.0000
  F   F10       1.0  0.85000  0.50700  0.55000  1.0000
  F   F11       1.0  0.50700  0.70000  0.55000  1.0000
  F   F12       1.0  0.04360  0.85000  0.55000  1.0000
  O   O1        1.0  0.60600  0.60600  0.21200  1.0000
  O   O2        1.0  0.39400  0.39400  0.78800  1.0000
  Xe  Xe1       1.0  0.00000  0.50000  0.00000  1.0000
  Xe  Xe2       1.0  0.50000  0.00000  0.00000  1.0000
  Xe  Xe3       1.0  0.22100  0.22100  0.44200  1.0000
  Xe  Xe4       1.0  0.77900  0.77900  0.55800  1.0000
