data_image0
_chemical_formula_structural       F12Rb4U2
_chemical_formula_sum              "F12 Rb4 U2"
_cell_length_a       6.74196
_cell_length_b       6.74196
_cell_length_c       7.36232
_cell_angle_alpha    90
_cell_angle_beta     90
_cell_angle_gamma    119.803

_space_group_name_H-M_alt    "P 1"
_space_group_IT_number       1

loop_
  _space_group_symop_operation_xyz
  'x, y, z'

loop_
  _atom_site_type_symbol
  _atom_site_label
  _atom_site_symmetry_multiplicity
  _atom_site_fract_x
  _atom_site_fract_y
  _atom_site_fract_z
  _atom_site_occupancy
  F   F1        1.0  0.89300  0.10700  0.04810  1.0000
  F   F2        1.0  0.29400  0.31400  0.25000  1.0000
  F   F3        1.0  0.00803  0.59100  0.25000  1.0000
  F   F4        1.0  0.68600  0.70600  0.25000  1.0000
  F   F5        1.0  0.40900  0.99200  0.25000  1.0000
  F   F6        1.0  0.89300  0.10700  0.45200  1.0000
  F   F7        1.0  0.10700  0.89300  0.54800  1.0000
  F   F8        1.0  0.59100  0.00803  0.75000  1.0000
  F   F9        1.0  0.31400  0.29400  0.75000  1.0000
  F   F10       1.0  0.99200  0.40900  0.75000  1.0000
  F   F11       1.0  0.70600  0.68600  0.75000  1.0000
  F   F12       1.0  0.10700  0.89300  0.95200  1.0000
  Rb  Rb1       1.0  0.65400  0.34600  0.00204  1.0000
  Rb  Rb2       1.0  0.65400  0.34600  0.49800  1.0000
  Rb  Rb3       1.0  0.34600  0.65400  0.50200  1.0000
  Rb  Rb4       1.0  0.34600  0.65400  0.99800  1.0000
  U   U1        1.0  0.05410  0.94600  0.25000  1.0000
  U   U2        1.0  0.94600  0.05410  0.75000  1.0000
