data_image0
_chemical_formula_structural       C8O8Ru2
_chemical_formula_sum              "C8 O8 Ru2"
_cell_length_a       5.6846
_cell_length_b       6.89605
_cell_length_c       8.24663
_cell_angle_alpha    114.716
_cell_angle_beta     110.161
_cell_angle_gamma    90

_space_group_name_H-M_alt    "P 1"
_space_group_IT_number       1

loop_
  _space_group_symop_operation_xyz
  'x, y, z'

loop_
  _atom_site_type_symbol
  _atom_site_label
  _atom_site_symmetry_multiplicity
  _atom_site_fract_x
  _atom_site_fract_y
  _atom_site_fract_z
  _atom_site_occupancy
  C   C1        1.0  0.55900  0.31400  0.11800  1.0000
  C   C2        1.0  0.05880  0.80300  0.11800  1.0000
  C   C3        1.0  0.62800  0.01110  0.25500  1.0000
  C   C4        1.0  0.12800  0.24400  0.25500  1.0000
  C   C5        1.0  0.87200  0.75600  0.74500  1.0000
  C   C6        1.0  0.37200  0.98900  0.74500  1.0000
  C   C7        1.0  0.94100  0.19700  0.88200  1.0000
  C   C8        1.0  0.44100  0.68600  0.88200  1.0000
  O   O1        1.0  0.59400  0.50200  0.18900  1.0000
  O   O2        1.0  0.09430  0.68700  0.18900  1.0000
  O   O3        1.0  0.70300  0.01690  0.40700  1.0000
  O   O4        1.0  0.20300  0.39000  0.40700  1.0000
  O   O5        1.0  0.79700  0.61000  0.59300  1.0000
  O   O6        1.0  0.29700  0.98300  0.59300  1.0000
  O   O7        1.0  0.90600  0.31300  0.81100  1.0000
  O   O8        1.0  0.40600  0.49800  0.81100  1.0000
  Ru  Ru1       1.0  0.00000  0.00000  0.00000  1.0000
  Ru  Ru2       1.0  0.50000  0.00000  0.00000  1.0000
