data_image0
_chemical_formula_structural       B4Ce4Ir10
_chemical_formula_sum              "B4 Ce4 Ir10"
_cell_length_a       5.57326
_cell_length_b       5.57326
_cell_length_c       11.1855
_cell_angle_alpha    90
_cell_angle_beta     75.5741
_cell_angle_gamma    120

_space_group_name_H-M_alt    "P 1"
_space_group_IT_number       1

loop_
  _space_group_symop_operation_xyz
  'x, y, z'

loop_
  _atom_site_type_symbol
  _atom_site_label
  _atom_site_symmetry_multiplicity
  _atom_site_fract_x
  _atom_site_fract_y
  _atom_site_fract_z
  _atom_site_occupancy
  B   B1        1.0  0.23700  0.61800  0.14500  1.0000
  B   B2        1.0  0.56700  0.28400  0.14900  1.0000
  B   B3        1.0  0.43300  0.71600  0.85100  1.0000
  B   B4        1.0  0.76300  0.38200  0.85500  1.0000
  Ce  Ce1       1.0  0.90000  0.95000  0.15000  1.0000
  Ce  Ce2       1.0  0.69700  0.84800  0.45500  1.0000
  Ce  Ce3       1.0  0.30300  0.15200  0.54500  1.0000
  Ce  Ce4       1.0  0.09980  0.04990  0.85000  1.0000
  Ir  Ir1       1.0  0.50000  0.50000  0.00000  1.0000
  Ir  Ir2       1.0  0.00000  0.50000  0.00000  1.0000
  Ir  Ir3       1.0  0.81700  0.40900  0.28500  1.0000
  Ir  Ir4       1.0  0.30700  0.40900  0.28500  1.0000
  Ir  Ir5       1.0  0.30700  0.89800  0.28500  1.0000
  Ir  Ir6       1.0  0.00000  0.50000  0.50000  1.0000
  Ir  Ir7       1.0  0.69300  0.10200  0.71500  1.0000
  Ir  Ir8       1.0  0.69300  0.59100  0.71500  1.0000
  Ir  Ir9       1.0  0.18300  0.59100  0.71500  1.0000
  Ir  Ir10      1.0  0.50000  0.00000  0.00000  1.0000
