data_image0
_chemical_formula_structural       La3Mn9Ni6
_chemical_formula_sum              "La3 Mn9 Ni6"
_cell_length_a       9.10074
_cell_length_b       9.10074
_cell_length_c       4.14449
_cell_angle_alpha    90
_cell_angle_beta     90
_cell_angle_gamma    120

_space_group_name_H-M_alt    "P 1"
_space_group_IT_number       1

loop_
  _space_group_symop_operation_xyz
  'x, y, z'

loop_
  _atom_site_type_symbol
  _atom_site_label
  _atom_site_symmetry_multiplicity
  _atom_site_fract_x
  _atom_site_fract_y
  _atom_site_fract_z
  _atom_site_occupancy
  La  La1       1.0  0.00000  0.00000  0.00000  1.0000
  La  La2       1.0  0.66700  0.33300  0.50000  1.0000
  La  La3       1.0  0.33300  0.66700  0.50000  1.0000
  Mn  Mn1       1.0  0.50000  0.00001  0.00000  1.0000
  Mn  Mn2       1.0  0.50000  0.50000  0.00000  1.0000
  Mn  Mn3       1.0  0.00001  0.50000  0.00000  1.0000
  Mn  Mn4       1.0  0.30400  0.00001  0.50000  1.0000
  Mn  Mn5       1.0  0.69600  0.00003  0.50000  1.0000
  Mn  Mn6       1.0  0.30400  0.30400  0.50000  1.0000
  Mn  Mn7       1.0  0.00001  0.30400  0.50000  1.0000
  Mn  Mn8       1.0  0.00003  0.69600  0.50000  1.0000
  Mn  Mn9       1.0  0.69600  0.69600  0.50000  1.0000
  Ni  Ni1       1.0  0.36000  0.18000  0.00000  1.0000
  Ni  Ni2       1.0  0.82000  0.18000  0.00000  1.0000
  Ni  Ni3       1.0  0.18000  0.36000  0.00000  1.0000
  Ni  Ni4       1.0  0.82000  0.64000  0.00000  1.0000
  Ni  Ni5       1.0  0.18000  0.82000  0.00000  1.0000
  Ni  Ni6       1.0  0.64000  0.82000  0.00000  1.0000
