data_image0
_chemical_formula_structural       C2Gd10Ge6
_chemical_formula_sum              "C2 Gd10 Ge6"
_cell_length_a       8.61379
_cell_length_b       8.61379
_cell_length_c       6.55029
_cell_angle_alpha    90
_cell_angle_beta     90
_cell_angle_gamma    120

_space_group_name_H-M_alt    "P 1"
_space_group_IT_number       1

loop_
  _space_group_symop_operation_xyz
  'x, y, z'

loop_
  _atom_site_type_symbol
  _atom_site_label
  _atom_site_symmetry_multiplicity
  _atom_site_fract_x
  _atom_site_fract_y
  _atom_site_fract_z
  _atom_site_occupancy
  C   C1        1.0  1.00000  1.00000  0.00000  1.0000
  C   C2        1.0  0.00000  0.00000  0.50000  1.0000
  Gd  Gd1       1.0  0.66700  0.33300  0.00000  1.0000
  Gd  Gd2       1.0  0.33300  0.66700  0.00000  1.0000
  Gd  Gd3       1.0  0.22200  1.00000  0.25000  1.0000
  Gd  Gd4       1.0  1.00000  0.22200  0.25000  1.0000
  Gd  Gd5       1.0  0.77800  0.77800  0.25000  1.0000
  Gd  Gd6       1.0  0.66700  0.33300  0.50000  1.0000
  Gd  Gd7       1.0  0.33300  0.66700  0.50000  1.0000
  Gd  Gd8       1.0  0.77800  0.00000  0.75000  1.0000
  Gd  Gd9       1.0  0.00000  0.77800  0.75000  1.0000
  Gd  Gd10      1.0  0.22200  0.22200  0.75000  1.0000
  Ge  Ge1       1.0  0.41000  0.41000  0.25000  1.0000
  Ge  Ge2       1.0  0.59000  1.00000  0.25000  1.0000
  Ge  Ge3       1.0  0.00000  0.59000  0.25000  1.0000
  Ge  Ge4       1.0  0.59000  0.59000  0.75000  1.0000
  Ge  Ge5       1.0  0.41000  0.00000  0.75000  1.0000
  Ge  Ge6       1.0  0.00000  0.41000  0.75000  1.0000
