data_image0
_chemical_formula_structural       F12K4Zr2
_chemical_formula_sum              "F12 K4 Zr2"
_cell_length_a       6.42562
_cell_length_b       6.39218
_cell_length_c       6.78279
_cell_angle_alpha    90
_cell_angle_beta     90
_cell_angle_gamma    59.8268

_space_group_name_H-M_alt    "P 1"
_space_group_IT_number       1

loop_
  _space_group_symop_operation_xyz
  'x, y, z'

loop_
  _atom_site_type_symbol
  _atom_site_label
  _atom_site_symmetry_multiplicity
  _atom_site_fract_x
  _atom_site_fract_y
  _atom_site_fract_z
  _atom_site_occupancy
  F   F1        1.0  0.10500  0.79000  0.05130  1.0000
  F   F2        1.0  0.99000  0.41400  0.25000  1.0000
  F   F3        1.0  0.59600  0.41400  0.25000  1.0000
  F   F4        1.0  0.70900  0.98200  0.25000  1.0000
  F   F5        1.0  0.30900  0.98200  0.25000  1.0000
  F   F6        1.0  0.10500  0.79000  0.44900  1.0000
  F   F7        1.0  0.89500  0.21000  0.55100  1.0000
  F   F8        1.0  0.69100  0.01800  0.75000  1.0000
  F   F9        1.0  0.29100  0.01800  0.75000  1.0000
  F   F10       1.0  0.40400  0.58600  0.75000  1.0000
  F   F11       1.0  0.01050  0.58600  0.75000  1.0000
  F   F12       1.0  0.89500  0.21000  0.94900  1.0000
  K   K1        1.0  0.34600  0.30700  0.00264  1.0000
  K   K2        1.0  0.34600  0.30700  0.49700  1.0000
  K   K3        1.0  0.65400  0.69300  0.50300  1.0000
  K   K4        1.0  0.65400  0.69300  0.99700  1.0000
  Zr  Zr1       1.0  0.94600  0.10800  0.25000  1.0000
  Zr  Zr2       1.0  0.05400  0.89200  0.75000  1.0000
