data_image0
_chemical_formula_structural       Ca4Pd6Sb8
_chemical_formula_sum              "Ca4 Pd6 Sb8"
_cell_length_a       4.51336
_cell_length_b       4.51336
_cell_length_c       21.1106
_cell_angle_alpha    96.1365
_cell_angle_beta     96.1365
_cell_angle_gamma    90

_space_group_name_H-M_alt    "P 1"
_space_group_IT_number       1

loop_
  _space_group_symop_operation_xyz
  'x, y, z'

loop_
  _atom_site_type_symbol
  _atom_site_label
  _atom_site_symmetry_multiplicity
  _atom_site_fract_x
  _atom_site_fract_y
  _atom_site_fract_z
  _atom_site_occupancy
  Ca  Ca1       1.0  0.05500  0.05500  0.11000  1.0000
  Ca  Ca2       1.0  0.18700  0.18700  0.37400  1.0000
  Ca  Ca3       1.0  0.81300  0.81300  0.62600  1.0000
  Ca  Ca4       1.0  0.94500  0.94500  0.89000  1.0000
  Pd  Pd1       1.0  0.50000  0.00000  0.00000  1.0000
  Pd  Pd2       1.0  0.00000  0.50000  0.00000  1.0000
  Pd  Pd3       1.0  0.65400  0.65400  0.30700  1.0000
  Pd  Pd4       1.0  0.75000  0.25000  0.50000  1.0000
  Pd  Pd5       1.0  0.25000  0.75000  0.50000  1.0000
  Pd  Pd6       1.0  0.34600  0.34600  0.69300  1.0000
  Sb  Sb1       1.0  0.53800  0.53800  0.07590  1.0000
  Sb  Sb2       1.0  0.61800  0.11800  0.23500  1.0000
  Sb  Sb3       1.0  0.11800  0.61800  0.23500  1.0000
  Sb  Sb4       1.0  0.71600  0.71600  0.43100  1.0000
  Sb  Sb5       1.0  0.28400  0.28400  0.56900  1.0000
  Sb  Sb6       1.0  0.88200  0.38200  0.76500  1.0000
  Sb  Sb7       1.0  0.38200  0.88200  0.76500  1.0000
  Sb  Sb8       1.0  0.46200  0.46200  0.92400  1.0000
