data_image0
_chemical_formula_structural       O12Sb4W2
_chemical_formula_sum              "O12 Sb4 W2"
_cell_length_a       5.53324
_cell_length_b       4.94243
_cell_length_c       9.15365
_cell_angle_alpha    90.0557
_cell_angle_beta     96.3265
_cell_angle_gamma    90.0286

_space_group_name_H-M_alt    "P 1"
_space_group_IT_number       1

loop_
  _space_group_symop_operation_xyz
  'x, y, z'

loop_
  _atom_site_type_symbol
  _atom_site_label
  _atom_site_symmetry_multiplicity
  _atom_site_fract_x
  _atom_site_fract_y
  _atom_site_fract_z
  _atom_site_occupancy
  O   O1        1.0  0.30200  0.21000  0.06100  1.0000
  O   O2        1.0  0.80500  0.28500  0.06380  1.0000
  O   O3        1.0  0.51500  0.65000  0.19100  1.0000
  O   O4        1.0  0.02000  0.85800  0.19200  1.0000
  O   O5        1.0  0.86800  0.67900  0.44000  1.0000
  O   O6        1.0  0.37200  0.81400  0.44400  1.0000
  O   O7        1.0  0.14500  0.31500  0.55700  1.0000
  O   O8        1.0  0.64700  0.17900  0.56200  1.0000
  O   O9        1.0  0.50000  0.35800  0.80900  1.0000
  O   O10       1.0  0.00196  0.15100  0.81100  1.0000
  O   O11       1.0  0.71500  0.78400  0.93900  1.0000
  O   O12       1.0  0.21800  0.71000  0.94000  1.0000
  Sb  Sb1       1.0  0.15200  0.54100  0.33400  1.0000
  Sb  Sb2       1.0  0.65100  0.96100  0.33600  1.0000
  Sb  Sb3       1.0  0.86500  0.46000  0.66600  1.0000
  Sb  Sb4       1.0  0.36300  0.04170  0.66800  1.0000
  W   W1        1.0  0.00253  0.96200  0.99200  1.0000
  W   W2        1.0  0.51800  0.46300  0.00999  1.0000
