data_image0
_chemical_formula_structural       Be2F12Ho2K2
_chemical_formula_sum              "Be2 F12 Ho2 K2"
_cell_length_a       7.13931
_cell_length_b       5.7228
_cell_length_c       6.12479
_cell_angle_alpha    90
_cell_angle_beta     119.738
_cell_angle_gamma    90

_space_group_name_H-M_alt    "P 1"
_space_group_IT_number       1

loop_
  _space_group_symop_operation_xyz
  'x, y, z'

loop_
  _atom_site_type_symbol
  _atom_site_label
  _atom_site_symmetry_multiplicity
  _atom_site_fract_x
  _atom_site_fract_y
  _atom_site_fract_z
  _atom_site_occupancy
  Be  Be1       1.0  0.53600  0.75000  0.27300  1.0000
  Be  Be2       1.0  0.46400  0.25000  0.72700  1.0000
  F   F1        1.0  0.40100  0.53700  0.12200  1.0000
  F   F2        1.0  0.40100  0.96300  0.12200  1.0000
  F   F3        1.0  0.04780  0.00307  0.23000  1.0000
  F   F4        1.0  0.04780  0.49700  0.23000  1.0000
  F   F5        1.0  0.75400  0.75000  0.27800  1.0000
  F   F6        1.0  0.43900  0.25000  0.46500  1.0000
  F   F7        1.0  0.56100  0.75000  0.53500  1.0000
  F   F8        1.0  0.24600  0.25000  0.72200  1.0000
  F   F9        1.0  0.95200  0.50300  0.77000  1.0000
  F   F10       1.0  0.95200  0.99700  0.77000  1.0000
  F   F11       1.0  0.59900  0.03720  0.87800  1.0000
  F   F12       1.0  0.59900  0.46300  0.87800  1.0000
  Ho  Ho1       1.0  0.17600  0.25000  0.05850  1.0000
  Ho  Ho2       1.0  0.82400  0.75000  0.94200  1.0000
  K   K1        1.0  0.79000  0.25000  0.35900  1.0000
  K   K2        1.0  0.21000  0.75000  0.64100  1.0000
