data_image0
_chemical_formula_structural       As6C2V10
_chemical_formula_sum              "As6 C2 V10"
_cell_length_a       7.13615
_cell_length_b       7.13615
_cell_length_c       5.23917
_cell_angle_alpha    90
_cell_angle_beta     90
_cell_angle_gamma    119.996

_space_group_name_H-M_alt    "P 1"
_space_group_IT_number       1

loop_
  _space_group_symop_operation_xyz
  'x, y, z'

loop_
  _atom_site_type_symbol
  _atom_site_label
  _atom_site_symmetry_multiplicity
  _atom_site_fract_x
  _atom_site_fract_y
  _atom_site_fract_z
  _atom_site_occupancy
  As  As1       1.0  0.59800  0.00007  0.25000  1.0000
  As  As2       1.0  0.00007  0.59800  0.25000  1.0000
  As  As3       1.0  0.40200  0.40200  0.25000  1.0000
  As  As4       1.0  0.00000  0.40200  0.75000  1.0000
  As  As5       1.0  0.40200  0.00000  0.75000  1.0000
  As  As6       1.0  0.59800  0.59800  0.75000  1.0000
  C   C1        1.0  0.00000  0.00000  0.00000  1.0000
  C   C2        1.0  0.00000  0.00000  0.50000  1.0000
  V   V1        1.0  0.66700  0.33300  0.00000  1.0000
  V   V2        1.0  0.33300  0.66700  0.00000  1.0000
  V   V3        1.0  0.77700  0.77700  0.25000  1.0000
  V   V4        1.0  0.00000  0.22300  0.25000  1.0000
  V   V5        1.0  0.22300  0.00000  0.25000  1.0000
  V   V6        1.0  0.66700  0.33300  0.50000  1.0000
  V   V7        1.0  0.33300  0.66700  0.50000  1.0000
  V   V8        1.0  0.22300  0.22300  0.75000  1.0000
  V   V9        1.0  0.77700  0.00002  0.75000  1.0000
  V   V10       1.0  0.00002  0.77700  0.75000  1.0000
