data_image0
_chemical_formula_structural       I12K4Te2
_chemical_formula_sum              "I12 K4 Te2"
_cell_length_a       11.5452
_cell_length_b       8.51352
_cell_length_c       8.24525
_cell_angle_alpha    90
_cell_angle_beta     90.354
_cell_angle_gamma    90

_space_group_name_H-M_alt    "P 1"
_space_group_IT_number       1

loop_
  _space_group_symop_operation_xyz
  'x, y, z'

loop_
  _atom_site_type_symbol
  _atom_site_label
  _atom_site_symmetry_multiplicity
  _atom_site_fract_x
  _atom_site_fract_y
  _atom_site_fract_z
  _atom_site_occupancy
  I   I1        1.0  0.25100  0.00414  0.08640  1.0000
  I   I2        1.0  0.96400  0.29300  0.19100  1.0000
  I   I3        1.0  0.54900  0.30600  0.20700  1.0000
  I   I4        1.0  0.95100  0.80600  0.29300  1.0000
  I   I5        1.0  0.53600  0.79300  0.30900  1.0000
  I   I6        1.0  0.24900  0.50400  0.41400  1.0000
  I   I7        1.0  0.75100  0.49600  0.58600  1.0000
  I   I8        1.0  0.46400  0.20700  0.69100  1.0000
  I   I9        1.0  0.04870  0.19400  0.70700  1.0000
  I   I10       1.0  0.45100  0.69400  0.79300  1.0000
  I   I11       1.0  0.03640  0.70700  0.80900  1.0000
  I   I12       1.0  0.74900  0.99600  0.91400  1.0000
  K   K1        1.0  0.74700  0.58200  0.02080  1.0000
  K   K2        1.0  0.75300  0.08250  0.47900  1.0000
  K   K3        1.0  0.24700  0.91800  0.52100  1.0000
  K   K4        1.0  0.25300  0.41800  0.97900  1.0000
  Te  Te1       1.0  0.00000  0.00000  0.00000  1.0000
  Te  Te2       1.0  0.50000  0.50000  0.50000  1.0000
