data_image0
_chemical_formula_structural       Al4As8Ca6
_chemical_formula_sum              "Al4 As8 Ca6"
_cell_length_a       8.28503
_cell_length_b       7.86423
_cell_length_c       7.86423
_cell_angle_alpha    62.4056
_cell_angle_beta     93.0244
_cell_angle_gamma    93.0244

_space_group_name_H-M_alt    "P 1"
_space_group_IT_number       1

loop_
  _space_group_symop_operation_xyz
  'x, y, z'

loop_
  _atom_site_type_symbol
  _atom_site_label
  _atom_site_symmetry_multiplicity
  _atom_site_fract_x
  _atom_site_fract_y
  _atom_site_fract_z
  _atom_site_occupancy
  Al  Al1       1.0  0.45800  0.41800  0.19200  1.0000
  Al  Al2       1.0  0.95800  0.19200  0.41800  1.0000
  Al  Al3       1.0  0.04240  0.80800  0.58200  1.0000
  Al  Al4       1.0  0.54200  0.58200  0.80800  1.0000
  As  As1       1.0  0.53700  0.77200  0.00057  1.0000
  As  As2       1.0  0.96300  0.99900  0.22800  1.0000
  As  As3       1.0  0.17100  0.44300  0.26400  1.0000
  As  As4       1.0  0.67100  0.26400  0.44300  1.0000
  As  As5       1.0  0.32900  0.73600  0.55700  1.0000
  As  As6       1.0  0.82900  0.55700  0.73600  1.0000
  As  As7       1.0  0.03730  0.00057  0.77200  1.0000
  As  As8       1.0  0.46300  0.22800  0.99900  1.0000
  Ca  Ca1       1.0  0.86300  0.63600  0.08600  1.0000
  Ca  Ca2       1.0  0.25000  0.84800  0.15200  1.0000
  Ca  Ca3       1.0  0.63700  0.91400  0.36400  1.0000
  Ca  Ca4       1.0  0.36300  0.08600  0.63600  1.0000
  Ca  Ca5       1.0  0.75000  0.15200  0.84800  1.0000
  Ca  Ca6       1.0  0.13700  0.36400  0.91400  1.0000
