data_image0
_chemical_formula_structural       Ag14Yb4
_chemical_formula_sum              "Ag14 Yb4"
_cell_length_a       5.45914
_cell_length_b       5.45914
_cell_length_c       14.0802
_cell_angle_alpha    90
_cell_angle_beta     90
_cell_angle_gamma    60.479

_space_group_name_H-M_alt    "P 1"
_space_group_IT_number       1

loop_
  _space_group_symop_operation_xyz
  'x, y, z'

loop_
  _atom_site_type_symbol
  _atom_site_label
  _atom_site_symmetry_multiplicity
  _atom_site_fract_x
  _atom_site_fract_y
  _atom_site_fract_z
  _atom_site_occupancy
  Ag  Ag1       1.0  0.51500  0.16200  0.07510  1.0000
  Ag  Ag2       1.0  0.83800  0.48500  0.07510  1.0000
  Ag  Ag3       1.0  0.17400  0.32500  0.25000  1.0000
  Ag  Ag4       1.0  0.67400  0.32600  0.25000  1.0000
  Ag  Ag5       1.0  0.67500  0.82600  0.25000  1.0000
  Ag  Ag6       1.0  0.51500  0.16200  0.42500  1.0000
  Ag  Ag7       1.0  0.83800  0.48500  0.42500  1.0000
  Ag  Ag8       1.0  0.16200  0.51500  0.57500  1.0000
  Ag  Ag9       1.0  0.48500  0.83800  0.57500  1.0000
  Ag  Ag10      1.0  0.32500  0.17400  0.75000  1.0000
  Ag  Ag11      1.0  0.32600  0.67400  0.75000  1.0000
  Ag  Ag12      1.0  0.82600  0.67500  0.75000  1.0000
  Ag  Ag13      1.0  0.16200  0.51500  0.92500  1.0000
  Ag  Ag14      1.0  0.48500  0.83800  0.92500  1.0000
  Yb  Yb1       1.0  0.18100  0.81900  0.11600  1.0000
  Yb  Yb2       1.0  0.18100  0.81900  0.38400  1.0000
  Yb  Yb3       1.0  0.81900  0.18100  0.61600  1.0000
  Yb  Yb4       1.0  0.81900  0.18100  0.88400  1.0000
