data_image0
_chemical_formula_structural       Dy12Ni4Sn2
_chemical_formula_sum              "Dy12 Ni4 Sn2"
_cell_length_a       8.40709
_cell_length_b       8.40709
_cell_length_c       8.40709
_cell_angle_alpha    109.434
_cell_angle_beta     105.952
_cell_angle_gamma    113.107

_space_group_name_H-M_alt    "P 1"
_space_group_IT_number       1

loop_
  _space_group_symop_operation_xyz
  'x, y, z'

loop_
  _atom_site_type_symbol
  _atom_site_label
  _atom_site_symmetry_multiplicity
  _atom_site_fract_x
  _atom_site_fract_y
  _atom_site_fract_z
  _atom_site_occupancy
  Dy  Dy1       1.0  0.73300  0.29600  0.02890  1.0000
  Dy  Dy2       1.0  0.20900  0.39200  0.18300  1.0000
  Dy  Dy3       1.0  0.79100  0.97400  0.18300  1.0000
  Dy  Dy4       1.0  0.51600  0.19200  0.32500  1.0000
  Dy  Dy5       1.0  0.13300  0.80800  0.32500  1.0000
  Dy  Dy6       1.0  0.73300  0.70400  0.43700  1.0000
  Dy  Dy7       1.0  0.26700  0.29600  0.56300  1.0000
  Dy  Dy8       1.0  0.48400  0.80800  0.67500  1.0000
  Dy  Dy9       1.0  0.86700  0.19200  0.67500  1.0000
  Dy  Dy10      1.0  0.20900  0.02650  0.81700  1.0000
  Dy  Dy11      1.0  0.79100  0.60800  0.81700  1.0000
  Dy  Dy12      1.0  0.26700  0.70400  0.97100  1.0000
  Ni  Ni1       1.0  0.12300  0.00000  0.12300  1.0000
  Ni  Ni2       1.0  0.50000  0.85200  0.35200  1.0000
  Ni  Ni3       1.0  0.50000  0.14800  0.64800  1.0000
  Ni  Ni4       1.0  0.87700  0.00000  0.87700  1.0000
  Sn  Sn1       1.0  0.50000  0.50000  0.00000  1.0000
  Sn  Sn2       1.0  0.00000  0.50000  0.50000  1.0000
