data_image0
_chemical_formula_structural       F12Sb2Te4
_chemical_formula_sum              "F12 Sb2 Te4"
_cell_length_a       5.33879
_cell_length_b       7.78291
_cell_length_c       8.10375
_cell_angle_alpha    72.8726
_cell_angle_beta     104.503
_cell_angle_gamma    103.322

_space_group_name_H-M_alt    "P 1"
_space_group_IT_number       1

loop_
  _space_group_symop_operation_xyz
  'x, y, z'

loop_
  _atom_site_type_symbol
  _atom_site_label
  _atom_site_symmetry_multiplicity
  _atom_site_fract_x
  _atom_site_fract_y
  _atom_site_fract_z
  _atom_site_occupancy
  F   F1        1.0  0.66600  0.85500  0.10800  1.0000
  F   F2        1.0  0.30100  0.93100  0.23700  1.0000
  F   F3        1.0  0.40200  0.58700  0.32200  1.0000
  F   F4        1.0  0.82200  0.05300  0.34500  1.0000
  F   F5        1.0  0.45500  0.20800  0.42900  1.0000
  F   F6        1.0  0.91000  0.70500  0.43700  1.0000
  F   F7        1.0  0.09030  0.29500  0.56300  1.0000
  F   F8        1.0  0.54500  0.79200  0.57100  1.0000
  F   F9        1.0  0.17800  0.94700  0.65500  1.0000
  F   F10       1.0  0.59800  0.41300  0.67800  1.0000
  F   F11       1.0  0.69900  0.06920  0.76300  1.0000
  F   F12       1.0  0.33400  0.14500  0.89200  1.0000
  Sb  Sb1       1.0  0.60500  0.81900  0.34200  1.0000
  Sb  Sb2       1.0  0.39500  0.18100  0.65800  1.0000
  Te  Te1       1.0  0.06520  0.26100  0.06590  1.0000
  Te  Te2       1.0  0.81300  0.44200  0.18900  1.0000
  Te  Te3       1.0  0.18700  0.55800  0.81100  1.0000
  Te  Te4       1.0  0.93500  0.73900  0.93400  1.0000
