data_image0
_chemical_formula_structural       B8La2Re8
_chemical_formula_sum              "B8 La2 Re8"
_cell_length_a       5.42588
_cell_length_b       5.42588
_cell_length_c       7.70641
_cell_angle_alpha    90
_cell_angle_beta     90
_cell_angle_gamma    90

_space_group_name_H-M_alt    "P 1"
_space_group_IT_number       1

loop_
  _space_group_symop_operation_xyz
  'x, y, z'

loop_
  _atom_site_type_symbol
  _atom_site_label
  _atom_site_symmetry_multiplicity
  _atom_site_fract_x
  _atom_site_fract_y
  _atom_site_fract_z
  _atom_site_occupancy
  B   B1        1.0  0.25000  0.07960  0.10400  1.0000
  B   B2        1.0  0.25000  0.42000  0.10400  1.0000
  B   B3        1.0  0.58000  0.75000  0.39600  1.0000
  B   B4        1.0  0.92000  0.75000  0.39600  1.0000
  B   B5        1.0  0.07960  0.25000  0.60400  1.0000
  B   B6        1.0  0.42000  0.25000  0.60400  1.0000
  B   B7        1.0  0.75000  0.58000  0.89600  1.0000
  B   B8        1.0  0.75000  0.92000  0.89600  1.0000
  La  La1       1.0  0.75000  0.25000  0.25000  1.0000
  La  La2       1.0  0.25000  0.75000  0.75000  1.0000
  Re  Re1       1.0  0.00215  0.75000  0.11200  1.0000
  Re  Re2       1.0  0.49800  0.75000  0.11200  1.0000
  Re  Re3       1.0  0.25000  0.50200  0.38800  1.0000
  Re  Re4       1.0  0.25000  0.99800  0.38800  1.0000
  Re  Re5       1.0  0.75000  0.00215  0.61200  1.0000
  Re  Re6       1.0  0.75000  0.49800  0.61200  1.0000
  Re  Re7       1.0  0.50200  0.25000  0.88800  1.0000
  Re  Re8       1.0  0.99800  0.25000  0.88800  1.0000
