data_image0
_chemical_formula_structural       I12Rb4Te2
_chemical_formula_sum              "I12 Rb4 Te2"
_cell_length_a       8.18304
_cell_length_b       8.18304
_cell_length_c       12.4524
_cell_angle_alpha    90
_cell_angle_beta     90
_cell_angle_gamma    90

_space_group_name_H-M_alt    "P 1"
_space_group_IT_number       1

loop_
  _space_group_symop_operation_xyz
  'x, y, z'

loop_
  _atom_site_type_symbol
  _atom_site_label
  _atom_site_symmetry_multiplicity
  _atom_site_fract_x
  _atom_site_fract_y
  _atom_site_fract_z
  _atom_site_occupancy
  I   I1        1.0  0.69700  0.20100  0.00000  1.0000
  I   I2        1.0  0.20100  0.30300  0.00000  1.0000
  I   I3        1.0  0.79900  0.69700  0.00000  1.0000
  I   I4        1.0  0.30300  0.79900  0.00000  1.0000
  I   I5        1.0  0.00000  0.00000  0.24000  1.0000
  I   I6        1.0  0.50000  0.50000  0.26000  1.0000
  I   I7        1.0  0.70100  0.19700  0.50000  1.0000
  I   I8        1.0  0.19700  0.29900  0.50000  1.0000
  I   I9        1.0  0.80300  0.70100  0.50000  1.0000
  I   I10       1.0  0.29900  0.80300  0.50000  1.0000
  I   I11       1.0  0.50000  0.50000  0.74000  1.0000
  I   I12       1.0  0.00000  0.00000  0.76000  1.0000
  Rb  Rb1       1.0  0.50000  0.00000  0.25000  1.0000
  Rb  Rb2       1.0  0.00000  0.50000  0.25000  1.0000
  Rb  Rb3       1.0  0.50000  0.00000  0.75000  1.0000
  Rb  Rb4       1.0  0.00000  0.50000  0.75000  1.0000
  Te  Te1       1.0  0.00000  0.00000  0.00000  1.0000
  Te  Te2       1.0  0.50000  0.50000  0.50000  1.0000
