data_image0
_chemical_formula_structural       B2Ge6Nb10
_chemical_formula_sum              "B2 Ge6 Nb10"
_cell_length_a       7.77993
_cell_length_b       7.77993
_cell_length_c       5.3634
_cell_angle_alpha    90
_cell_angle_beta     90
_cell_angle_gamma    120

_space_group_name_H-M_alt    "P 1"
_space_group_IT_number       1

loop_
  _space_group_symop_operation_xyz
  'x, y, z'

loop_
  _atom_site_type_symbol
  _atom_site_label
  _atom_site_symmetry_multiplicity
  _atom_site_fract_x
  _atom_site_fract_y
  _atom_site_fract_z
  _atom_site_occupancy
  B   B1        1.0  0.00000  0.00000  0.00000  1.0000
  B   B2        1.0  1.00000  1.00000  0.50000  1.0000
  Ge  Ge1       1.0  0.60000  0.00000  0.25000  1.0000
  Ge  Ge2       1.0  0.00000  0.60000  0.25000  1.0000
  Ge  Ge3       1.0  0.40000  0.40000  0.25000  1.0000
  Ge  Ge4       1.0  0.40000  1.00000  0.75000  1.0000
  Ge  Ge5       1.0  1.00000  0.40000  0.75000  1.0000
  Ge  Ge6       1.0  0.60000  0.60000  0.75000  1.0000
  Nb  Nb1       1.0  0.66700  0.33300  0.00000  1.0000
  Nb  Nb2       1.0  0.33300  0.66700  0.00000  1.0000
  Nb  Nb3       1.0  0.24400  1.00000  0.25000  1.0000
  Nb  Nb4       1.0  1.00000  0.24400  0.25000  1.0000
  Nb  Nb5       1.0  0.75600  0.75600  0.25000  1.0000
  Nb  Nb6       1.0  0.66700  0.33300  0.50000  1.0000
  Nb  Nb7       1.0  0.33300  0.66700  0.50000  1.0000
  Nb  Nb8       1.0  0.75600  0.00000  0.75000  1.0000
  Nb  Nb9       1.0  0.24400  0.24400  0.75000  1.0000
  Nb  Nb10      1.0  0.00000  0.75600  0.75000  1.0000
