data_image0
_chemical_formula_structural       Au10K6Pb2
_chemical_formula_sum              "Au10 K6 Pb2"
_cell_length_a       5.79186
_cell_length_b       8.62899
_cell_length_c       11.2813
_cell_angle_alpha    112.485
_cell_angle_beta     104.874
_cell_angle_gamma    90

_space_group_name_H-M_alt    "P 1"
_space_group_IT_number       1

loop_
  _space_group_symop_operation_xyz
  'x, y, z'

loop_
  _atom_site_type_symbol
  _atom_site_label
  _atom_site_symmetry_multiplicity
  _atom_site_fract_x
  _atom_site_fract_y
  _atom_site_fract_z
  _atom_site_occupancy
  Au  Au1       1.0  0.00000  0.00000  0.00000  1.0000
  Au  Au2       1.0  0.50000  0.50000  0.00000  1.0000
  Au  Au3       1.0  0.31600  0.31600  0.13100  1.0000
  Au  Au4       1.0  0.81600  0.31600  0.13100  1.0000
  Au  Au5       1.0  0.14400  0.18100  0.28700  1.0000
  Au  Au6       1.0  0.64400  0.60600  0.28700  1.0000
  Au  Au7       1.0  0.35600  0.39400  0.71300  1.0000
  Au  Au8       1.0  0.85600  0.81900  0.71300  1.0000
  Au  Au9       1.0  0.18400  0.68400  0.86900  1.0000
  Au  Au10      1.0  0.68400  0.68400  0.86900  1.0000
  K   K1        1.0  0.08440  0.70500  0.16900  1.0000
  K   K2        1.0  0.58400  0.96400  0.16900  1.0000
  K   K3        1.0  0.75000  0.37500  0.50000  1.0000
  K   K4        1.0  0.25000  0.62500  0.50000  1.0000
  K   K5        1.0  0.41600  0.03590  0.83100  1.0000
  K   K6        1.0  0.91600  0.29500  0.83100  1.0000
  Pb  Pb1       1.0  0.25000  0.08340  0.50000  1.0000
  Pb  Pb2       1.0  0.75000  0.91700  0.50000  1.0000
