data_image0
_chemical_formula_structural       Cr2Ho2O12Te2
_chemical_formula_sum              "Cr2 Ho2 O12 Te2"
_cell_length_a       5.13297
_cell_length_b       5.13299
_cell_length_c       9.6028
_cell_angle_alpha    90.0007
_cell_angle_beta     89.9996
_cell_angle_gamma    120

_space_group_name_H-M_alt    "P 1"
_space_group_IT_number       1

loop_
  _space_group_symop_operation_xyz
  'x, y, z'

loop_
  _atom_site_type_symbol
  _atom_site_label
  _atom_site_symmetry_multiplicity
  _atom_site_fract_x
  _atom_site_fract_y
  _atom_site_fract_z
  _atom_site_occupancy
  Cr  Cr1       1.0  0.33300  0.66700  0.25000  1.0000
  Cr  Cr2       1.0  0.66700  0.33300  0.75000  1.0000
  Ho  Ho1       1.0  0.00000  0.00000  0.00000  1.0000
  Ho  Ho2       1.0  1.00000  1.00000  0.50000  1.0000
  O   O1        1.0  0.64500  0.63600  0.13800  1.0000
  O   O2        1.0  0.36400  0.00896  0.13800  1.0000
  O   O3        1.0  0.99100  0.35500  0.13800  1.0000
  O   O4        1.0  0.99100  0.63600  0.36200  1.0000
  O   O5        1.0  0.36400  0.35500  0.36200  1.0000
  O   O6        1.0  0.64500  0.00896  0.36200  1.0000
  O   O7        1.0  0.35500  0.99100  0.63800  1.0000
  O   O8        1.0  0.63600  0.64500  0.63800  1.0000
  O   O9        1.0  0.00896  0.36400  0.63800  1.0000
  O   O10       1.0  0.00896  0.64500  0.86200  1.0000
  O   O11       1.0  0.63600  0.99100  0.86200  1.0000
  O   O12       1.0  0.35500  0.36400  0.86200  1.0000
  Te  Te1       1.0  0.66700  0.33300  0.25000  1.0000
  Te  Te2       1.0  0.33300  0.66700  0.75000  1.0000
