data_image0
_chemical_formula_structural       I12K4Tc2
_chemical_formula_sum              "I12 K4 Tc2"
_cell_length_a       11.5363
_cell_length_b       8.10644
_cell_length_c       14.0598
_cell_angle_alpha    90
_cell_angle_beta     145.352
_cell_angle_gamma    90

_space_group_name_H-M_alt    "P 1"
_space_group_IT_number       1

loop_
  _space_group_symop_operation_xyz
  'x, y, z'

loop_
  _atom_site_type_symbol
  _atom_site_label
  _atom_site_symmetry_multiplicity
  _atom_site_fract_x
  _atom_site_fract_y
  _atom_site_fract_z
  _atom_site_occupancy
  I   I1        1.0  0.29000  0.99900  0.05400  1.0000
  I   I2        1.0  0.17100  0.72000  0.19400  1.0000
  I   I3        1.0  0.74800  0.69500  0.22000  1.0000
  I   I4        1.0  0.25200  0.19500  0.28000  1.0000
  I   I5        1.0  0.82900  0.22000  0.30600  1.0000
  I   I6        1.0  0.71000  0.49900  0.44600  1.0000
  I   I7        1.0  0.29000  0.50100  0.55400  1.0000
  I   I8        1.0  0.17100  0.78000  0.69400  1.0000
  I   I9        1.0  0.74800  0.80500  0.72000  1.0000
  I   I10       1.0  0.25200  0.30500  0.78000  1.0000
  I   I11       1.0  0.82900  0.28000  0.80600  1.0000
  I   I12       1.0  0.71000  0.00107  0.94600  1.0000
  K   K1        1.0  0.76500  0.45000  0.01540  1.0000
  K   K2        1.0  0.23500  0.95000  0.48500  1.0000
  K   K3        1.0  0.76500  0.05020  0.51500  1.0000
  K   K4        1.0  0.23500  0.55000  0.98500  1.0000
  Tc  Tc1       1.0  0.00000  0.00000  0.00000  1.0000
  Tc  Tc2       1.0  0.00000  0.50000  0.50000  1.0000
