data_image0
_chemical_formula_structural       F14Sr2Ta2
_chemical_formula_sum              "F14 Sr2 Ta2"
_cell_length_a       4.73674
_cell_length_b       7.04508
_cell_length_c       6.54448
_cell_angle_alpha    90
_cell_angle_beta     94.1887
_cell_angle_gamma    90

_space_group_name_H-M_alt    "P 1"
_space_group_IT_number       1

loop_
  _space_group_symop_operation_xyz
  'x, y, z'

loop_
  _atom_site_type_symbol
  _atom_site_label
  _atom_site_symmetry_multiplicity
  _atom_site_fract_x
  _atom_site_fract_y
  _atom_site_fract_z
  _atom_site_occupancy
  F   F1        1.0  0.86000  0.25000  0.04680  1.0000
  F   F2        1.0  0.63300  0.75000  0.06870  1.0000
  F   F3        1.0  0.31300  0.02410  0.20800  1.0000
  F   F4        1.0  0.31300  0.47600  0.20800  1.0000
  F   F5        1.0  0.81200  0.06930  0.36000  1.0000
  F   F6        1.0  0.81200  0.43100  0.36000  1.0000
  F   F7        1.0  0.41700  0.25000  0.49900  1.0000
  F   F8        1.0  0.58300  0.75000  0.50100  1.0000
  F   F9        1.0  0.18800  0.56900  0.64000  1.0000
  F   F10       1.0  0.18800  0.93100  0.64000  1.0000
  F   F11       1.0  0.68700  0.52400  0.79200  1.0000
  F   F12       1.0  0.68700  0.97600  0.79200  1.0000
  F   F13       1.0  0.36700  0.25000  0.93100  1.0000
  F   F14       1.0  0.14000  0.75000  0.95300  1.0000
  Sr  Sr1       1.0  0.03490  0.75000  0.31800  1.0000
  Sr  Sr2       1.0  0.96500  0.25000  0.68200  1.0000
  Ta  Ta1       1.0  0.53900  0.25000  0.21200  1.0000
  Ta  Ta2       1.0  0.46100  0.75000  0.78800  1.0000
