data_image0
_chemical_formula_structural       N4Na8O4W2
_chemical_formula_sum              "N4 Na8 O4 W2"
_cell_length_a       5.85053
_cell_length_b       5.87513
_cell_length_c       8.82579
_cell_angle_alpha    82.6999
_cell_angle_beta     71.673
_cell_angle_gamma    68.939

_space_group_name_H-M_alt    "P 1"
_space_group_IT_number       1

loop_
  _space_group_symop_operation_xyz
  'x, y, z'

loop_
  _atom_site_type_symbol
  _atom_site_label
  _atom_site_symmetry_multiplicity
  _atom_site_fract_x
  _atom_site_fract_y
  _atom_site_fract_z
  _atom_site_occupancy
  N   N1        1.0  0.84100  0.45900  0.35400  1.0000
  N   N2        1.0  0.29700  0.03370  0.36400  1.0000
  N   N3        1.0  0.70300  0.96600  0.63600  1.0000
  N   N4        1.0  0.15900  0.54100  0.64600  1.0000
  Na  Na1       1.0  0.75900  0.23900  0.01710  1.0000
  Na  Na2       1.0  0.61000  0.72400  0.18600  1.0000
  Na  Na3       1.0  0.05200  0.76100  0.40100  1.0000
  Na  Na4       1.0  0.52100  0.26100  0.44400  1.0000
  Na  Na5       1.0  0.47900  0.73900  0.55600  1.0000
  Na  Na6       1.0  0.94800  0.23900  0.59900  1.0000
  Na  Na7       1.0  0.39000  0.27600  0.81400  1.0000
  Na  Na8       1.0  0.24100  0.76100  0.98300  1.0000
  O   O1        1.0  0.15200  0.15300  0.05180  1.0000
  O   O2        1.0  0.36200  0.48400  0.18400  1.0000
  O   O3        1.0  0.63800  0.51600  0.81600  1.0000
  O   O4        1.0  0.84800  0.84700  0.94800  1.0000
  W   W1        1.0  0.16000  0.28000  0.23500  1.0000
  W   W2        1.0  0.84000  0.72000  0.76500  1.0000
