data_image0
_chemical_formula_structural       Ba2I4O12
_chemical_formula_sum              "Ba2 I4 O12"
_cell_length_a       7.35153
_cell_length_b       7.35153
_cell_length_c       7.65646
_cell_angle_alpha    98.8931
_cell_angle_beta     111.805
_cell_angle_gamma    116.881

_space_group_name_H-M_alt    "P 1"
_space_group_IT_number       1

loop_
  _space_group_symop_operation_xyz
  'x, y, z'

loop_
  _atom_site_type_symbol
  _atom_site_label
  _atom_site_symmetry_multiplicity
  _atom_site_fract_x
  _atom_site_fract_y
  _atom_site_fract_z
  _atom_site_occupancy
  Ba  Ba1       1.0  0.87100  0.62100  0.25000  1.0000
  Ba  Ba2       1.0  0.12900  0.37900  0.75000  1.0000
  I   I1        1.0  0.03370  0.20700  0.18300  1.0000
  I   I2        1.0  0.52400  0.85100  0.31700  1.0000
  I   I3        1.0  0.47600  0.14900  0.68300  1.0000
  I   I4        1.0  0.96600  0.79300  0.81700  1.0000
  O   O1        1.0  0.10800  0.72500  0.02560  1.0000
  O   O2        1.0  0.82000  0.90500  0.06110  1.0000
  O   O3        1.0  0.44100  0.58000  0.16400  1.0000
  O   O4        1.0  0.91600  0.27800  0.33600  1.0000
  O   O5        1.0  0.34400  0.75900  0.43900  1.0000
  O   O6        1.0  0.19900  0.08220  0.47400  1.0000
  O   O7        1.0  0.80100  0.91800  0.52600  1.0000
  O   O8        1.0  0.65600  0.24100  0.56100  1.0000
  O   O9        1.0  0.08370  0.72200  0.66400  1.0000
  O   O10       1.0  0.55900  0.42000  0.83600  1.0000
  O   O11       1.0  0.18000  0.09510  0.93900  1.0000
  O   O12       1.0  0.89200  0.27500  0.97400  1.0000
