data_image0
_chemical_formula_structural       F12Na4Nb2
_chemical_formula_sum              "F12 Na4 Nb2"
_cell_length_a       4.86551
_cell_length_b       4.86551
_cell_length_c       10.0399
_cell_angle_alpha    90
_cell_angle_beta     90
_cell_angle_gamma    90

_space_group_name_H-M_alt    "P 1"
_space_group_IT_number       1

loop_
  _space_group_symop_operation_xyz
  'x, y, z'

loop_
  _atom_site_type_symbol
  _atom_site_label
  _atom_site_symmetry_multiplicity
  _atom_site_fract_x
  _atom_site_fract_y
  _atom_site_fract_z
  _atom_site_occupancy
  F   F1        1.0  0.28500  0.28500  0.00000  1.0000
  F   F2        1.0  0.71500  0.71500  0.00000  1.0000
  F   F3        1.0  0.81000  0.19000  0.15300  1.0000
  F   F4        1.0  0.19000  0.81000  0.15300  1.0000
  F   F5        1.0  0.31000  0.31000  0.34700  1.0000
  F   F6        1.0  0.69000  0.69000  0.34700  1.0000
  F   F7        1.0  0.78500  0.21500  0.50000  1.0000
  F   F8        1.0  0.21500  0.78500  0.50000  1.0000
  F   F9        1.0  0.31000  0.31000  0.65300  1.0000
  F   F10       1.0  0.69000  0.69000  0.65300  1.0000
  F   F11       1.0  0.81000  0.19000  0.84700  1.0000
  F   F12       1.0  0.19000  0.81000  0.84700  1.0000
  Na  Na1       1.0  0.50000  0.50000  0.16800  1.0000
  Na  Na2       1.0  0.00000  0.00000  0.33200  1.0000
  Na  Na3       1.0  0.00000  0.00000  0.66800  1.0000
  Na  Na4       1.0  0.50000  0.50000  0.83200  1.0000
  Nb  Nb1       1.0  0.00000  0.00000  0.00000  1.0000
  Nb  Nb2       1.0  0.50000  0.50000  0.50000  1.0000
