data_image0
_chemical_formula_structural       As4O12S2
_chemical_formula_sum              "As4 O12 S2"
_cell_length_a       4.65031
_cell_length_b       11.3043
_cell_length_c       4.61242
_cell_angle_alpha    90
_cell_angle_beta     90
_cell_angle_gamma    90

_space_group_name_H-M_alt    "P 1"
_space_group_IT_number       1

loop_
  _space_group_symop_operation_xyz
  'x, y, z'

loop_
  _atom_site_type_symbol
  _atom_site_label
  _atom_site_symmetry_multiplicity
  _atom_site_fract_x
  _atom_site_fract_y
  _atom_site_fract_z
  _atom_site_occupancy
  As  As1       1.0  0.28100  0.19300  0.19600  1.0000
  As  As2       1.0  0.71900  0.80700  0.19600  1.0000
  As  As3       1.0  0.78100  0.30700  0.80400  1.0000
  As  As4       1.0  0.21900  0.69300  0.80400  1.0000
  O   O1        1.0  0.74000  0.45900  0.00298  1.0000
  O   O2        1.0  0.26000  0.54100  0.00298  1.0000
  O   O3        1.0  0.91900  0.24200  0.13800  1.0000
  O   O4        1.0  0.08100  0.75800  0.13800  1.0000
  O   O5        1.0  0.38900  0.40300  0.37900  1.0000
  O   O6        1.0  0.61100  0.59700  0.37900  1.0000
  O   O7        1.0  0.88900  0.09750  0.62100  1.0000
  O   O8        1.0  0.11100  0.90300  0.62100  1.0000
  O   O9        1.0  0.41900  0.25800  0.86200  1.0000
  O   O10       1.0  0.58100  0.74200  0.86200  1.0000
  O   O11       1.0  0.24000  0.04060  0.99700  1.0000
  O   O12       1.0  0.76000  0.95900  0.99700  1.0000
  S   S1        1.0  0.50000  0.50000  0.20400  1.0000
  S   S2        1.0  0.00000  0.00000  0.79600  1.0000
