data_image0
_chemical_formula_structural       C2Ge6Mo10
_chemical_formula_sum              "C2 Ge6 Mo10"
_cell_length_a       7.46349
_cell_length_b       7.46349
_cell_length_c       5.33642
_cell_angle_alpha    90
_cell_angle_beta     90
_cell_angle_gamma    119.999

_space_group_name_H-M_alt    "P 1"
_space_group_IT_number       1

loop_
  _space_group_symop_operation_xyz
  'x, y, z'

loop_
  _atom_site_type_symbol
  _atom_site_label
  _atom_site_symmetry_multiplicity
  _atom_site_fract_x
  _atom_site_fract_y
  _atom_site_fract_z
  _atom_site_occupancy
  C   C1        1.0  0.00000  0.00000  0.00000  1.0000
  C   C2        1.0  0.00000  0.00000  0.50000  1.0000
  Ge  Ge1       1.0  0.59700  0.00000  0.25000  1.0000
  Ge  Ge2       1.0  0.00000  0.59700  0.25000  1.0000
  Ge  Ge3       1.0  0.40300  0.40300  0.25000  1.0000
  Ge  Ge4       1.0  0.00000  0.40300  0.75000  1.0000
  Ge  Ge5       1.0  0.40300  0.00000  0.75000  1.0000
  Ge  Ge6       1.0  0.59700  0.59700  0.75000  1.0000
  Mo  Mo1       1.0  0.66700  0.33300  0.00000  1.0000
  Mo  Mo2       1.0  0.33300  0.66700  0.00000  1.0000
  Mo  Mo3       1.0  0.77400  0.77400  0.25000  1.0000
  Mo  Mo4       1.0  1.00000  0.22600  0.25000  1.0000
  Mo  Mo5       1.0  0.22600  0.00000  0.25000  1.0000
  Mo  Mo6       1.0  0.66700  0.33300  0.50000  1.0000
  Mo  Mo7       1.0  0.33300  0.66700  0.50000  1.0000
  Mo  Mo8       1.0  0.22600  0.22600  0.75000  1.0000
  Mo  Mo9       1.0  0.77400  0.00000  0.75000  1.0000
  Mo  Mo10      1.0  0.00000  0.77400  0.75000  1.0000
