data_image0
_chemical_formula_structural       Au4K4S8Sn2
_chemical_formula_sum              "Au4 K4 S8 Sn2"
_cell_length_a       8.40894
_cell_length_b       9.34216
_cell_length_c       7.41595
_cell_angle_alpha    97.7535
_cell_angle_beta     112.029
_cell_angle_gamma    71.6101

_space_group_name_H-M_alt    "P 1"
_space_group_IT_number       1

loop_
  _space_group_symop_operation_xyz
  'x, y, z'

loop_
  _atom_site_type_symbol
  _atom_site_label
  _atom_site_symmetry_multiplicity
  _atom_site_fract_x
  _atom_site_fract_y
  _atom_site_fract_z
  _atom_site_occupancy
  Au  Au1       1.0  0.33100  0.42400  0.26000  1.0000
  Au  Au2       1.0  0.71400  0.83100  0.46700  1.0000
  Au  Au3       1.0  0.28600  0.16900  0.53300  1.0000
  Au  Au4       1.0  0.66900  0.57600  0.74000  1.0000
  K   K1        1.0  0.74600  0.92400  0.02610  1.0000
  K   K2        1.0  0.81200  0.42200  0.21900  1.0000
  K   K3        1.0  0.18800  0.57800  0.78100  1.0000
  K   K4        1.0  0.25400  0.07600  0.97400  1.0000
  S   S1        1.0  0.50000  0.74500  0.21500  1.0000
  S   S2        1.0  0.08910  0.63600  0.23800  1.0000
  S   S3        1.0  0.58100  0.22200  0.27200  1.0000
  S   S4        1.0  0.08260  0.06130  0.29300  1.0000
  S   S5        1.0  0.91700  0.93900  0.70700  1.0000
  S   S6        1.0  0.41900  0.77800  0.72800  1.0000
  S   S7        1.0  0.91100  0.36400  0.76200  1.0000
  S   S8        1.0  0.50000  0.25500  0.78500  1.0000
  Sn  Sn1       1.0  0.28000  0.80500  0.37800  1.0000
  Sn  Sn2       1.0  0.72000  0.19500  0.62200  1.0000
