data_image0
_chemical_formula_structural       Bi5Cu4S10
_chemical_formula_sum              "Bi5 Cu4 S10"
_cell_length_a       3.89516
_cell_length_b       9.00707
_cell_length_c       12.875
_cell_angle_alpha    107.17
_cell_angle_beta     90
_cell_angle_gamma    102.488

_space_group_name_H-M_alt    "P 1"
_space_group_IT_number       1

loop_
  _space_group_symop_operation_xyz
  'x, y, z'

loop_
  _atom_site_type_symbol
  _atom_site_label
  _atom_site_symmetry_multiplicity
  _atom_site_fract_x
  _atom_site_fract_y
  _atom_site_fract_z
  _atom_site_occupancy
  Bi  Bi1       1.0  0.00000  0.00000  0.00000  1.0000
  Bi  Bi2       1.0  0.41200  0.82300  0.22500  1.0000
  Bi  Bi3       1.0  0.19800  0.39600  0.33600  1.0000
  Bi  Bi4       1.0  0.80200  0.60400  0.66400  1.0000
  Bi  Bi5       1.0  0.58800  0.17700  0.77500  1.0000
  Cu  Cu1       1.0  0.71400  0.42800  0.05330  1.0000
  Cu  Cu2       1.0  0.90300  0.80600  0.48700  1.0000
  Cu  Cu3       1.0  0.09690  0.19400  0.51300  1.0000
  Cu  Cu4       1.0  0.28600  0.57200  0.94700  1.0000
  S   S1        1.0  0.84700  0.69400  0.02880  1.0000
  S   S2        1.0  0.54300  0.08610  0.16700  1.0000
  S   S3        1.0  0.75900  0.51900  0.23900  1.0000
  S   S4        1.0  0.97800  0.95500  0.36700  1.0000
  S   S5        1.0  0.33500  0.67100  0.49700  1.0000
  S   S6        1.0  0.66500  0.32900  0.50300  1.0000
  S   S7        1.0  0.02230  0.04470  0.63300  1.0000
  S   S8        1.0  0.24100  0.48100  0.76100  1.0000
  S   S9        1.0  0.45700  0.91400  0.83300  1.0000
  S   S10       1.0  0.15300  0.30600  0.97100  1.0000
