data_image0
_chemical_formula_structural       Cs4Se9Sn3Sr
_chemical_formula_sum              "Cs4 Se9 Sn3 Sr1"
_cell_length_a       8.87755
_cell_length_b       8.90943
_cell_length_c       8.87595
_cell_angle_alpha    103.629
_cell_angle_beta     103.695
_cell_angle_gamma    102.961

_space_group_name_H-M_alt    "P 1"
_space_group_IT_number       1

loop_
  _space_group_symop_operation_xyz
  'x, y, z'

loop_
  _atom_site_type_symbol
  _atom_site_label
  _atom_site_symmetry_multiplicity
  _atom_site_fract_x
  _atom_site_fract_y
  _atom_site_fract_z
  _atom_site_occupancy
  Cs  Cs1       1.0  0.85400  0.67000  0.19600  1.0000
  Cs  Cs2       1.0  0.19300  0.84100  0.66400  1.0000
  Cs  Cs3       1.0  0.81700  0.81800  0.81400  1.0000
  Cs  Cs4       1.0  0.66300  0.19700  0.85700  1.0000
  Se  Se1       1.0  0.47700  0.91100  0.06180  1.0000
  Se  Se2       1.0  0.28100  0.10700  0.07580  1.0000
  Se  Se3       1.0  0.07750  0.28800  0.10200  1.0000
  Se  Se4       1.0  0.11400  0.07770  0.27600  1.0000
  Se  Se5       1.0  0.79100  0.48500  0.48200  1.0000
  Se  Se6       1.0  0.90700  0.05470  0.48400  1.0000
  Se  Se7       1.0  0.48400  0.78900  0.48600  1.0000
  Se  Se8       1.0  0.48900  0.49100  0.79300  1.0000
  Se  Se9       1.0  0.05730  0.48100  0.90900  1.0000
  Sn  Sn1       1.0  0.38700  0.57900  0.04650  1.0000
  Sn  Sn2       1.0  0.57800  0.04490  0.39300  1.0000
  Sn  Sn3       1.0  0.04260  0.37900  0.57100  1.0000
  Sr  Sr1       1.0  0.41700  0.41600  0.41700  1.0000
