data_image0
_chemical_formula_structural       Br2In6La10
_chemical_formula_sum              "Br2 In6 La10"
_cell_length_a       9.79763
_cell_length_b       9.79763
_cell_length_c       6.87781
_cell_angle_alpha    90
_cell_angle_beta     90
_cell_angle_gamma    120

_space_group_name_H-M_alt    "P 1"
_space_group_IT_number       1

loop_
  _space_group_symop_operation_xyz
  'x, y, z'

loop_
  _atom_site_type_symbol
  _atom_site_label
  _atom_site_symmetry_multiplicity
  _atom_site_fract_x
  _atom_site_fract_y
  _atom_site_fract_z
  _atom_site_occupancy
  Br  Br1       1.0  0.00000  0.00000  0.00000  1.0000
  Br  Br2       1.0  0.00000  0.00000  0.50000  1.0000
  In  In1       1.0  0.61000  0.00000  0.25000  1.0000
  In  In2       1.0  0.00000  0.61000  0.25000  1.0000
  In  In3       1.0  0.39000  0.39000  0.25000  1.0000
  In  In4       1.0  0.39000  0.00000  0.75000  1.0000
  In  In5       1.0  0.00000  0.39000  0.75000  1.0000
  In  In6       1.0  0.61000  0.61000  0.75000  1.0000
  La  La1       1.0  0.66700  0.33300  0.00000  1.0000
  La  La2       1.0  0.33300  0.66700  0.00000  1.0000
  La  La3       1.0  0.73400  0.73400  0.25000  1.0000
  La  La4       1.0  0.26600  0.00000  0.25000  1.0000
  La  La5       1.0  0.00000  0.26600  0.25000  1.0000
  La  La6       1.0  0.66700  0.33300  0.50000  1.0000
  La  La7       1.0  0.33300  0.66700  0.50000  1.0000
  La  La8       1.0  0.26600  0.26600  0.75000  1.0000
  La  La9       1.0  0.73400  0.00000  0.75000  1.0000
  La  La10      1.0  0.00000  0.73400  0.75000  1.0000
