data_image0
_chemical_formula_structural       B6CaNi12
_chemical_formula_sum              "B6 Ca1 Ni12"
_cell_length_a       6.03662
_cell_length_b       6.03662
_cell_length_c       6.03662
_cell_angle_alpha    104.456
_cell_angle_beta     104.456
_cell_angle_gamma    104.456

_space_group_name_H-M_alt    "P 1"
_space_group_IT_number       1

loop_
  _space_group_symop_operation_xyz
  'x, y, z'

loop_
  _atom_site_type_symbol
  _atom_site_label
  _atom_site_symmetry_multiplicity
  _atom_site_fract_x
  _atom_site_fract_y
  _atom_site_fract_z
  _atom_site_occupancy
  B   B1        1.0  0.23600  0.66700  0.23600  1.0000
  B   B2        1.0  0.66700  0.23600  0.23600  1.0000
  B   B3        1.0  0.76400  0.76400  0.33300  1.0000
  B   B4        1.0  0.23600  0.23600  0.66700  1.0000
  B   B5        1.0  0.33300  0.76400  0.76400  1.0000
  B   B6        1.0  0.76400  0.33300  0.76400  1.0000
  Ca  Ca1       1.0  0.00000  0.00000  0.00000  1.0000
  Ni  Ni1       1.0  0.50000  0.86900  0.13100  1.0000
  Ni  Ni2       1.0  0.86900  0.50000  0.13100  1.0000
  Ni  Ni3       1.0  0.45500  0.45500  0.18700  1.0000
  Ni  Ni4       1.0  0.18700  0.45500  0.45500  1.0000
  Ni  Ni5       1.0  0.45500  0.18700  0.45500  1.0000
  Ni  Ni6       1.0  0.13100  0.86900  0.50000  1.0000
  Ni  Ni7       1.0  0.86900  0.13100  0.50000  1.0000
  Ni  Ni8       1.0  0.54500  0.81300  0.54500  1.0000
  Ni  Ni9       1.0  0.81300  0.54500  0.54500  1.0000
  Ni  Ni10      1.0  0.54500  0.54500  0.81300  1.0000
  Ni  Ni11      1.0  0.13100  0.50000  0.86900  1.0000
  Ni  Ni12      1.0  0.50000  0.13100  0.86900  1.0000
