data_image0
_chemical_formula_structural       O12TeTl6
_chemical_formula_sum              "O12 Te1 Tl6"
_cell_length_a       6.44536
_cell_length_b       6.44536
_cell_length_c       6.44536
_cell_angle_alpha    97.9916
_cell_angle_beta     97.9916
_cell_angle_gamma    97.9916

_space_group_name_H-M_alt    "P 1"
_space_group_IT_number       1

loop_
  _space_group_symop_operation_xyz
  'x, y, z'

loop_
  _atom_site_type_symbol
  _atom_site_label
  _atom_site_symmetry_multiplicity
  _atom_site_fract_x
  _atom_site_fract_y
  _atom_site_fract_z
  _atom_site_occupancy
  O   O1        1.0  0.70200  0.93000  0.03120  1.0000
  O   O2        1.0  0.96900  0.29800  0.06960  1.0000
  O   O3        1.0  0.42500  0.59900  0.17500  1.0000
  O   O4        1.0  0.06960  0.96900  0.29800  1.0000
  O   O5        1.0  0.82500  0.57500  0.40100  1.0000
  O   O6        1.0  0.59900  0.17500  0.42500  1.0000
  O   O7        1.0  0.40100  0.82500  0.57500  1.0000
  O   O8        1.0  0.17500  0.42500  0.59900  1.0000
  O   O9        1.0  0.93000  0.03120  0.70200  1.0000
  O   O10       1.0  0.57500  0.40100  0.82500  1.0000
  O   O11       1.0  0.03120  0.70200  0.93000  1.0000
  O   O12       1.0  0.29800  0.06960  0.96900  1.0000
  Te  Te1       1.0  0.00000  0.00000  0.00000  1.0000
  Tl  Tl1       1.0  0.60800  0.30500  0.13600  1.0000
  Tl  Tl2       1.0  0.13600  0.60800  0.30500  1.0000
  Tl  Tl3       1.0  0.69500  0.86400  0.39200  1.0000
  Tl  Tl4       1.0  0.30500  0.13600  0.60800  1.0000
  Tl  Tl5       1.0  0.86400  0.39200  0.69500  1.0000
  Tl  Tl6       1.0  0.39200  0.69500  0.86400  1.0000
