data_image0
_chemical_formula_structural       Ga2I14Te2
_chemical_formula_sum              "Ga2 I14 Te2"
_cell_length_a       7.64001
_cell_length_b       7.39676
_cell_length_c       16.777
_cell_angle_alpha    90
_cell_angle_beta     104.389
_cell_angle_gamma    90

_space_group_name_H-M_alt    "P 1"
_space_group_IT_number       1

loop_
  _space_group_symop_operation_xyz
  'x, y, z'

loop_
  _atom_site_type_symbol
  _atom_site_label
  _atom_site_symmetry_multiplicity
  _atom_site_fract_x
  _atom_site_fract_y
  _atom_site_fract_z
  _atom_site_occupancy
  Ga  Ga1       1.0  0.28800  0.49800  0.30700  1.0000
  Ga  Ga2       1.0  0.28800  0.50200  0.80700  1.0000
  I   I1        1.0  0.11500  0.88700  0.03950  1.0000
  I   I2        1.0  0.78400  0.33500  0.04230  1.0000
  I   I3        1.0  0.35700  0.37400  0.17300  1.0000
  I   I4        1.0  0.72400  0.88800  0.18300  1.0000
  I   I5        1.0  0.96800  0.37500  0.30800  1.0000
  I   I6        1.0  0.31500  0.84300  0.31700  1.0000
  I   I7        1.0  0.51300  0.35100  0.43300  1.0000
  I   I8        1.0  0.11500  0.11300  0.53900  1.0000
  I   I9        1.0  0.78400  0.66500  0.54200  1.0000
  I   I10       1.0  0.35700  0.62600  0.67300  1.0000
  I   I11       1.0  0.72400  0.11200  0.68300  1.0000
  I   I12       1.0  0.96800  0.62500  0.80800  1.0000
  I   I13       1.0  0.31500  0.15700  0.81700  1.0000
  I   I14       1.0  0.51300  0.64900  0.93300  1.0000
  Te  Te1       1.0  0.00334  0.09730  0.15400  1.0000
  Te  Te2       1.0  0.00334  0.90300  0.65400  1.0000
