data_image0
_chemical_formula_structural       O2V16
_chemical_formula_sum              "O2 V16"
_cell_length_a       9.4735
_cell_length_b       9.4735
_cell_length_c       3.10197
_cell_angle_alpha    90
_cell_angle_beta     90
_cell_angle_gamma    90

_space_group_name_H-M_alt    "P 1"
_space_group_IT_number       1

loop_
  _space_group_symop_operation_xyz
  'x, y, z'

loop_
  _atom_site_type_symbol
  _atom_site_label
  _atom_site_symmetry_multiplicity
  _atom_site_fract_x
  _atom_site_fract_y
  _atom_site_fract_z
  _atom_site_occupancy
  O   O1        1.0  0.00000  0.00000  0.00000  1.0000
  O   O2        1.0  0.50000  0.50000  0.50000  1.0000
  V   V1        1.0  0.62100  0.10500  0.00000  1.0000
  V   V2        1.0  0.15800  0.15800  0.00000  1.0000
  V   V3        1.0  0.89500  0.37900  0.00000  1.0000
  V   V4        1.0  0.38200  0.38200  0.00000  1.0000
  V   V5        1.0  0.61800  0.61800  0.00000  1.0000
  V   V6        1.0  0.10500  0.62100  0.00000  1.0000
  V   V7        1.0  0.84200  0.84200  0.00000  1.0000
  V   V8        1.0  0.37900  0.89500  0.00000  1.0000
  V   V9        1.0  0.88200  0.11800  0.50000  1.0000
  V   V10       1.0  0.39500  0.12100  0.50000  1.0000
  V   V11       1.0  0.65800  0.34200  0.50000  1.0000
  V   V12       1.0  0.12100  0.39500  0.50000  1.0000
  V   V13       1.0  0.87900  0.60500  0.50000  1.0000
  V   V14       1.0  0.34200  0.65800  0.50000  1.0000
  V   V15       1.0  0.60500  0.87900  0.50000  1.0000
  V   V16       1.0  0.11800  0.88200  0.50000  1.0000
