data_image0
_chemical_formula_structural       Ho6O12W
_chemical_formula_sum              "Ho6 O12 W1"
_cell_length_a       6.39636
_cell_length_b       6.39636
_cell_length_c       6.39636
_cell_angle_alpha    98.6832
_cell_angle_beta     98.6832
_cell_angle_gamma    98.6832

_space_group_name_H-M_alt    "P 1"
_space_group_IT_number       1

loop_
  _space_group_symop_operation_xyz
  'x, y, z'

loop_
  _atom_site_type_symbol
  _atom_site_label
  _atom_site_symmetry_multiplicity
  _atom_site_fract_x
  _atom_site_fract_y
  _atom_site_fract_z
  _atom_site_occupancy
  Ho  Ho1       1.0  0.61200  0.31500  0.14400  1.0000
  Ho  Ho2       1.0  0.14400  0.61200  0.31500  1.0000
  Ho  Ho3       1.0  0.68500  0.85600  0.38800  1.0000
  Ho  Ho4       1.0  0.31500  0.14400  0.61200  1.0000
  Ho  Ho5       1.0  0.85600  0.38800  0.68500  1.0000
  Ho  Ho6       1.0  0.38800  0.68500  0.85600  1.0000
  O   O1        1.0  0.70100  0.92400  0.03320  1.0000
  O   O2        1.0  0.96700  0.29900  0.07580  1.0000
  O   O3        1.0  0.43200  0.58900  0.17700  1.0000
  O   O4        1.0  0.07580  0.96700  0.29900  1.0000
  O   O5        1.0  0.82300  0.56800  0.41100  1.0000
  O   O6        1.0  0.58900  0.17700  0.43200  1.0000
  O   O7        1.0  0.41100  0.82300  0.56800  1.0000
  O   O8        1.0  0.17700  0.43200  0.58900  1.0000
  O   O9        1.0  0.92400  0.03320  0.70100  1.0000
  O   O10       1.0  0.56800  0.41100  0.82300  1.0000
  O   O11       1.0  0.03320  0.70100  0.92400  1.0000
  O   O12       1.0  0.29900  0.07580  0.96700  1.0000
  W   W1        1.0  0.00000  0.00000  0.00000  1.0000
