data_image0
_chemical_formula_structural       Ba4Cu2HgO10Tl2
_chemical_formula_sum              "Ba4 Cu2 Hg1 O10 Tl2"
_cell_length_a       3.86139
_cell_length_b       3.86139
_cell_length_c       21.603
_cell_angle_alpha    95.1275
_cell_angle_beta     95.1275
_cell_angle_gamma    90

_space_group_name_H-M_alt    "P 1"
_space_group_IT_number       1

loop_
  _space_group_symop_operation_xyz
  'x, y, z'

loop_
  _atom_site_type_symbol
  _atom_site_label
  _atom_site_symmetry_multiplicity
  _atom_site_fract_x
  _atom_site_fract_y
  _atom_site_fract_z
  _atom_site_occupancy
  Ba  Ba1       1.0  0.56800  0.56800  0.13700  1.0000
  Ba  Ba2       1.0  0.65800  0.65800  0.31600  1.0000
  Ba  Ba3       1.0  0.34200  0.34200  0.68400  1.0000
  Ba  Ba4       1.0  0.43200  0.43200  0.86300  1.0000
  Cu  Cu1       1.0  0.11400  0.11400  0.22700  1.0000
  Cu  Cu2       1.0  0.88600  0.88600  0.77300  1.0000
  Hg  Hg1       1.0  0.00000  0.00000  0.00000  1.0000
  O   O1        1.0  0.04670  0.04670  0.09340  1.0000
  O   O2        1.0  0.61300  0.11300  0.22600  1.0000
  O   O3        1.0  0.11300  0.61300  0.22600  1.0000
  O   O4        1.0  0.17700  0.17700  0.35300  1.0000
  O   O5        1.0  0.72800  0.72800  0.45600  1.0000
  O   O6        1.0  0.27200  0.27200  0.54400  1.0000
  O   O7        1.0  0.82300  0.82300  0.64700  1.0000
  O   O8        1.0  0.88700  0.38700  0.77400  1.0000
  O   O9        1.0  0.38700  0.88700  0.77400  1.0000
  O   O10       1.0  0.95300  0.95300  0.90700  1.0000
  Tl  Tl1       1.0  0.22400  0.22400  0.44700  1.0000
  Tl  Tl2       1.0  0.77600  0.77600  0.55300  1.0000
