data_image0
_chemical_formula_structural       Sb6Si2Zr10
_chemical_formula_sum              "Sb6 Si2 Zr10"
_cell_length_a       8.66139
_cell_length_b       8.66139
_cell_length_c       5.85724
_cell_angle_alpha    89.9994
_cell_angle_beta     89.9994
_cell_angle_gamma    120.01

_space_group_name_H-M_alt    "P 1"
_space_group_IT_number       1

loop_
  _space_group_symop_operation_xyz
  'x, y, z'

loop_
  _atom_site_type_symbol
  _atom_site_label
  _atom_site_symmetry_multiplicity
  _atom_site_fract_x
  _atom_site_fract_y
  _atom_site_fract_z
  _atom_site_occupancy
  Sb  Sb1       1.0  0.60500  0.00014  0.25000  1.0000
  Sb  Sb2       1.0  0.00014  0.60500  0.25000  1.0000
  Sb  Sb3       1.0  0.39500  0.39500  0.25000  1.0000
  Sb  Sb4       1.0  0.60500  0.60500  0.75000  1.0000
  Sb  Sb5       1.0  0.00000  0.39500  0.75000  1.0000
  Sb  Sb6       1.0  0.39500  0.00000  0.75000  1.0000
  Si  Si1       1.0  0.00000  0.00000  1.00000  1.0000
  Si  Si2       1.0  0.00000  0.00000  0.50000  1.0000
  Zr  Zr1       1.0  0.33300  0.66700  0.00000  1.0000
  Zr  Zr2       1.0  0.66700  0.33300  0.00000  1.0000
  Zr  Zr3       1.0  0.00001  0.26000  0.25000  1.0000
  Zr  Zr4       1.0  0.26000  0.00001  0.25000  1.0000
  Zr  Zr5       1.0  0.74000  0.74000  0.25000  1.0000
  Zr  Zr6       1.0  0.33300  0.66700  0.50000  1.0000
  Zr  Zr7       1.0  0.66700  0.33300  0.50000  1.0000
  Zr  Zr8       1.0  0.74000  0.00000  0.75000  1.0000
  Zr  Zr9       1.0  0.00000  0.74000  0.75000  1.0000
  Zr  Zr10      1.0  0.26000  0.26000  0.75000  1.0000
