data_image0
_chemical_formula_structural       Cs2Cu3F12Zr
_chemical_formula_sum              "Cs2 Cu3 F12 Zr1"
_cell_length_a       6.97652
_cell_length_b       6.97652
_cell_length_c       7.73388
_cell_angle_alpha    116.81
_cell_angle_beta     116.81
_cell_angle_gamma    60

_space_group_name_H-M_alt    "P 1"
_space_group_IT_number       1

loop_
  _space_group_symop_operation_xyz
  'x, y, z'

loop_
  _atom_site_type_symbol
  _atom_site_label
  _atom_site_symmetry_multiplicity
  _atom_site_fract_x
  _atom_site_fract_y
  _atom_site_fract_z
  _atom_site_occupancy
  Cs  Cs1       1.0  0.11200  0.11200  0.33700  1.0000
  Cs  Cs2       1.0  0.88800  0.88800  0.66300  1.0000
  Cu  Cu1       1.0  0.00000  0.50000  0.00000  1.0000
  Cu  Cu2       1.0  0.50000  0.50000  0.00000  1.0000
  Cu  Cu3       1.0  0.50000  0.00000  0.00000  1.0000
  F   F1        1.0  0.82400  0.41700  0.06420  1.0000
  F   F2        1.0  0.82400  0.82400  0.06420  1.0000
  F   F3        1.0  0.41700  0.82400  0.06420  1.0000
  F   F4        1.0  0.58700  0.16200  0.33700  1.0000
  F   F5        1.0  0.58700  0.58700  0.33700  1.0000
  F   F6        1.0  0.16200  0.58700  0.33700  1.0000
  F   F7        1.0  0.41300  0.41300  0.66300  1.0000
  F   F8        1.0  0.83800  0.41300  0.66300  1.0000
  F   F9        1.0  0.41300  0.83800  0.66300  1.0000
  F   F10       1.0  0.17600  0.17600  0.93600  1.0000
  F   F11       1.0  0.58300  0.17600  0.93600  1.0000
  F   F12       1.0  0.17600  0.58300  0.93600  1.0000
  Zr  Zr1       1.0  0.50000  0.50000  0.50000  1.0000
