data_image0
_chemical_formula_structural       Cd2Rb5Tl11
_chemical_formula_sum              "Cd2 Rb5 Tl11"
_cell_length_a       5.72085
_cell_length_b       11.1979
_cell_length_c       11.1979
_cell_angle_alpha    72.6474
_cell_angle_beta     90
_cell_angle_gamma    90

_space_group_name_H-M_alt    "P 1"
_space_group_IT_number       1

loop_
  _space_group_symop_operation_xyz
  'x, y, z'

loop_
  _atom_site_type_symbol
  _atom_site_label
  _atom_site_symmetry_multiplicity
  _atom_site_fract_x
  _atom_site_fract_y
  _atom_site_fract_z
  _atom_site_occupancy
  Cd  Cd1       1.0  0.25000  0.93900  0.06070  1.0000
  Cd  Cd2       1.0  0.75000  0.93900  0.06070  1.0000
  Rb  Rb1       1.0  0.00000  0.39400  0.22200  1.0000
  Rb  Rb2       1.0  0.50000  0.11500  0.50900  1.0000
  Rb  Rb3       1.0  0.00000  0.77800  0.60600  1.0000
  Rb  Rb4       1.0  0.00000  0.37400  0.62600  1.0000
  Rb  Rb5       1.0  0.50000  0.49100  0.88500  1.0000
  Tl  Tl1       1.0  0.50000  0.65200  0.14000  1.0000
  Tl  Tl2       1.0  0.50000  0.17000  0.14900  1.0000
  Tl  Tl3       1.0  0.00000  0.71100  0.28900  1.0000
  Tl  Tl4       1.0  0.00000  0.03070  0.29300  1.0000
  Tl  Tl5       1.0  0.50000  0.86000  0.34800  1.0000
  Tl  Tl6       1.0  0.50000  0.56000  0.44000  1.0000
  Tl  Tl7       1.0  0.00000  0.02190  0.78100  1.0000
  Tl  Tl8       1.0  0.50000  0.17200  0.82800  1.0000
  Tl  Tl9       1.0  0.50000  0.85100  0.83000  1.0000
  Tl  Tl10      1.0  0.00000  0.70700  0.96900  1.0000
  Tl  Tl11      1.0  0.00000  0.21900  0.97800  1.0000
