data_image0
_chemical_formula_structural       Br14Fe2Te2
_chemical_formula_sum              "Br14 Fe2 Te2"
_cell_length_a       6.99032
_cell_length_b       9.05227
_cell_length_c       10.8004
_cell_angle_alpha    85.3042
_cell_angle_beta     103.056
_cell_angle_gamma    96.7414

_space_group_name_H-M_alt    "P 1"
_space_group_IT_number       1

loop_
  _space_group_symop_operation_xyz
  'x, y, z'

loop_
  _atom_site_type_symbol
  _atom_site_label
  _atom_site_symmetry_multiplicity
  _atom_site_fract_x
  _atom_site_fract_y
  _atom_site_fract_z
  _atom_site_occupancy
  Br  Br1       1.0  0.66300  0.37900  0.99900  1.0000
  Br  Br2       1.0  0.41600  0.95200  0.05480  1.0000
  Br  Br3       1.0  0.18600  0.53400  0.12800  1.0000
  Br  Br4       1.0  0.98500  0.07610  0.23700  1.0000
  Br  Br5       1.0  0.72000  0.64600  0.30300  1.0000
  Br  Br6       1.0  0.54800  0.24000  0.35100  1.0000
  Br  Br7       1.0  0.33300  0.82600  0.43400  1.0000
  Br  Br8       1.0  0.09370  0.39000  0.48900  1.0000
  Br  Br9       1.0  0.92600  0.95600  0.57200  1.0000
  Br  Br10      1.0  0.67700  0.50400  0.63600  1.0000
  Br  Br11      1.0  0.48700  0.08220  0.72400  1.0000
  Br  Br12      1.0  0.28800  0.66900  0.78700  1.0000
  Br  Br13      1.0  0.07660  0.25900  0.87300  1.0000
  Br  Br14      1.0  0.83100  0.81900  0.93000  1.0000
  Fe  Fe1       1.0  0.76000  0.44300  0.44600  1.0000
  Fe  Fe2       1.0  0.49700  0.87600  0.87700  1.0000
  Te  Te1       1.0  0.19600  0.06590  0.46000  1.0000
  Te  Te2       1.0  0.95600  0.50000  0.91400  1.0000
