data_image0
_chemical_formula_structural       As4CsF13
_chemical_formula_sum              "As4 Cs1 F13"
_cell_length_a       6.42076
_cell_length_b       7.03055
_cell_length_c       7.03055
_cell_angle_alpha    102.035
_cell_angle_beta     62.83
_cell_angle_gamma    117.17

_space_group_name_H-M_alt    "P 1"
_space_group_IT_number       1

loop_
  _space_group_symop_operation_xyz
  'x, y, z'

loop_
  _atom_site_type_symbol
  _atom_site_label
  _atom_site_symmetry_multiplicity
  _atom_site_fract_x
  _atom_site_fract_y
  _atom_site_fract_z
  _atom_site_occupancy
  As  As1       1.0  0.50000  0.31400  0.29400  1.0000
  As  As2       1.0  0.20500  0.70600  0.31400  1.0000
  As  As3       1.0  0.81300  0.29400  0.68600  1.0000
  As  As4       1.0  0.48100  0.68600  0.70600  1.0000
  Cs  Cs1       1.0  0.00000  0.00000  0.00000  1.0000
  F   F1        1.0  0.73600  0.24400  0.05780  1.0000
  F   F2        1.0  0.40500  0.36700  0.11600  1.0000
  F   F3        1.0  0.20600  0.94200  0.24400  1.0000
  F   F4        1.0  0.74500  0.58500  0.27600  1.0000
  F   F5        1.0  0.47900  0.88400  0.36700  1.0000
  F   F6        1.0  0.83900  0.27600  0.41500  1.0000
  F   F7        1.0  0.25000  0.50000  0.50000  1.0000
  F   F8        1.0  0.97900  0.72400  0.58500  1.0000
  F   F9        1.0  0.96100  0.11600  0.63300  1.0000
  F   F10       1.0  0.43700  0.41500  0.72400  1.0000
  F   F11       1.0  0.50800  0.05780  0.75600  1.0000
  F   F12       1.0  0.15400  0.63300  0.88400  1.0000
  F   F13       1.0  0.55000  0.75600  0.94200  1.0000
