data_image0
_chemical_formula_structural       S8Si2Tl8
_chemical_formula_sum              "S8 Si2 Tl8"
_cell_length_a       7.74363
_cell_length_b       8.62588
_cell_length_c       8.62588
_cell_angle_alpha    96.4072
_cell_angle_beta     107.227
_cell_angle_gamma    72.7731

_space_group_name_H-M_alt    "P 1"
_space_group_IT_number       1

loop_
  _space_group_symop_operation_xyz
  'x, y, z'

loop_
  _atom_site_type_symbol
  _atom_site_label
  _atom_site_symmetry_multiplicity
  _atom_site_fract_x
  _atom_site_fract_y
  _atom_site_fract_z
  _atom_site_occupancy
  S   S1        1.0  0.14500  0.39400  0.05190  1.0000
  S   S2        1.0  0.79800  0.22400  0.08690  1.0000
  S   S3        1.0  0.79900  0.61800  0.24300  1.0000
  S   S4        1.0  0.29900  0.75700  0.38200  1.0000
  S   S5        1.0  0.15300  0.28200  0.42800  1.0000
  S   S6        1.0  0.64500  0.94800  0.60600  1.0000
  S   S7        1.0  0.65300  0.57200  0.71800  1.0000
  S   S8        1.0  0.29800  0.91300  0.77600  1.0000
  Si  Si1       1.0  0.97100  0.38000  0.20000  1.0000
  Si  Si2       1.0  0.47100  0.80000  0.62000  1.0000
  Tl  Tl1       1.0  0.42300  0.00601  0.25800  1.0000
  Tl  Tl2       1.0  0.50100  0.41000  0.37200  1.0000
  Tl  Tl3       1.0  0.95500  0.02460  0.40900  1.0000
  Tl  Tl4       1.0  0.00087  0.62800  0.59000  1.0000
  Tl  Tl5       1.0  0.42400  0.20600  0.78500  1.0000
  Tl  Tl6       1.0  0.92400  0.21500  0.79400  1.0000
  Tl  Tl7       1.0  0.45500  0.59100  0.97500  1.0000
  Tl  Tl8       1.0  0.92300  0.74200  0.99400  1.0000
