data_image0
_chemical_formula_structural       Cs2F10K4Pd2
_chemical_formula_sum              "Cs2 F10 K4 Pd2"
_cell_length_a       7.1267
_cell_length_b       7.1267
_cell_length_c       6.14
_cell_angle_alpha    90
_cell_angle_beta     90
_cell_angle_gamma    90

_space_group_name_H-M_alt    "P 1"
_space_group_IT_number       1

loop_
  _space_group_symop_operation_xyz
  'x, y, z'

loop_
  _atom_site_type_symbol
  _atom_site_label
  _atom_site_symmetry_multiplicity
  _atom_site_fract_x
  _atom_site_fract_y
  _atom_site_fract_z
  _atom_site_occupancy
  Cs  Cs1       1.0  0.00000  0.00000  0.00000  1.0000
  Cs  Cs2       1.0  0.50000  0.50000  0.00000  1.0000
  F   F1        1.0  0.36400  0.13600  0.23000  1.0000
  F   F2        1.0  0.86400  0.36400  0.23000  1.0000
  F   F3        1.0  0.13600  0.63600  0.23000  1.0000
  F   F4        1.0  0.63600  0.86400  0.23000  1.0000
  F   F5        1.0  0.00000  0.00000  0.50000  1.0000
  F   F6        1.0  0.50000  0.50000  0.50000  1.0000
  F   F7        1.0  0.36400  0.13600  0.77000  1.0000
  F   F8        1.0  0.86400  0.36400  0.77000  1.0000
  F   F9        1.0  0.13600  0.63600  0.77000  1.0000
  F   F10       1.0  0.63600  0.86400  0.77000  1.0000
  K   K1        1.0  0.67200  0.17200  0.50000  1.0000
  K   K2        1.0  0.17200  0.32800  0.50000  1.0000
  K   K3        1.0  0.82800  0.67200  0.50000  1.0000
  K   K4        1.0  0.32800  0.82800  0.50000  1.0000
  Pd  Pd1       1.0  0.50000  0.00000  0.00000  1.0000
  Pd  Pd2       1.0  0.00000  0.50000  0.00000  1.0000
