data_image0
_chemical_formula_structural       F12Na4Sn2
_chemical_formula_sum              "F12 Na4 Sn2"
_cell_length_a       11.0006
_cell_length_b       4.90538
_cell_length_c       4.90373
_cell_angle_alpha    90
_cell_angle_beta     116.408
_cell_angle_gamma    90

_space_group_name_H-M_alt    "P 1"
_space_group_IT_number       1

loop_
  _space_group_symop_operation_xyz
  'x, y, z'

loop_
  _atom_site_type_symbol
  _atom_site_label
  _atom_site_symmetry_multiplicity
  _atom_site_fract_x
  _atom_site_fract_y
  _atom_site_fract_z
  _atom_site_occupancy
  F   F1        1.0  0.85000  0.81000  0.04090  1.0000
  F   F2        1.0  0.35000  0.69000  0.04090  1.0000
  F   F3        1.0  0.00000  0.28700  0.28400  1.0000
  F   F4        1.0  0.50000  0.21300  0.28400  1.0000
  F   F5        1.0  0.64900  0.69000  0.34300  1.0000
  F   F6        1.0  0.14900  0.81000  0.34300  1.0000
  F   F7        1.0  0.85100  0.19000  0.65700  1.0000
  F   F8        1.0  0.35100  0.31000  0.65700  1.0000
  F   F9        1.0  0.50000  0.78700  0.71600  1.0000
  F   F10       1.0  0.00050  0.71300  0.71600  1.0000
  F   F11       1.0  0.15000  0.19000  0.95900  1.0000
  F   F12       1.0  0.65100  0.31000  0.95900  1.0000
  Na  Na1       1.0  0.33400  0.99800  0.33500  1.0000
  Na  Na2       1.0  0.83400  0.50200  0.33500  1.0000
  Na  Na3       1.0  0.66600  0.00217  0.66500  1.0000
  Na  Na4       1.0  0.16600  0.49800  0.66500  1.0000
  Sn  Sn1       1.0  0.50000  0.50000  0.00000  1.0000
  Sn  Sn2       1.0  0.00000  0.00000  0.00000  1.0000
