data_image0
_chemical_formula_structural       Al2Ge12Sm4
_chemical_formula_sum              "Al2 Ge12 Sm4"
_cell_length_a       6.04008
_cell_length_b       6.04008
_cell_length_c       10.6425
_cell_angle_alpha    98.1395
_cell_angle_beta     98.1395
_cell_angle_gamma    92.2024

_space_group_name_H-M_alt    "P 1"
_space_group_IT_number       1

loop_
  _space_group_symop_operation_xyz
  'x, y, z'

loop_
  _atom_site_type_symbol
  _atom_site_label
  _atom_site_symmetry_multiplicity
  _atom_site_fract_x
  _atom_site_fract_y
  _atom_site_fract_z
  _atom_site_occupancy
  Al  Al1       1.0  0.80100  0.80100  0.19900  1.0000
  Al  Al2       1.0  0.19900  0.19900  0.80100  1.0000
  Ge  Ge1       1.0  0.06960  0.06960  0.11700  1.0000
  Ge  Ge2       1.0  0.49500  0.06670  0.11700  1.0000
  Ge  Ge3       1.0  0.06670  0.49500  0.11700  1.0000
  Ge  Ge4       1.0  0.49100  0.49100  0.11700  1.0000
  Ge  Ge5       1.0  0.36400  0.36400  0.41100  1.0000
  Ge  Ge6       1.0  0.85200  0.85200  0.44000  1.0000
  Ge  Ge7       1.0  0.14800  0.14800  0.56000  1.0000
  Ge  Ge8       1.0  0.63600  0.63600  0.58900  1.0000
  Ge  Ge9       1.0  0.50900  0.50900  0.88300  1.0000
  Ge  Ge10      1.0  0.93300  0.50500  0.88300  1.0000
  Ge  Ge11      1.0  0.50500  0.93300  0.88300  1.0000
  Ge  Ge12      1.0  0.93000  0.93000  0.88300  1.0000
  Sm  Sm1       1.0  0.84100  0.33500  0.33800  1.0000
  Sm  Sm2       1.0  0.33500  0.84100  0.33800  1.0000
  Sm  Sm3       1.0  0.66500  0.15900  0.66200  1.0000
  Sm  Sm4       1.0  0.15900  0.66500  0.66200  1.0000
