data_image0
_chemical_formula_structural       Eu4O12S2
_chemical_formula_sum              "Eu4 O12 S2"
_cell_length_a       3.99745
_cell_length_b       7.22706
_cell_length_c       7.9682
_cell_angle_alpha    107.651
_cell_angle_beta     90
_cell_angle_gamma    106.055

_space_group_name_H-M_alt    "P 1"
_space_group_IT_number       1

loop_
  _space_group_symop_operation_xyz
  'x, y, z'

loop_
  _atom_site_type_symbol
  _atom_site_label
  _atom_site_symmetry_multiplicity
  _atom_site_fract_x
  _atom_site_fract_y
  _atom_site_fract_z
  _atom_site_occupancy
  Eu  Eu1       1.0  0.52600  0.30400  0.08860  1.0000
  Eu  Eu2       1.0  0.22200  0.69600  0.41100  1.0000
  Eu  Eu3       1.0  0.77800  0.30400  0.58900  1.0000
  Eu  Eu4       1.0  0.47400  0.69600  0.91100  1.0000
  O   O1        1.0  0.10900  0.50300  0.07770  1.0000
  O   O2        1.0  0.23000  0.95800  0.09120  1.0000
  O   O3        1.0  0.74100  0.81500  0.23100  1.0000
  O   O4        1.0  0.92600  0.18500  0.26900  1.0000
  O   O5        1.0  0.27200  0.04180  0.40900  1.0000
  O   O6        1.0  0.60600  0.49700  0.42200  1.0000
  O   O7        1.0  0.39400  0.50300  0.57800  1.0000
  O   O8        1.0  0.72800  0.95800  0.59100  1.0000
  O   O9        1.0  0.07410  0.81500  0.73100  1.0000
  O   O10       1.0  0.25900  0.18500  0.76900  1.0000
  O   O11       1.0  0.77000  0.04180  0.90900  1.0000
  O   O12       1.0  0.89100  0.49700  0.92200  1.0000
  S   S1        1.0  0.03800  0.00000  0.25000  1.0000
  S   S2        1.0  0.96200  0.00000  0.75000  1.0000
