data_image0
_chemical_formula_structural       As2O13V4
_chemical_formula_sum              "As2 O13 V4"
_cell_length_a       4.93094
_cell_length_b       4.97363
_cell_length_c       8.83307
_cell_angle_alpha    90.1589
_cell_angle_beta     100.669
_cell_angle_gamma    80.7717

_space_group_name_H-M_alt    "P 1"
_space_group_IT_number       1

loop_
  _space_group_symop_operation_xyz
  'x, y, z'

loop_
  _atom_site_type_symbol
  _atom_site_label
  _atom_site_symmetry_multiplicity
  _atom_site_fract_x
  _atom_site_fract_y
  _atom_site_fract_z
  _atom_site_occupancy
  As  As1       1.0  0.99500  0.00115  0.99900  1.0000
  As  As2       1.0  0.75900  0.56400  0.58800  1.0000
  O   O1        1.0  0.71600  0.86100  0.02130  1.0000
  O   O2        1.0  0.46400  0.42700  0.09960  1.0000
  O   O3        1.0  0.22100  0.97200  0.17800  1.0000
  O   O4        1.0  0.06470  0.49800  0.27500  1.0000
  O   O5        1.0  0.75300  0.04940  0.31900  1.0000
  O   O6        1.0  0.52700  0.57400  0.41600  1.0000
  O   O7        1.0  0.30300  0.07640  0.47000  1.0000
  O   O8        1.0  0.04010  0.71900  0.56700  1.0000
  O   O9        1.0  0.87000  0.23200  0.64000  1.0000
  O   O10       1.0  0.59400  0.73600  0.72500  1.0000
  O   O11       1.0  0.39900  0.28500  0.78600  1.0000
  O   O12       1.0  0.18400  0.83300  0.86900  1.0000
  O   O13       1.0  0.92000  0.34000  0.95300  1.0000
  V   V1        1.0  0.42800  0.24700  0.29600  1.0000
  V   V2        1.0  0.10100  0.80700  0.35700  1.0000
  V   V3        1.0  0.25600  0.04160  0.68200  1.0000
  V   V4        1.0  0.54700  0.54500  0.93900  1.0000
