data_image0
_chemical_formula_structural       Al2Ca4Mn2O10
_chemical_formula_sum              "Al2 Ca4 Mn2 O10"
_cell_length_a       5.29775
_cell_length_b       5.5683
_cell_length_c       8.2083
_cell_angle_alpha    109.827
_cell_angle_beta     108.827
_cell_angle_gamma    90

_space_group_name_H-M_alt    "P 1"
_space_group_IT_number       1

loop_
  _space_group_symop_operation_xyz
  'x, y, z'

loop_
  _atom_site_type_symbol
  _atom_site_label
  _atom_site_symmetry_multiplicity
  _atom_site_fract_x
  _atom_site_fract_y
  _atom_site_fract_z
  _atom_site_occupancy
  Al  Al1       1.0  0.29300  0.32600  0.50000  1.0000
  Al  Al2       1.0  0.79300  0.67400  0.50000  1.0000
  Ca  Ca1       1.0  0.61800  0.08430  0.22100  1.0000
  Ca  Ca2       1.0  0.11800  0.63700  0.22100  1.0000
  Ca  Ca3       1.0  0.89700  0.36300  0.77900  1.0000
  Ca  Ca4       1.0  0.39700  0.91600  0.77900  1.0000
  Mn  Mn1       1.0  0.99600  0.00000  0.00000  1.0000
  Mn  Mn2       1.0  0.49600  0.50000  0.00000  1.0000
  O   O1        1.0  0.26600  0.26200  0.03210  1.0000
  O   O2        1.0  0.76600  0.27100  0.03210  1.0000
  O   O3        1.0  0.11600  0.07560  0.28900  1.0000
  O   O4        1.0  0.61600  0.71300  0.28900  1.0000
  O   O5        1.0  0.62700  0.39200  0.50000  1.0000
  O   O6        1.0  0.12700  0.60800  0.50000  1.0000
  O   O7        1.0  0.32800  0.28700  0.71100  1.0000
  O   O8        1.0  0.82800  0.92400  0.71100  1.0000
  O   O9        1.0  0.73400  0.72900  0.96800  1.0000
  O   O10       1.0  0.23400  0.73800  0.96800  1.0000
