data_image0
_chemical_formula_structural       Cu4Dy4K2S9
_chemical_formula_sum              "Cu4 Dy4 K2 S9"
_cell_length_a       3.94021
_cell_length_b       7.14698
_cell_length_c       15.1356
_cell_angle_alpha    93.3966
_cell_angle_beta     97.4791
_cell_angle_gamma    106.001

_space_group_name_H-M_alt    "P 1"
_space_group_IT_number       1

loop_
  _space_group_symop_operation_xyz
  'x, y, z'

loop_
  _atom_site_type_symbol
  _atom_site_label
  _atom_site_symmetry_multiplicity
  _atom_site_fract_x
  _atom_site_fract_y
  _atom_site_fract_z
  _atom_site_occupancy
  Cu  Cu1       1.0  0.98300  0.73700  0.22800  1.0000
  Cu  Cu2       1.0  0.89100  0.32200  0.46000  1.0000
  Cu  Cu3       1.0  0.10900  0.67800  0.54000  1.0000
  Cu  Cu4       1.0  0.01750  0.26300  0.77200  1.0000
  Dy  Dy1       1.0  0.39900  0.74500  0.05430  1.0000
  Dy  Dy2       1.0  0.62800  0.86100  0.39500  1.0000
  Dy  Dy3       1.0  0.37200  0.13900  0.60500  1.0000
  Dy  Dy4       1.0  0.60100  0.25500  0.94600  1.0000
  K   K1        1.0  0.25900  0.28700  0.23100  1.0000
  K   K2        1.0  0.74100  0.71300  0.76900  1.0000
  S   S1        1.0  0.00000  0.00000  0.00000  1.0000
  S   S2        1.0  0.80300  0.50300  0.10300  1.0000
  S   S3        1.0  0.57100  0.92100  0.22100  1.0000
  S   S4        1.0  0.98200  0.59100  0.37300  1.0000
  S   S5        1.0  0.28700  0.15000  0.42400  1.0000
  S   S6        1.0  0.71300  0.85000  0.57600  1.0000
  S   S7        1.0  0.01780  0.40900  0.62700  1.0000
  S   S8        1.0  0.42900  0.07900  0.77900  1.0000
  S   S9        1.0  0.19700  0.49700  0.89700  1.0000
