data_image0
_chemical_formula_structural       Br14Fe2Se2
_chemical_formula_sum              "Br14 Fe2 Se2"
_cell_length_a       6.87286
_cell_length_b       14.9114
_cell_length_c       6.71154
_cell_angle_alpha    90
_cell_angle_beta     90
_cell_angle_gamma    103.067

_space_group_name_H-M_alt    "P 1"
_space_group_IT_number       1

loop_
  _space_group_symop_operation_xyz
  'x, y, z'

loop_
  _atom_site_type_symbol
  _atom_site_label
  _atom_site_symmetry_multiplicity
  _atom_site_fract_x
  _atom_site_fract_y
  _atom_site_fract_z
  _atom_site_occupancy
  Br  Br1       1.0  0.10200  0.26600  0.10800  1.0000
  Br  Br2       1.0  0.73100  0.40800  0.10900  1.0000
  Br  Br3       1.0  0.53100  0.13900  0.15200  1.0000
  Br  Br4       1.0  0.05000  0.90500  0.32200  1.0000
  Br  Br5       1.0  0.32500  0.51300  0.36800  1.0000
  Br  Br6       1.0  0.48900  0.78000  0.37200  1.0000
  Br  Br7       1.0  0.87300  0.64100  0.37500  1.0000
  Br  Br8       1.0  0.87300  0.14100  0.62500  1.0000
  Br  Br9       1.0  0.48900  0.28000  0.62800  1.0000
  Br  Br10      1.0  0.32500  0.01290  0.63200  1.0000
  Br  Br11      1.0  0.05000  0.40500  0.67800  1.0000
  Br  Br12      1.0  0.53100  0.63900  0.84800  1.0000
  Br  Br13      1.0  0.73100  0.90800  0.89100  1.0000
  Br  Br14      1.0  0.10200  0.76600  0.89200  1.0000
  Fe  Fe1       1.0  0.55200  0.14100  0.50000  1.0000
  Fe  Fe2       1.0  0.55200  0.64100  0.50000  1.0000
  Se  Se1       1.0  0.84400  0.80000  0.09530  1.0000
  Se  Se2       1.0  0.84400  0.30000  0.90500  1.0000
