data_image0
_chemical_formula_structural       As8Ca6In4
_chemical_formula_sum              "As8 Ca6 In4"
_cell_length_a       16.2286
_cell_length_b       6.66935
_cell_length_c       4.36897
_cell_angle_alpha    90
_cell_angle_beta     90
_cell_angle_gamma    90

_space_group_name_H-M_alt    "P 1"
_space_group_IT_number       1

loop_
  _space_group_symop_operation_xyz
  'x, y, z'

loop_
  _atom_site_type_symbol
  _atom_site_label
  _atom_site_symmetry_multiplicity
  _atom_site_fract_x
  _atom_site_fract_y
  _atom_site_fract_z
  _atom_site_occupancy
  As  As1       1.0  0.17300  0.22800  0.00000  1.0000
  As  As2       1.0  0.42800  0.26100  0.00000  1.0000
  As  As3       1.0  0.57200  0.73900  0.00000  1.0000
  As  As4       1.0  0.82700  0.77200  0.00000  1.0000
  As  As5       1.0  0.92800  0.23900  0.50000  1.0000
  As  As6       1.0  0.67300  0.27200  0.50000  1.0000
  As  As7       1.0  0.32700  0.72800  0.50000  1.0000
  As  As8       1.0  0.07160  0.76100  0.50000  1.0000
  Ca  Ca1       1.0  0.00000  0.00000  0.00000  1.0000
  Ca  Ca2       1.0  0.80500  0.27600  0.00000  1.0000
  Ca  Ca3       1.0  0.19500  0.72400  0.00000  1.0000
  Ca  Ca4       1.0  0.30500  0.22400  0.50000  1.0000
  Ca  Ca5       1.0  0.50000  0.50000  0.50000  1.0000
  Ca  Ca6       1.0  0.69500  0.77600  0.50000  1.0000
  In  In1       1.0  0.58800  0.13900  0.00000  1.0000
  In  In2       1.0  0.41200  0.86100  0.00000  1.0000
  In  In3       1.0  0.08830  0.36100  0.50000  1.0000
  In  In4       1.0  0.91200  0.63900  0.50000  1.0000
