data_image0
_chemical_formula_structural       Be17Zr2
_chemical_formula_sum              "Be17 Zr2"
_cell_length_a       5.67382
_cell_length_b       5.67382
_cell_length_c       5.67382
_cell_angle_alpha    82.8904
_cell_angle_beta     97.1096
_cell_angle_gamma    97.1096

_space_group_name_H-M_alt    "P 1"
_space_group_IT_number       1

loop_
  _space_group_symop_operation_xyz
  'x, y, z'

loop_
  _atom_site_type_symbol
  _atom_site_label
  _atom_site_symmetry_multiplicity
  _atom_site_fract_x
  _atom_site_fract_y
  _atom_site_fract_z
  _atom_site_occupancy
  Be  Be1       1.0  0.50000  0.50000  1.00000  1.0000
  Be  Be2       1.0  0.34000  0.15700  0.15700  1.0000
  Be  Be3       1.0  0.84300  0.66000  0.15700  1.0000
  Be  Be4       1.0  0.21300  0.50000  0.21300  1.0000
  Be  Be5       1.0  0.50000  0.78700  0.21300  1.0000
  Be  Be6       1.0  0.15700  0.84300  0.34000  1.0000
  Be  Be7       1.0  0.59600  0.40400  0.40400  1.0000
  Be  Be8       1.0  0.00000  0.50000  0.50000  1.0000
  Be  Be9       1.0  0.50000  0.00000  0.50000  1.0000
  Be  Be10      1.0  0.21300  0.21300  0.50000  1.0000
  Be  Be11      1.0  0.78700  0.78700  0.50000  1.0000
  Be  Be12      1.0  0.40400  0.59600  0.59600  1.0000
  Be  Be13      1.0  0.84300  0.15700  0.66000  1.0000
  Be  Be14      1.0  0.78700  0.50000  0.78700  1.0000
  Be  Be15      1.0  0.50000  0.21300  0.78700  1.0000
  Be  Be16      1.0  0.66000  0.84300  0.84300  1.0000
  Be  Be17      1.0  0.15700  0.34000  0.84300  1.0000
  Zr  Zr1       1.0  0.83700  0.16300  0.16300  1.0000
  Zr  Zr2       1.0  0.16300  0.83700  0.83700  1.0000
