data_image0
_chemical_formula_structural       O12ReTm6
_chemical_formula_sum              "O12 Re1 Tm6"
_cell_length_a       6.33384
_cell_length_b       6.33384
_cell_length_c       6.33384
_cell_angle_alpha    98.8286
_cell_angle_beta     98.8286
_cell_angle_gamma    98.8286

_space_group_name_H-M_alt    "P 1"
_space_group_IT_number       1

loop_
  _space_group_symop_operation_xyz
  'x, y, z'

loop_
  _atom_site_type_symbol
  _atom_site_label
  _atom_site_symmetry_multiplicity
  _atom_site_fract_x
  _atom_site_fract_y
  _atom_site_fract_z
  _atom_site_occupancy
  O   O1        1.0  0.69900  0.92400  0.03670  1.0000
  O   O2        1.0  0.96300  0.30100  0.07630  1.0000
  O   O3        1.0  0.43000  0.58900  0.17700  1.0000
  O   O4        1.0  0.07630  0.96300  0.30100  1.0000
  O   O5        1.0  0.82300  0.57000  0.41100  1.0000
  O   O6        1.0  0.58900  0.17700  0.43000  1.0000
  O   O7        1.0  0.41100  0.82300  0.57000  1.0000
  O   O8        1.0  0.17700  0.43000  0.58900  1.0000
  O   O9        1.0  0.92400  0.03670  0.69900  1.0000
  O   O10       1.0  0.57000  0.41100  0.82300  1.0000
  O   O11       1.0  0.03670  0.69900  0.92400  1.0000
  O   O12       1.0  0.30100  0.07630  0.96300  1.0000
  Re  Re1       1.0  0.00000  0.00000  0.00000  1.0000
  Tm  Tm1       1.0  0.61100  0.31700  0.14400  1.0000
  Tm  Tm2       1.0  0.14400  0.61100  0.31700  1.0000
  Tm  Tm3       1.0  0.68300  0.85600  0.38900  1.0000
  Tm  Tm4       1.0  0.31700  0.14400  0.61100  1.0000
  Tm  Tm5       1.0  0.85600  0.38900  0.68300  1.0000
  Tm  Tm6       1.0  0.38900  0.68300  0.85600  1.0000
