data_image0
_chemical_formula_structural       C2Cs2F6O6S2
_chemical_formula_sum              "C2 Cs2 F6 O6 S2"
_cell_length_a       9.19323
_cell_length_b       5.82127
_cell_length_c       5.30504
_cell_angle_alpha    90
_cell_angle_beta     105.281
_cell_angle_gamma    90

_space_group_name_H-M_alt    "P 1"
_space_group_IT_number       1

loop_
  _space_group_symop_operation_xyz
  'x, y, z'

loop_
  _atom_site_type_symbol
  _atom_site_label
  _atom_site_symmetry_multiplicity
  _atom_site_fract_x
  _atom_site_fract_y
  _atom_site_fract_z
  _atom_site_occupancy
  C   C1        1.0  0.62800  0.56700  0.35200  1.0000
  C   C2        1.0  0.37200  0.06750  0.64800  1.0000
  Cs  Cs1       1.0  0.17700  0.47600  0.06430  1.0000
  Cs  Cs2       1.0  0.82300  0.97600  0.93600  1.0000
  F   F1        1.0  0.52800  0.46400  0.14900  1.0000
  F   F2        1.0  0.62900  0.79500  0.29900  1.0000
  F   F3        1.0  0.42300  0.04380  0.43100  1.0000
  F   F4        1.0  0.57700  0.54400  0.56900  1.0000
  F   F5        1.0  0.37100  0.29500  0.70100  1.0000
  F   F6        1.0  0.47200  0.96400  0.85100  1.0000
  O   O1        1.0  0.85700  0.49200  0.16000  1.0000
  O   O2        1.0  0.09560  0.06620  0.36800  1.0000
  O   O3        1.0  0.79100  0.20000  0.44100  1.0000
  O   O4        1.0  0.20900  0.70000  0.55900  1.0000
  O   O5        1.0  0.90400  0.56600  0.63200  1.0000
  O   O6        1.0  0.14300  0.99200  0.84000  1.0000
  S   S1        1.0  0.81800  0.44200  0.40300  1.0000
  S   S2        1.0  0.18200  0.94200  0.59700  1.0000
