data_image0
_chemical_formula_structural       Ge2Nd2Zn15
_chemical_formula_sum              "Ge2 Nd2 Zn15"
_cell_length_a       6.85926
_cell_length_b       6.85926
_cell_length_c       6.85926
_cell_angle_alpha    84.7289
_cell_angle_beta     95.2712
_cell_angle_gamma    95.2711

_space_group_name_H-M_alt    "P 1"
_space_group_IT_number       1

loop_
  _space_group_symop_operation_xyz
  'x, y, z'

loop_
  _atom_site_type_symbol
  _atom_site_label
  _atom_site_symmetry_multiplicity
  _atom_site_fract_x
  _atom_site_fract_y
  _atom_site_fract_z
  _atom_site_occupancy
  Ge  Ge1       1.0  0.90100  0.09850  0.09850  1.0000
  Ge  Ge2       1.0  0.09850  0.90100  0.90100  1.0000
  Nd  Nd1       1.0  0.66800  0.33200  0.33200  1.0000
  Nd  Nd2       1.0  0.33200  0.66800  0.66800  1.0000
  Zn  Zn1       1.0  0.50000  0.00000  0.00000  1.0000
  Zn  Zn2       1.0  0.31100  0.31100  0.00000  1.0000
  Zn  Zn3       1.0  0.00000  0.50000  0.00000  1.0000
  Zn  Zn4       1.0  0.68900  0.68900  0.00000  1.0000
  Zn  Zn5       1.0  0.35100  0.64900  0.17100  1.0000
  Zn  Zn6       1.0  0.31100  0.00000  0.31100  1.0000
  Zn  Zn7       1.0  0.00000  0.68900  0.31100  1.0000
  Zn  Zn8       1.0  0.17100  0.35100  0.35100  1.0000
  Zn  Zn9       1.0  0.64900  0.82900  0.35100  1.0000
  Zn  Zn10      1.0  0.00000  0.00000  0.50000  1.0000
  Zn  Zn11      1.0  0.35100  0.17100  0.64900  1.0000
  Zn  Zn12      1.0  0.82900  0.64900  0.64900  1.0000
  Zn  Zn13      1.0  0.68900  1.00000  0.68900  1.0000
  Zn  Zn14      1.0  0.00000  0.31100  0.68900  1.0000
  Zn  Zn15      1.0  0.64900  0.35100  0.82900  1.0000
