data_image0
_chemical_formula_structural       Al6C8Hf4
_chemical_formula_sum              "Al6 C8 Hf4"
_cell_length_a       3.33204
_cell_length_b       3.33207
_cell_length_c       22.1245
_cell_angle_alpha    90
_cell_angle_beta     90
_cell_angle_gamma    120

_space_group_name_H-M_alt    "P 1"
_space_group_IT_number       1

loop_
  _space_group_symop_operation_xyz
  'x, y, z'

loop_
  _atom_site_type_symbol
  _atom_site_label
  _atom_site_symmetry_multiplicity
  _atom_site_fract_x
  _atom_site_fract_y
  _atom_site_fract_z
  _atom_site_occupancy
  Al  Al1       1.0  0.00000  0.00000  0.15800  1.0000
  Al  Al2       1.0  0.33300  0.66700  0.25000  1.0000
  Al  Al3       1.0  0.00000  0.00000  0.34200  1.0000
  Al  Al4       1.0  0.00001  0.00002  0.65800  1.0000
  Al  Al5       1.0  0.66700  0.33300  0.75000  1.0000
  Al  Al6       1.0  0.00001  0.00002  0.84200  1.0000
  C   C1        1.0  0.00000  0.00000  0.00000  1.0000
  C   C2        1.0  0.33300  0.66700  0.12700  1.0000
  C   C3        1.0  0.00000  0.00000  0.25000  1.0000
  C   C4        1.0  0.33300  0.66700  0.37300  1.0000
  C   C5        1.0  0.00000  0.00000  0.50000  1.0000
  C   C6        1.0  0.66700  0.33300  0.62700  1.0000
  C   C7        1.0  0.00001  0.00003  0.75000  1.0000
  C   C8        1.0  0.66700  0.33300  0.87300  1.0000
  Hf  Hf1       1.0  0.66700  0.33300  0.05770  1.0000
  Hf  Hf2       1.0  0.66700  0.33300  0.44200  1.0000
  Hf  Hf3       1.0  0.33300  0.66700  0.55800  1.0000
  Hf  Hf4       1.0  0.33300  0.66700  0.94200  1.0000
