data_image0
_chemical_formula_structural       B3Ca4LaO10
_chemical_formula_sum              "B3 Ca4 La1 O10"
_cell_length_a       3.58939
_cell_length_b       8.14074
_cell_length_c       8.99234
_cell_angle_alpha    63.0863
_cell_angle_beta     94.9359
_cell_angle_gamma    100.958

_space_group_name_H-M_alt    "P 1"
_space_group_IT_number       1

loop_
  _space_group_symop_operation_xyz
  'x, y, z'

loop_
  _atom_site_type_symbol
  _atom_site_label
  _atom_site_symmetry_multiplicity
  _atom_site_fract_x
  _atom_site_fract_y
  _atom_site_fract_z
  _atom_site_occupancy
  B   B1        1.0  0.29400  0.61100  0.00000  1.0000
  B   B2        1.0  0.91500  0.84500  0.39400  1.0000
  B   B3        1.0  0.91500  0.23900  0.60600  1.0000
  Ca  Ca1       1.0  0.67200  0.23800  0.22900  1.0000
  Ca  Ca2       1.0  0.33100  0.54400  0.36000  1.0000
  Ca  Ca3       1.0  0.33100  0.90400  0.64000  1.0000
  Ca  Ca4       1.0  0.67200  0.46700  0.77100  1.0000
  La  La1       1.0  0.00464  0.99800  0.00000  1.0000
  O   O1        1.0  0.39200  0.78400  0.00000  1.0000
  O   O2        1.0  0.58700  0.17800  0.00000  1.0000
  O   O3        1.0  0.24500  0.45000  0.15000  1.0000
  O   O4        1.0  0.90600  0.75100  0.29700  1.0000
  O   O5        1.0  0.11800  0.02500  0.34000  1.0000
  O   O6        1.0  0.72800  0.30600  0.45500  1.0000
  O   O7        1.0  0.72800  0.76100  0.54500  1.0000
  O   O8        1.0  0.11800  0.36500  0.66000  1.0000
  O   O9        1.0  0.90600  0.04800  0.70300  1.0000
  O   O10       1.0  0.24500  0.60000  0.85000  1.0000
