data_image0
_chemical_formula_structural       Te12Th7
_chemical_formula_sum              "Te12 Th7"
_cell_length_a       12.5818
_cell_length_b       12.5818
_cell_length_c       4.35738
_cell_angle_alpha    90
_cell_angle_beta     90
_cell_angle_gamma    120

_space_group_name_H-M_alt    "P 1"
_space_group_IT_number       1

loop_
  _space_group_symop_operation_xyz
  'x, y, z'

loop_
  _atom_site_type_symbol
  _atom_site_label
  _atom_site_symmetry_multiplicity
  _atom_site_fract_x
  _atom_site_fract_y
  _atom_site_fract_z
  _atom_site_occupancy
  Te  Te1       1.0  0.00778  0.25500  0.00000  1.0000
  Te  Te2       1.0  0.37500  0.50800  0.00000  1.0000
  Te  Te3       1.0  0.13300  0.62500  0.00000  1.0000
  Te  Te4       1.0  0.74500  0.75200  0.00000  1.0000
  Te  Te5       1.0  0.49200  0.86700  0.00000  1.0000
  Te  Te6       1.0  0.24800  0.99200  0.00000  1.0000
  Te  Te7       1.0  0.78700  0.00287  0.50000  1.0000
  Te  Te8       1.0  0.52100  0.13600  0.50000  1.0000
  Te  Te9       1.0  0.21600  0.21300  0.50000  1.0000
  Te  Te10      1.0  0.86400  0.38500  0.50000  1.0000
  Te  Te11      1.0  0.61500  0.47900  0.50000  1.0000
  Te  Te12      1.0  0.99700  0.78400  0.50000  1.0000
  Th  Th1       1.0  0.00000  0.00000  0.00000  1.0000
  Th  Th2       1.0  0.72200  0.16000  0.00000  1.0000
  Th  Th3       1.0  0.43800  0.27800  0.00000  1.0000
  Th  Th4       1.0  0.84000  0.56200  0.00000  1.0000
  Th  Th5       1.0  0.16400  0.45200  0.50000  1.0000
  Th  Th6       1.0  0.54800  0.71100  0.50000  1.0000
  Th  Th7       1.0  0.28900  0.83600  0.50000  1.0000
