data_image0
_chemical_formula_structural       Ce2Fe17
_chemical_formula_sum              "Ce2 Fe17"
_cell_length_a       6.46098
_cell_length_b       6.46098
_cell_length_c       6.46098
_cell_angle_alpha    83.0023
_cell_angle_beta     96.9977
_cell_angle_gamma    96.9977

_space_group_name_H-M_alt    "P 1"
_space_group_IT_number       1

loop_
  _space_group_symop_operation_xyz
  'x, y, z'

loop_
  _atom_site_type_symbol
  _atom_site_label
  _atom_site_symmetry_multiplicity
  _atom_site_fract_x
  _atom_site_fract_y
  _atom_site_fract_z
  _atom_site_occupancy
  Ce  Ce1       1.0  0.65800  0.34200  0.34200  1.0000
  Ce  Ce2       1.0  0.34200  0.65800  0.65800  1.0000
  Fe  Fe1       1.0  0.71300  0.71300  0.00000  1.0000
  Fe  Fe2       1.0  0.50000  0.00000  0.00000  1.0000
  Fe  Fe3       1.0  0.00000  0.50000  0.00000  1.0000
  Fe  Fe4       1.0  0.28700  0.28700  0.00000  1.0000
  Fe  Fe5       1.0  0.90400  0.09600  0.09600  1.0000
  Fe  Fe6       1.0  0.34100  0.65900  0.15300  1.0000
  Fe  Fe7       1.0  0.28700  0.00000  0.28700  1.0000
  Fe  Fe8       1.0  0.00000  0.71300  0.28700  1.0000
  Fe  Fe9       1.0  0.65900  0.84700  0.34100  1.0000
  Fe  Fe10      1.0  0.15300  0.34100  0.34100  1.0000
  Fe  Fe11      1.0  1.00000  0.00000  0.50000  1.0000
  Fe  Fe12      1.0  0.84700  0.65900  0.65900  1.0000
  Fe  Fe13      1.0  0.34100  0.15300  0.65900  1.0000
  Fe  Fe14      1.0  0.00000  0.28700  0.71300  1.0000
  Fe  Fe15      1.0  0.71300  0.00000  0.71300  1.0000
  Fe  Fe16      1.0  0.65900  0.34100  0.84700  1.0000
  Fe  Fe17      1.0  0.09600  0.90400  0.90400  1.0000
