data_image0
_chemical_formula_structural       Cl10K4N2Os2
_chemical_formula_sum              "Cl10 K4 N2 Os2"
_cell_length_a       8.19982
_cell_length_b       8.79383
_cell_length_c       8.79383
_cell_angle_alpha    113.799
_cell_angle_beta     90
_cell_angle_gamma    90

_space_group_name_H-M_alt    "P 1"
_space_group_IT_number       1

loop_
  _space_group_symop_operation_xyz
  'x, y, z'

loop_
  _atom_site_type_symbol
  _atom_site_label
  _atom_site_symmetry_multiplicity
  _atom_site_fract_x
  _atom_site_fract_y
  _atom_site_fract_z
  _atom_site_occupancy
  Cl  Cl1       1.0  0.60000  0.25800  0.09070  1.0000
  Cl  Cl2       1.0  0.93500  0.53400  0.12600  1.0000
  Cl  Cl3       1.0  0.27500  0.74500  0.25500  1.0000
  Cl  Cl4       1.0  0.09980  0.09070  0.25800  1.0000
  Cl  Cl5       1.0  0.93500  0.87400  0.46600  1.0000
  Cl  Cl6       1.0  0.43500  0.12600  0.53400  1.0000
  Cl  Cl7       1.0  0.60000  0.90900  0.74200  1.0000
  Cl  Cl8       1.0  0.77500  0.25500  0.74500  1.0000
  Cl  Cl9       1.0  0.43500  0.46600  0.87400  1.0000
  Cl  Cl10      1.0  0.09980  0.74200  0.90900  1.0000
  K   K1        1.0  0.44200  0.92500  0.07540  1.0000
  K   K2        1.0  0.60800  0.65200  0.34800  1.0000
  K   K3        1.0  0.10800  0.34800  0.65200  1.0000
  K   K4        1.0  0.94200  0.07540  0.92500  1.0000
  N   N1        1.0  0.80400  0.86500  0.13500  1.0000
  N   N2        1.0  0.30400  0.13500  0.86500  1.0000
  Os  Os1       1.0  0.98700  0.81600  0.18400  1.0000
  Os  Os2       1.0  0.48700  0.18400  0.81600  1.0000
