data_image0
_chemical_formula_structural       As8Mn10
_chemical_formula_sum              "As8 Mn10"
_cell_length_a       3.48703
_cell_length_b       6.75302
_cell_length_c       11.8203
_cell_angle_alpha    90
_cell_angle_beta     90
_cell_angle_gamma    75.0377

_space_group_name_H-M_alt    "P 1"
_space_group_IT_number       1

loop_
  _space_group_symop_operation_xyz
  'x, y, z'

loop_
  _atom_site_type_symbol
  _atom_site_label
  _atom_site_symmetry_multiplicity
  _atom_site_fract_x
  _atom_site_fract_y
  _atom_site_fract_z
  _atom_site_occupancy
  As  As1       1.0  0.27100  0.45700  0.02540  1.0000
  As  As2       1.0  0.60200  0.79700  0.23300  1.0000
  As  As3       1.0  0.34600  0.30800  0.30700  1.0000
  As  As4       1.0  0.00909  0.98200  0.49600  1.0000
  As  As5       1.0  0.72900  0.54300  0.52500  1.0000
  As  As6       1.0  0.39800  0.20300  0.73300  1.0000
  As  As7       1.0  0.65400  0.69200  0.80700  1.0000
  As  As8       1.0  0.99100  0.01820  0.99600  1.0000
  Mn  Mn1       1.0  0.63000  0.74000  0.01710  1.0000
  Mn  Mn2       1.0  0.44200  0.11700  0.12600  1.0000
  Mn  Mn3       1.0  0.77900  0.44100  0.18000  1.0000
  Mn  Mn4       1.0  0.97800  0.04410  0.29400  1.0000
  Mn  Mn5       1.0  0.16900  0.66100  0.37000  1.0000
  Mn  Mn6       1.0  0.37000  0.26000  0.51700  1.0000
  Mn  Mn7       1.0  0.55800  0.88300  0.62600  1.0000
  Mn  Mn8       1.0  0.22100  0.55900  0.68000  1.0000
  Mn  Mn9       1.0  0.02200  0.95600  0.79400  1.0000
  Mn  Mn10      1.0  0.83100  0.33900  0.87000  1.0000
