data_image0
_chemical_formula_structural       F14I2Xe2
_chemical_formula_sum              "F14 I2 Xe2"
_cell_length_a       7.15943
_cell_length_b       7.15943
_cell_length_c       7.15429
_cell_angle_alpha    120.024
_cell_angle_beta     120.024
_cell_angle_gamma    90

_space_group_name_H-M_alt    "P 1"
_space_group_IT_number       1

loop_
  _space_group_symop_operation_xyz
  'x, y, z'

loop_
  _atom_site_type_symbol
  _atom_site_label
  _atom_site_symmetry_multiplicity
  _atom_site_fract_x
  _atom_site_fract_y
  _atom_site_fract_z
  _atom_site_occupancy
  F   F1        1.0  0.26500  0.37900  0.00000  1.0000
  F   F2        1.0  0.62100  0.26500  0.00000  1.0000
  F   F3        1.0  0.37900  0.73500  0.00000  1.0000
  F   F4        1.0  0.73500  0.62100  0.00000  1.0000
  F   F5        1.0  0.11000  0.11000  0.22000  1.0000
  F   F6        1.0  0.67400  0.48600  0.48100  1.0000
  F   F7        1.0  0.48600  0.80800  0.48100  1.0000
  F   F8        1.0  0.99500  0.67400  0.48100  1.0000
  F   F9        1.0  0.80800  0.99500  0.48100  1.0000
  F   F10       1.0  0.19200  0.00485  0.51900  1.0000
  F   F11       1.0  0.00485  0.32600  0.51900  1.0000
  F   F12       1.0  0.51400  0.19200  0.51900  1.0000
  F   F13       1.0  0.32600  0.51400  0.51900  1.0000
  F   F14       1.0  0.89000  0.89000  0.78000  1.0000
  I   I1        1.0  0.70600  0.70600  0.41300  1.0000
  I   I2        1.0  0.29400  0.29400  0.58700  1.0000
  Xe  Xe1       1.0  0.00000  0.50000  0.00000  1.0000
  Xe  Xe2       1.0  0.50000  0.00000  0.00000  1.0000
