data_image0
_chemical_formula_structural       Al8C2N6O2
_chemical_formula_sum              "Al8 C2 N6 O2"
_cell_length_a       5.71216
_cell_length_b       5.71216
_cell_length_c       6.2523
_cell_angle_alpha    90
_cell_angle_beta     90
_cell_angle_gamma    109.797

_space_group_name_H-M_alt    "P 1"
_space_group_IT_number       1

loop_
  _space_group_symop_operation_xyz
  'x, y, z'

loop_
  _atom_site_type_symbol
  _atom_site_label
  _atom_site_symmetry_multiplicity
  _atom_site_fract_x
  _atom_site_fract_y
  _atom_site_fract_z
  _atom_site_occupancy
  Al  Al1       1.0  0.05530  0.52100  0.08090  1.0000
  Al  Al2       1.0  0.47900  0.94500  0.08090  1.0000
  Al  Al3       1.0  0.95400  0.04650  0.24400  1.0000
  Al  Al4       1.0  0.42900  0.57100  0.39700  1.0000
  Al  Al5       1.0  0.52100  0.05530  0.58100  1.0000
  Al  Al6       1.0  0.94500  0.47900  0.58100  1.0000
  Al  Al7       1.0  0.04650  0.95400  0.74400  1.0000
  Al  Al8       1.0  0.57100  0.42900  0.89700  1.0000
  C   C1        1.0  0.16300  0.83700  0.47300  1.0000
  C   C2        1.0  0.83700  0.16300  0.97300  1.0000
  N   N1        1.0  0.15400  0.84600  0.24600  1.0000
  N   N2        1.0  0.10400  0.36700  0.35000  1.0000
  N   N3        1.0  0.63300  0.89600  0.35000  1.0000
  N   N4        1.0  0.84600  0.15400  0.74600  1.0000
  N   N5        1.0  0.36700  0.10400  0.85000  1.0000
  N   N6        1.0  0.89600  0.63300  0.85000  1.0000
  O   O1        1.0  0.39100  0.60900  0.99100  1.0000
  O   O2        1.0  0.60900  0.39100  0.49100  1.0000
