data_image0
_chemical_formula_structural       Ce2F14Zr2
_chemical_formula_sum              "Ce2 F14 Zr2"
_cell_length_a       5.92771
_cell_length_b       5.55091
_cell_length_c       8.2607
_cell_angle_alpha    90
_cell_angle_beta     101.475
_cell_angle_gamma    90

_space_group_name_H-M_alt    "P 1"
_space_group_IT_number       1

loop_
  _space_group_symop_operation_xyz
  'x, y, z'

loop_
  _atom_site_type_symbol
  _atom_site_label
  _atom_site_symmetry_multiplicity
  _atom_site_fract_x
  _atom_site_fract_y
  _atom_site_fract_z
  _atom_site_occupancy
  Ce  Ce1       1.0  0.17300  0.25700  0.18400  1.0000
  Ce  Ce2       1.0  0.82700  0.75700  0.81600  1.0000
  F   F1        1.0  0.59900  0.75100  0.03070  1.0000
  F   F2        1.0  0.09460  0.61400  0.03550  1.0000
  F   F3        1.0  0.82200  0.40900  0.24900  1.0000
  F   F4        1.0  0.00197  0.89800  0.27300  1.0000
  F   F5        1.0  0.52200  0.05170  0.29300  1.0000
  F   F6        1.0  0.41300  0.57300  0.32600  1.0000
  F   F7        1.0  0.18100  0.24400  0.47400  1.0000
  F   F8        1.0  0.81900  0.74400  0.52600  1.0000
  F   F9        1.0  0.58700  0.07270  0.67400  1.0000
  F   F10       1.0  0.47800  0.55200  0.70700  1.0000
  F   F11       1.0  0.99800  0.39800  0.72700  1.0000
  F   F12       1.0  0.17800  0.90900  0.75100  1.0000
  F   F13       1.0  0.90500  0.11400  0.96500  1.0000
  F   F14       1.0  0.40100  0.25100  0.96900  1.0000
  Zr  Zr1       1.0  0.69700  0.74200  0.28200  1.0000
  Zr  Zr2       1.0  0.30300  0.24200  0.71800  1.0000
