data_image0
_chemical_formula_structural       Li14Sn4
_chemical_formula_sum              "Li14 Sn4"
_cell_length_a       4.61846
_cell_length_b       8.30405
_cell_length_c       8.30405
_cell_angle_alpha    109.182
_cell_angle_beta     90
_cell_angle_gamma    90

_space_group_name_H-M_alt    "P 1"
_space_group_IT_number       1

loop_
  _space_group_symop_operation_xyz
  'x, y, z'

loop_
  _atom_site_type_symbol
  _atom_site_label
  _atom_site_symmetry_multiplicity
  _atom_site_fract_x
  _atom_site_fract_y
  _atom_site_fract_z
  _atom_site_occupancy
  Li  Li1       1.0  0.00000  0.00000  0.00000  1.0000
  Li  Li2       1.0  0.00000  0.34300  0.02940  1.0000
  Li  Li3       1.0  0.50000  0.82700  0.17300  1.0000
  Li  Li4       1.0  0.50000  0.50300  0.17800  1.0000
  Li  Li5       1.0  0.00000  0.02940  0.34300  1.0000
  Li  Li6       1.0  0.00000  0.34700  0.34700  1.0000
  Li  Li7       1.0  0.50000  0.82200  0.49700  1.0000
  Li  Li8       1.0  0.50000  0.50000  0.50000  1.0000
  Li  Li9       1.0  0.50000  0.17800  0.50300  1.0000
  Li  Li10      1.0  0.00000  0.65300  0.65300  1.0000
  Li  Li11      1.0  0.00000  0.97100  0.65700  1.0000
  Li  Li12      1.0  0.50000  0.49700  0.82200  1.0000
  Li  Li13      1.0  0.50000  0.17300  0.82700  1.0000
  Li  Li14      1.0  0.00000  0.65700  0.97100  1.0000
  Sn  Sn1       1.0  0.50000  0.16500  0.16500  1.0000
  Sn  Sn2       1.0  0.00000  0.68300  0.31700  1.0000
  Sn  Sn3       1.0  0.00000  0.31700  0.68300  1.0000
  Sn  Sn4       1.0  0.50000  0.83500  0.83500  1.0000
