data_image0
_chemical_formula_structural       Cr12P7
_chemical_formula_sum              "Cr12 P7"
_cell_length_a       9.02616
_cell_length_b       9.02616
_cell_length_c       3.2008
_cell_angle_alpha    90
_cell_angle_beta     90
_cell_angle_gamma    120

_space_group_name_H-M_alt    "P 1"
_space_group_IT_number       1

loop_
  _space_group_symop_operation_xyz
  'x, y, z'

loop_
  _atom_site_type_symbol
  _atom_site_label
  _atom_site_symmetry_multiplicity
  _atom_site_fract_x
  _atom_site_fract_y
  _atom_site_fract_z
  _atom_site_occupancy
  Cr  Cr1       1.0  0.01470  0.26400  0.00000  1.0000
  Cr  Cr2       1.0  0.37600  0.50800  0.00000  1.0000
  Cr  Cr3       1.0  0.13100  0.62400  0.00000  1.0000
  Cr  Cr4       1.0  0.73600  0.75100  0.00000  1.0000
  Cr  Cr5       1.0  0.49200  0.86900  0.00000  1.0000
  Cr  Cr6       1.0  0.24900  0.98500  0.00000  1.0000
  Cr  Cr7       1.0  0.79600  0.01610  0.50000  1.0000
  Cr  Cr8       1.0  0.50700  0.14100  0.50000  1.0000
  Cr  Cr9       1.0  0.22000  0.20400  0.50000  1.0000
  Cr  Cr10      1.0  0.85900  0.36600  0.50000  1.0000
  Cr  Cr11      1.0  0.63400  0.49300  0.50000  1.0000
  Cr  Cr12      1.0  0.98400  0.78000  0.50000  1.0000
  P   P1        1.0  0.00000  0.00000  0.00000  1.0000
  P   P2        1.0  0.70900  0.15800  0.00000  1.0000
  P   P3        1.0  0.44900  0.29100  0.00000  1.0000
  P   P4        1.0  0.84200  0.55100  0.00000  1.0000
  P   P5        1.0  0.16900  0.45700  0.50000  1.0000
  P   P6        1.0  0.54300  0.71200  0.50000  1.0000
  P   P7        1.0  0.28800  0.83100  0.50000  1.0000
