data_image0
_chemical_formula_structural       La2Zn17
_chemical_formula_sum              "La2 Zn17"
_cell_length_a       6.86756
_cell_length_b       6.86756
_cell_length_c       6.86756
_cell_angle_alpha    82.9084
_cell_angle_beta     97.0916
_cell_angle_gamma    97.0916

_space_group_name_H-M_alt    "P 1"
_space_group_IT_number       1

loop_
  _space_group_symop_operation_xyz
  'x, y, z'

loop_
  _atom_site_type_symbol
  _atom_site_label
  _atom_site_symmetry_multiplicity
  _atom_site_fract_x
  _atom_site_fract_y
  _atom_site_fract_z
  _atom_site_occupancy
  La  La1       1.0  0.66400  0.33600  0.33600  1.0000
  La  La2       1.0  0.33600  0.66400  0.66400  1.0000
  Zn  Zn1       1.0  0.50000  0.00000  0.00000  1.0000
  Zn  Zn2       1.0  0.29100  0.29100  0.00000  1.0000
  Zn  Zn3       1.0  0.00000  0.50000  1.00000  1.0000
  Zn  Zn4       1.0  0.70900  0.70900  0.00000  1.0000
  Zn  Zn5       1.0  0.90200  0.09830  0.09830  1.0000
  Zn  Zn6       1.0  0.34900  0.65100  0.16000  1.0000
  Zn  Zn7       1.0  0.29100  0.00000  0.29100  1.0000
  Zn  Zn8       1.0  0.00000  0.70900  0.29100  1.0000
  Zn  Zn9       1.0  0.16000  0.34900  0.34900  1.0000
  Zn  Zn10      1.0  0.65100  0.84000  0.34900  1.0000
  Zn  Zn11      1.0  0.00000  1.00000  0.50000  1.0000
  Zn  Zn12      1.0  0.34900  0.16000  0.65100  1.0000
  Zn  Zn13      1.0  0.84000  0.65100  0.65100  1.0000
  Zn  Zn14      1.0  0.70900  0.00000  0.70900  1.0000
  Zn  Zn15      1.0  0.00000  0.29100  0.70900  1.0000
  Zn  Zn16      1.0  0.65100  0.34900  0.84000  1.0000
  Zn  Zn17      1.0  0.09830  0.90200  0.90200  1.0000
