data_image0
_chemical_formula_structural       F12I4Sb2
_chemical_formula_sum              "F12 I4 Sb2"
_cell_length_a       5.52174
_cell_length_b       9.64615
_cell_length_c       8.56076
_cell_angle_alpha    124.56
_cell_angle_beta     116.066
_cell_angle_gamma    91.5906

_space_group_name_H-M_alt    "P 1"
_space_group_IT_number       1

loop_
  _space_group_symop_operation_xyz
  'x, y, z'

loop_
  _atom_site_type_symbol
  _atom_site_label
  _atom_site_symmetry_multiplicity
  _atom_site_fract_x
  _atom_site_fract_y
  _atom_site_fract_z
  _atom_site_occupancy
  F   F1        1.0  0.80700  0.50400  0.06410  1.0000
  F   F2        1.0  0.74800  0.83100  0.29700  1.0000
  F   F3        1.0  0.90000  0.11600  0.31000  1.0000
  F   F4        1.0  0.61200  0.58300  0.33700  1.0000
  F   F5        1.0  0.28400  0.81600  0.42500  1.0000
  F   F6        1.0  0.15000  0.57000  0.45700  1.0000
  F   F7        1.0  0.85000  0.43000  0.54300  1.0000
  F   F8        1.0  0.71600  0.18400  0.57500  1.0000
  F   F9        1.0  0.38800  0.41700  0.66300  1.0000
  F   F10       1.0  0.09960  0.88400  0.69000  1.0000
  F   F11       1.0  0.25200  0.16900  0.70300  1.0000
  F   F12       1.0  0.19300  0.49600  0.93600  1.0000
  I   I1        1.0  0.25000  0.88400  0.11100  1.0000
  I   I2        1.0  0.30400  0.24600  0.17900  1.0000
  I   I3        1.0  0.69600  0.75400  0.82100  1.0000
  I   I4        1.0  0.75000  0.11600  0.88900  1.0000
  Sb  Sb1       1.0  0.94100  0.69600  0.37200  1.0000
  Sb  Sb2       1.0  0.05920  0.30400  0.62800  1.0000
