data_image0
_chemical_formula_structural       K4Se10Sn4
_chemical_formula_sum              "K4 Se10 Sn4"
_cell_length_a       7.25426
_cell_length_b       7.25426
_cell_length_c       12.0688
_cell_angle_alpha    104.492
_cell_angle_beta     75.5078
_cell_angle_gamma    109.225

_space_group_name_H-M_alt    "P 1"
_space_group_IT_number       1

loop_
  _space_group_symop_operation_xyz
  'x, y, z'

loop_
  _atom_site_type_symbol
  _atom_site_label
  _atom_site_symmetry_multiplicity
  _atom_site_fract_x
  _atom_site_fract_y
  _atom_site_fract_z
  _atom_site_occupancy
  K   K1        1.0  0.56200  0.09680  0.18100  1.0000
  K   K2        1.0  0.09680  0.56200  0.31900  1.0000
  K   K3        1.0  0.90300  0.43800  0.68100  1.0000
  K   K4        1.0  0.43800  0.90300  0.81900  1.0000
  Se  Se1       1.0  0.25800  0.64600  0.03700  1.0000
  Se  Se2       1.0  0.12000  0.15200  0.12100  1.0000
  Se  Se3       1.0  0.68100  0.68100  0.25000  1.0000
  Se  Se4       1.0  0.15200  0.12000  0.37900  1.0000
  Se  Se5       1.0  0.64600  0.25800  0.46300  1.0000
  Se  Se6       1.0  0.35400  0.74200  0.53700  1.0000
  Se  Se7       1.0  0.84800  0.88000  0.62100  1.0000
  Se  Se8       1.0  0.31900  0.31900  0.75000  1.0000
  Se  Se9       1.0  0.88000  0.84800  0.87900  1.0000
  Se  Se10      1.0  0.74200  0.35400  0.96300  1.0000
  Sn  Sn1       1.0  0.94400  0.75200  0.05780  1.0000
  Sn  Sn2       1.0  0.75200  0.94400  0.44200  1.0000
  Sn  Sn3       1.0  0.24800  0.05620  0.55800  1.0000
  Sn  Sn4       1.0  0.05620  0.24800  0.94200  1.0000
