data_image0
_chemical_formula_structural       P4S12Ti2
_chemical_formula_sum              "P4 S12 Ti2"
_cell_length_a       6.91145
_cell_length_b       6.91145
_cell_length_c       11.3116
_cell_angle_alpha    101.352
_cell_angle_beta     101.352
_cell_angle_gamma    110.836

_space_group_name_H-M_alt    "P 1"
_space_group_IT_number       1

loop_
  _space_group_symop_operation_xyz
  'x, y, z'

loop_
  _atom_site_type_symbol
  _atom_site_label
  _atom_site_symmetry_multiplicity
  _atom_site_fract_x
  _atom_site_fract_y
  _atom_site_fract_z
  _atom_site_occupancy
  P   P1        1.0  0.01660  0.38900  0.12500  1.0000
  P   P2        1.0  0.10800  0.73500  0.12500  1.0000
  P   P3        1.0  0.13900  0.26700  0.62500  1.0000
  P   P4        1.0  0.48500  0.35800  0.62500  1.0000
  S   S1        1.0  0.28700  0.33000  0.14700  1.0000
  S   S2        1.0  0.86000  0.81700  0.14700  1.0000
  S   S3        1.0  0.90200  0.32900  0.27100  1.0000
  S   S4        1.0  0.36900  0.94200  0.27100  1.0000
  S   S5        1.0  0.98000  0.03090  0.45600  1.0000
  S   S6        1.0  0.47600  0.42500  0.45600  1.0000
  S   S7        1.0  0.56700  0.11000  0.64700  1.0000
  S   S8        1.0  0.08020  0.53700  0.64700  1.0000
  S   S9        1.0  0.07910  0.15200  0.77100  1.0000
  S   S10       1.0  0.69200  0.61900  0.77100  1.0000
  S   S11       1.0  0.78100  0.23000  0.95600  1.0000
  S   S12       1.0  0.17500  0.72600  0.95600  1.0000
  Ti  Ti1       1.0  0.14900  0.14900  0.29800  1.0000
  Ti  Ti2       1.0  0.89900  0.39900  0.79800  1.0000
