data_image0
_chemical_formula_structural       Eu2F14Sn2
_chemical_formula_sum              "Eu2 F14 Sn2"
_cell_length_a       5.83788
_cell_length_b       5.39918
_cell_length_c       7.72464
_cell_angle_alpha    90
_cell_angle_beta     101.731
_cell_angle_gamma    90

_space_group_name_H-M_alt    "P 1"
_space_group_IT_number       1

loop_
  _space_group_symop_operation_xyz
  'x, y, z'

loop_
  _atom_site_type_symbol
  _atom_site_label
  _atom_site_symmetry_multiplicity
  _atom_site_fract_x
  _atom_site_fract_y
  _atom_site_fract_z
  _atom_site_occupancy
  Eu  Eu1       1.0  0.18800  0.21200  0.17200  1.0000
  Eu  Eu2       1.0  0.81200  0.71200  0.82800  1.0000
  F   F1        1.0  0.54800  0.71000  0.02600  1.0000
  F   F2        1.0  0.14600  0.67100  0.07410  1.0000
  F   F3        1.0  0.93500  0.52300  0.22100  1.0000
  F   F4        1.0  0.85000  0.01880  0.22700  1.0000
  F   F5        1.0  0.52500  0.41200  0.31700  1.0000
  F   F6        1.0  0.40700  0.91800  0.33700  1.0000
  F   F7        1.0  0.14800  0.25000  0.47000  1.0000
  F   F8        1.0  0.85200  0.75000  0.53000  1.0000
  F   F9        1.0  0.59300  0.41800  0.66300  1.0000
  F   F10       1.0  0.47500  0.91200  0.68300  1.0000
  F   F11       1.0  0.15000  0.51900  0.77300  1.0000
  F   F12       1.0  0.06500  0.02340  0.77900  1.0000
  F   F13       1.0  0.85400  0.17100  0.92600  1.0000
  F   F14       1.0  0.45200  0.21000  0.97400  1.0000
  Sn  Sn1       1.0  0.67200  0.73100  0.28800  1.0000
  Sn  Sn2       1.0  0.32800  0.23100  0.71200  1.0000
