data_image0
_chemical_formula_structural       F12K4Mn2
_chemical_formula_sum              "F12 K4 Mn2"
_cell_length_a       5.49413
_cell_length_b       5.4941
_cell_length_c       8.90315
_cell_angle_alpha    90
_cell_angle_beta     90
_cell_angle_gamma    120

_space_group_name_H-M_alt    "P 1"
_space_group_IT_number       1

loop_
  _space_group_symop_operation_xyz
  'x, y, z'

loop_
  _atom_site_type_symbol
  _atom_site_label
  _atom_site_symmetry_multiplicity
  _atom_site_fract_x
  _atom_site_fract_y
  _atom_site_fract_z
  _atom_site_occupancy
  F   F1        1.0  0.97800  0.48900  0.12100  1.0000
  F   F2        1.0  0.51100  0.48900  0.12100  1.0000
  F   F3        1.0  0.51100  0.02250  0.12100  1.0000
  F   F4        1.0  0.17300  0.34700  0.38800  1.0000
  F   F5        1.0  0.65300  0.82700  0.38800  1.0000
  F   F6        1.0  0.17300  0.82700  0.38800  1.0000
  F   F7        1.0  0.48900  0.51100  0.62100  1.0000
  F   F8        1.0  0.02250  0.51100  0.62100  1.0000
  F   F9        1.0  0.48900  0.97800  0.62100  1.0000
  F   F10       1.0  0.82700  0.17300  0.88800  1.0000
  F   F11       1.0  0.34700  0.17300  0.88800  1.0000
  F   F12       1.0  0.82700  0.65300  0.88800  1.0000
  K   K1        1.0  0.00000  0.00000  0.15200  1.0000
  K   K2        1.0  0.66700  0.33300  0.38200  1.0000
  K   K3        1.0  0.00000  0.00000  0.65200  1.0000
  K   K4        1.0  0.33300  0.66700  0.88200  1.0000
  Mn  Mn1       1.0  0.66700  0.33300  0.00069  1.0000
  Mn  Mn2       1.0  0.33300  0.66700  0.50100  1.0000
