data_image0
_chemical_formula_structural       Cs4F12V2
_chemical_formula_sum              "Cs4 F12 V2"
_cell_length_a       6.05615
_cell_length_b       6.92168
_cell_length_c       7.72886
_cell_angle_alpha    90
_cell_angle_beta     113.066
_cell_angle_gamma    90

_space_group_name_H-M_alt    "P 1"
_space_group_IT_number       1

loop_
  _space_group_symop_operation_xyz
  'x, y, z'

loop_
  _atom_site_type_symbol
  _atom_site_label
  _atom_site_symmetry_multiplicity
  _atom_site_fract_x
  _atom_site_fract_y
  _atom_site_fract_z
  _atom_site_occupancy
  Cs  Cs1       1.0  0.04650  0.75000  0.09290  1.0000
  Cs  Cs2       1.0  0.73100  0.75000  0.46200  1.0000
  Cs  Cs3       1.0  0.26900  0.25000  0.53800  1.0000
  Cs  Cs4       1.0  0.95400  0.25000  0.90700  1.0000
  F   F1        1.0  0.51400  0.75000  0.02770  1.0000
  F   F2        1.0  0.83900  0.06290  0.23400  1.0000
  F   F3        1.0  0.83900  0.43700  0.23400  1.0000
  F   F4        1.0  0.39400  0.06290  0.23400  1.0000
  F   F5        1.0  0.39400  0.43700  0.23400  1.0000
  F   F6        1.0  0.74500  0.25000  0.49000  1.0000
  F   F7        1.0  0.25500  0.75000  0.51000  1.0000
  F   F8        1.0  0.60600  0.56300  0.76600  1.0000
  F   F9        1.0  0.60600  0.93700  0.76600  1.0000
  F   F10       1.0  0.16100  0.56300  0.76600  1.0000
  F   F11       1.0  0.16100  0.93700  0.76600  1.0000
  F   F12       1.0  0.48600  0.25000  0.97200  1.0000
  V   V1        1.0  0.61300  0.25000  0.22700  1.0000
  V   V2        1.0  0.38700  0.75000  0.77300  1.0000
