data_image0
_chemical_formula_structural       Br14Ga2Se2
_chemical_formula_sum              "Br14 Ga2 Se2"
_cell_length_a       6.9293
_cell_length_b       6.72989
_cell_length_c       15.1023
_cell_angle_alpha    90
_cell_angle_beta     103.374
_cell_angle_gamma    90

_space_group_name_H-M_alt    "P 1"
_space_group_IT_number       1

loop_
  _space_group_symop_operation_xyz
  'x, y, z'

loop_
  _atom_site_type_symbol
  _atom_site_label
  _atom_site_symmetry_multiplicity
  _atom_site_fract_x
  _atom_site_fract_y
  _atom_site_fract_z
  _atom_site_occupancy
  Br  Br1       1.0  0.36400  0.34800  0.00407  1.0000
  Br  Br2       1.0  0.55900  0.86400  0.12800  1.0000
  Br  Br3       1.0  0.84800  0.18500  0.23300  1.0000
  Br  Br4       1.0  0.17300  0.60800  0.23300  1.0000
  Br  Br5       1.0  0.41100  0.12900  0.36300  1.0000
  Br  Br6       1.0  0.79500  0.61100  0.36900  1.0000
  Br  Br7       1.0  0.01480  0.12400  0.49700  1.0000
  Br  Br8       1.0  0.36400  0.65200  0.50400  1.0000
  Br  Br9       1.0  0.55900  0.13600  0.62800  1.0000
  Br  Br10      1.0  0.84800  0.81500  0.73300  1.0000
  Br  Br11      1.0  0.17300  0.39200  0.73300  1.0000
  Br  Br12      1.0  0.41100  0.87100  0.86300  1.0000
  Br  Br13      1.0  0.79500  0.38900  0.86900  1.0000
  Br  Br14      1.0  0.01480  0.87600  0.99700  1.0000
  Ga  Ga1       1.0  0.33700  0.00010  0.49800  1.0000
  Ga  Ga2       1.0  0.33700  0.00000  0.99800  1.0000
  Se  Se1       1.0  0.05090  0.40900  0.33800  1.0000
  Se  Se2       1.0  0.05090  0.59100  0.83800  1.0000
