data_image0
_chemical_formula_structural       C2F6O6Rb2S2
_chemical_formula_sum              "C2 F6 O6 Rb2 S2"
_cell_length_a       9.21516
_cell_length_b       5.59185
_cell_length_c       4.93221
_cell_angle_alpha    90
_cell_angle_beta     104.058
_cell_angle_gamma    90

_space_group_name_H-M_alt    "P 1"
_space_group_IT_number       1

loop_
  _space_group_symop_operation_xyz
  'x, y, z'

loop_
  _atom_site_type_symbol
  _atom_site_label
  _atom_site_symmetry_multiplicity
  _atom_site_fract_x
  _atom_site_fract_y
  _atom_site_fract_z
  _atom_site_occupancy
  C   C1        1.0  0.62600  0.55000  0.37600  1.0000
  C   C2        1.0  0.37400  0.04960  0.62400  1.0000
  F   F1        1.0  0.51700  0.66000  0.18400  1.0000
  F   F2        1.0  0.62900  0.31600  0.30100  1.0000
  F   F3        1.0  0.40900  0.05760  0.37400  1.0000
  F   F4        1.0  0.59100  0.55800  0.62600  1.0000
  F   F5        1.0  0.37100  0.81600  0.69900  1.0000
  F   F6        1.0  0.48300  0.16000  0.81600  1.0000
  O   O1        1.0  0.83300  0.67200  0.11900  1.0000
  O   O2        1.0  0.09240  0.02230  0.40100  1.0000
  O   O3        1.0  0.20500  0.42500  0.49800  1.0000
  O   O4        1.0  0.79500  0.92500  0.50200  1.0000
  O   O5        1.0  0.90800  0.52200  0.59900  1.0000
  O   O6        1.0  0.16700  0.17200  0.88100  1.0000
  Rb  Rb1       1.0  0.15700  0.67600  0.01480  1.0000
  Rb  Rb2       1.0  0.84300  0.17600  0.98500  1.0000
  S   S1        1.0  0.81200  0.68400  0.40300  1.0000
  S   S2        1.0  0.18800  0.18400  0.59700  1.0000
