data_image0
_chemical_formula_structural       C2F10N2S4
_chemical_formula_sum              "C2 F10 N2 S4"
_cell_length_a       4.49268
_cell_length_b       6.88837
_cell_length_c       7.25462
_cell_angle_alpha    98.0958
_cell_angle_beta     91.2665
_cell_angle_gamma    89.2514

_space_group_name_H-M_alt    "P 1"
_space_group_IT_number       1

loop_
  _space_group_symop_operation_xyz
  'x, y, z'

loop_
  _atom_site_type_symbol
  _atom_site_label
  _atom_site_symmetry_multiplicity
  _atom_site_fract_x
  _atom_site_fract_y
  _atom_site_fract_z
  _atom_site_occupancy
  C   C1        1.0  0.61600  0.47900  0.21900  1.0000
  C   C2        1.0  0.38400  0.52100  0.78100  1.0000
  F   F1        1.0  0.71800  0.92300  0.07370  1.0000
  F   F2        1.0  0.15800  0.76500  0.08660  1.0000
  F   F3        1.0  0.04430  0.01470  0.30500  1.0000
  F   F4        1.0  0.62200  0.87300  0.36900  1.0000
  F   F5        1.0  0.06560  0.71100  0.38300  1.0000
  F   F6        1.0  0.93400  0.28900  0.61700  1.0000
  F   F7        1.0  0.37800  0.12700  0.63100  1.0000
  F   F8        1.0  0.95600  0.98500  0.69500  1.0000
  F   F9        1.0  0.84200  0.23500  0.91300  1.0000
  F   F10       1.0  0.28200  0.07730  0.92600  1.0000
  N   N1        1.0  0.72900  0.60100  0.13400  1.0000
  N   N2        1.0  0.27100  0.39900  0.86600  1.0000
  S   S1        1.0  0.88700  0.81100  0.22400  1.0000
  S   S2        1.0  0.46700  0.31600  0.30600  1.0000
  S   S3        1.0  0.53300  0.68400  0.69400  1.0000
  S   S4        1.0  0.11300  0.18900  0.77600  1.0000
