data_image0
_chemical_formula_structural       Ba2Cu2O11Tb2Ti2
_chemical_formula_sum              "Ba2 Cu2 O11 Tb2 Ti2"
_cell_length_a       3.87666
_cell_length_b       3.87666
_cell_length_c       15.6381
_cell_angle_alpha    90
_cell_angle_beta     90
_cell_angle_gamma    90

_space_group_name_H-M_alt    "P 1"
_space_group_IT_number       1

loop_
  _space_group_symop_operation_xyz
  'x, y, z'

loop_
  _atom_site_type_symbol
  _atom_site_label
  _atom_site_symmetry_multiplicity
  _atom_site_fract_x
  _atom_site_fract_y
  _atom_site_fract_z
  _atom_site_occupancy
  Ba  Ba1       1.0  0.50000  0.50000  0.23100  1.0000
  Ba  Ba2       1.0  0.50000  0.50000  0.76900  1.0000
  Cu  Cu1       1.0  0.00000  0.00000  0.10300  1.0000
  Cu  Cu2       1.0  0.00000  0.00000  0.89700  1.0000
  O   O1        1.0  0.50000  0.00000  0.09140  1.0000
  O   O2        1.0  0.00000  0.50000  0.09140  1.0000
  O   O3        1.0  0.00000  0.00000  0.25400  1.0000
  O   O4        1.0  0.50000  0.00000  0.38900  1.0000
  O   O5        1.0  0.00000  0.50000  0.38900  1.0000
  O   O6        1.0  0.00000  0.00000  0.50000  1.0000
  O   O7        1.0  0.50000  0.00000  0.61100  1.0000
  O   O8        1.0  0.00000  0.50000  0.61100  1.0000
  O   O9        1.0  0.00000  0.00000  0.74600  1.0000
  O   O10       1.0  0.50000  0.00000  0.90900  1.0000
  O   O11       1.0  0.00000  0.50000  0.90900  1.0000
  Tb  Tb1       1.0  0.50000  0.50000  0.00000  1.0000
  Tb  Tb2       1.0  0.50000  0.50000  0.50000  1.0000
  Ti  Ti1       1.0  0.00000  0.00000  0.37400  1.0000
  Ti  Ti2       1.0  0.00000  0.00000  0.62600  1.0000
