data_image0
_chemical_formula_structural       Cl4O14
_chemical_formula_sum              "Cl4 O14"
_cell_length_a       4.3724
_cell_length_b       7.04424
_cell_length_c       8.31536
_cell_angle_alpha    111.209
_cell_angle_beta     90
_cell_angle_gamma    108.08

_space_group_name_H-M_alt    "P 1"
_space_group_IT_number       1

loop_
  _space_group_symop_operation_xyz
  'x, y, z'

loop_
  _atom_site_type_symbol
  _atom_site_label
  _atom_site_symmetry_multiplicity
  _atom_site_fract_x
  _atom_site_fract_y
  _atom_site_fract_z
  _atom_site_occupancy
  Cl  Cl1       1.0  0.49000  0.77100  0.22800  1.0000
  Cl  Cl2       1.0  0.71900  0.22900  0.27200  1.0000
  Cl  Cl3       1.0  0.28100  0.77100  0.72800  1.0000
  Cl  Cl4       1.0  0.51000  0.22900  0.77200  1.0000
  O   O1        1.0  0.66100  0.73500  0.08070  1.0000
  O   O2        1.0  0.85000  0.17300  0.11200  1.0000
  O   O3        1.0  0.17000  0.62500  0.20200  1.0000
  O   O4        1.0  0.38900  0.00000  0.25000  1.0000
  O   O5        1.0  0.54500  0.37500  0.29800  1.0000
  O   O6        1.0  0.67700  0.82700  0.38800  1.0000
  O   O7        1.0  0.92700  0.26500  0.41900  1.0000
  O   O8        1.0  0.07340  0.73500  0.58100  1.0000
  O   O9        1.0  0.32300  0.17300  0.61200  1.0000
  O   O10       1.0  0.45500  0.62500  0.70200  1.0000
  O   O11       1.0  0.61100  0.00000  0.75000  1.0000
  O   O12       1.0  0.83000  0.37500  0.79800  1.0000
  O   O13       1.0  0.15000  0.82700  0.88800  1.0000
  O   O14       1.0  0.33900  0.26500  0.91900  1.0000
