data_image0
_chemical_formula_structural       O12WY6
_chemical_formula_sum              "O12 W1 Y6"
_cell_length_a       6.43367
_cell_length_b       6.43367
_cell_length_c       6.43367
_cell_angle_alpha    98.6366
_cell_angle_beta     98.6366
_cell_angle_gamma    98.6366

_space_group_name_H-M_alt    "P 1"
_space_group_IT_number       1

loop_
  _space_group_symop_operation_xyz
  'x, y, z'

loop_
  _atom_site_type_symbol
  _atom_site_label
  _atom_site_symmetry_multiplicity
  _atom_site_fract_x
  _atom_site_fract_y
  _atom_site_fract_z
  _atom_site_occupancy
  O   O1        1.0  0.92600  0.70300  0.03210  1.0000
  O   O2        1.0  0.29700  0.96800  0.07410  1.0000
  O   O3        1.0  0.59000  0.43200  0.17700  1.0000
  O   O4        1.0  0.96800  0.07410  0.29700  1.0000
  O   O5        1.0  0.56800  0.82300  0.41000  1.0000
  O   O6        1.0  0.17700  0.59000  0.43200  1.0000
  O   O7        1.0  0.82300  0.41000  0.56800  1.0000
  O   O8        1.0  0.43200  0.17700  0.59000  1.0000
  O   O9        1.0  0.03210  0.92600  0.70300  1.0000
  O   O10       1.0  0.41000  0.56800  0.82300  1.0000
  O   O11       1.0  0.70300  0.03210  0.92600  1.0000
  O   O12       1.0  0.07410  0.29700  0.96800  1.0000
  W   W1        1.0  0.00000  0.00000  0.00000  1.0000
  Y   Y1        1.0  0.31400  0.61200  0.14300  1.0000
  Y   Y2        1.0  0.61200  0.14300  0.31400  1.0000
  Y   Y3        1.0  0.85700  0.68600  0.38800  1.0000
  Y   Y4        1.0  0.14300  0.31400  0.61200  1.0000
  Y   Y5        1.0  0.38800  0.85700  0.68600  1.0000
  Y   Y6        1.0  0.68600  0.38800  0.85700  1.0000
