data_image0
_chemical_formula_structural       C6F12
_chemical_formula_sum              "C6 F12"
_cell_length_a       5.51225
_cell_length_b       5.7773
_cell_length_c       5.89326
_cell_angle_alpha    92.8103
_cell_angle_beta     105.931
_cell_angle_gamma    94.7605

_space_group_name_H-M_alt    "P 1"
_space_group_IT_number       1

loop_
  _space_group_symop_operation_xyz
  'x, y, z'

loop_
  _atom_site_type_symbol
  _atom_site_label
  _atom_site_symmetry_multiplicity
  _atom_site_fract_x
  _atom_site_fract_y
  _atom_site_fract_z
  _atom_site_occupancy
  C   C1        1.0  0.24000  0.29000  0.09610  1.0000
  C   C2        1.0  0.45100  0.16800  0.23200  1.0000
  C   C3        1.0  0.66800  0.26100  0.38100  1.0000
  C   C4        1.0  0.33200  0.73900  0.61900  1.0000
  C   C5        1.0  0.54900  0.83200  0.76800  1.0000
  C   C6        1.0  0.76000  0.71000  0.90400  1.0000
  F   F1        1.0  0.30000  0.52300  0.11900  1.0000
  F   F2        1.0  0.82700  0.78100  0.13600  1.0000
  F   F3        1.0  0.02970  0.24400  0.17100  1.0000
  F   F4        1.0  0.40800  0.93400  0.19700  1.0000
  F   F5        1.0  0.73700  0.48600  0.42900  1.0000
  F   F6        1.0  0.83900  0.13100  0.49500  1.0000
  F   F7        1.0  0.16100  0.86900  0.50500  1.0000
  F   F8        1.0  0.26300  0.51400  0.57100  1.0000
  F   F9        1.0  0.59200  0.06580  0.80300  1.0000
  F   F10       1.0  0.97000  0.75600  0.82900  1.0000
  F   F11       1.0  0.17300  0.21900  0.86400  1.0000
  F   F12       1.0  0.70000  0.47700  0.88100  1.0000
