data_image0
_chemical_formula_structural       Ce4Ni10Zn4
_chemical_formula_sum              "Ce4 Ni10 Zn4"
_cell_length_a       5.17785
_cell_length_b       5.17785
_cell_length_c       12.7551
_cell_angle_alpha    78.2892
_cell_angle_beta     101.711
_cell_angle_gamma    120

_space_group_name_H-M_alt    "P 1"
_space_group_IT_number       1

loop_
  _space_group_symop_operation_xyz
  'x, y, z'

loop_
  _atom_site_type_symbol
  _atom_site_label
  _atom_site_symmetry_multiplicity
  _atom_site_fract_x
  _atom_site_fract_y
  _atom_site_fract_z
  _atom_site_occupancy
  Ce  Ce1       1.0  0.05580  0.94400  0.16800  1.0000
  Ce  Ce2       1.0  0.14600  0.85400  0.43900  1.0000
  Ce  Ce3       1.0  0.85400  0.14600  0.56100  1.0000
  Ce  Ce4       1.0  0.94400  0.05580  0.83200  1.0000
  Ni  Ni1       1.0  0.38900  0.61100  0.16700  1.0000
  Ni  Ni2       1.0  0.72300  0.27700  0.16800  1.0000
  Ni  Ni3       1.0  0.10800  0.39000  0.32700  1.0000
  Ni  Ni4       1.0  0.61000  0.39000  0.32700  1.0000
  Ni  Ni5       1.0  0.61000  0.89200  0.32700  1.0000
  Ni  Ni6       1.0  0.39000  0.10800  0.67300  1.0000
  Ni  Ni7       1.0  0.39000  0.61000  0.67300  1.0000
  Ni  Ni8       1.0  0.89200  0.61000  0.67300  1.0000
  Ni  Ni9       1.0  0.27700  0.72300  0.83200  1.0000
  Ni  Ni10      1.0  0.61100  0.38900  0.83300  1.0000
  Zn  Zn1       1.0  0.50000  0.00000  0.00000  1.0000
  Zn  Zn2       1.0  0.00000  0.50000  0.00000  1.0000
  Zn  Zn3       1.0  0.50000  0.50000  0.00000  1.0000
  Zn  Zn4       1.0  0.50000  0.50000  0.50000  1.0000
