data_image0
_chemical_formula_structural       Be17Ti2
_chemical_formula_sum              "Be17 Ti2"
_cell_length_a       5.54491
_cell_length_b       5.5449
_cell_length_c       5.54491
_cell_angle_alpha    82.792
_cell_angle_beta     97.208
_cell_angle_gamma    97.208

_space_group_name_H-M_alt    "P 1"
_space_group_IT_number       1

loop_
  _space_group_symop_operation_xyz
  'x, y, z'

loop_
  _atom_site_type_symbol
  _atom_site_label
  _atom_site_symmetry_multiplicity
  _atom_site_fract_x
  _atom_site_fract_y
  _atom_site_fract_z
  _atom_site_occupancy
  Be  Be1       1.0  0.50000  0.50000  0.00000  1.0000
  Be  Be2       1.0  0.84600  0.66000  0.15400  1.0000
  Be  Be3       1.0  0.34000  0.15400  0.15400  1.0000
  Be  Be4       1.0  0.20400  0.50000  0.20400  1.0000
  Be  Be5       1.0  0.50000  0.79600  0.20400  1.0000
  Be  Be6       1.0  0.15400  0.84600  0.34000  1.0000
  Be  Be7       1.0  0.59900  0.40100  0.40100  1.0000
  Be  Be8       1.0  0.50000  0.00000  0.50000  1.0000
  Be  Be9       1.0  0.20400  0.20400  0.50000  1.0000
  Be  Be10      1.0  0.79600  0.79600  0.50000  1.0000
  Be  Be11      1.0  0.00000  0.50000  0.50000  1.0000
  Be  Be12      1.0  0.40100  0.59900  0.59900  1.0000
  Be  Be13      1.0  0.84600  0.15400  0.66000  1.0000
  Be  Be14      1.0  0.79600  0.50000  0.79600  1.0000
  Be  Be15      1.0  0.50000  0.20400  0.79600  1.0000
  Be  Be16      1.0  0.66000  0.84600  0.84600  1.0000
  Be  Be17      1.0  0.15400  0.34000  0.84600  1.0000
  Ti  Ti1       1.0  0.83600  0.16400  0.16400  1.0000
  Ti  Ti2       1.0  0.16400  0.83600  0.83600  1.0000
