data_image0
_chemical_formula_structural       Al2I14Te2
_chemical_formula_sum              "Al2 I14 Te2"
_cell_length_a       7.69489
_cell_length_b       7.4512
_cell_length_c       16.6772
_cell_angle_alpha    90
_cell_angle_beta     104.116
_cell_angle_gamma    90

_space_group_name_H-M_alt    "P 1"
_space_group_IT_number       1

loop_
  _space_group_symop_operation_xyz
  'x, y, z'

loop_
  _atom_site_type_symbol
  _atom_site_label
  _atom_site_symmetry_multiplicity
  _atom_site_fract_x
  _atom_site_fract_y
  _atom_site_fract_z
  _atom_site_occupancy
  Al  Al1       1.0  0.71100  0.00271  0.34600  1.0000
  Al  Al2       1.0  0.71100  0.99700  0.84600  1.0000
  I   I1        1.0  0.21600  0.83100  0.11000  1.0000
  I   I2        1.0  0.89300  0.38200  0.11300  1.0000
  I   I3        1.0  0.48800  0.14300  0.22000  1.0000
  I   I4        1.0  0.68500  0.66200  0.33700  1.0000
  I   I5        1.0  0.02680  0.11900  0.34400  1.0000
  I   I6        1.0  0.27500  0.60800  0.46600  1.0000
  I   I7        1.0  0.64500  0.12500  0.48000  1.0000
  I   I8        1.0  0.21600  0.16900  0.61000  1.0000
  I   I9        1.0  0.89300  0.61800  0.61300  1.0000
  I   I10       1.0  0.48800  0.85700  0.72000  1.0000
  I   I11       1.0  0.68500  0.33800  0.83700  1.0000
  I   I12       1.0  0.02680  0.88100  0.84400  1.0000
  I   I13       1.0  0.27500  0.39200  0.96600  1.0000
  I   I14       1.0  0.64500  0.87500  0.98000  1.0000
  Te  Te1       1.0  0.99800  0.40400  0.49800  1.0000
  Te  Te2       1.0  0.99800  0.59600  0.99800  1.0000
