data_image0
_chemical_formula_structural       Ge6Pd6Yb6
_chemical_formula_sum              "Ge6 Pd6 Yb6"
_cell_length_a       4.44103
_cell_length_b       7.51172
_cell_length_c       11.4714
_cell_angle_alpha    109.112
_cell_angle_beta     101.161
_cell_angle_gamma    90

_space_group_name_H-M_alt    "P 1"
_space_group_IT_number       1

loop_
  _space_group_symop_operation_xyz
  'x, y, z'

loop_
  _atom_site_type_symbol
  _atom_site_label
  _atom_site_symmetry_multiplicity
  _atom_site_fract_x
  _atom_site_fract_y
  _atom_site_fract_z
  _atom_site_occupancy
  Ge  Ge1       1.0  0.06220  0.90400  0.12400  1.0000
  Ge  Ge2       1.0  0.60200  0.44200  0.20300  1.0000
  Ge  Ge3       1.0  0.23000  0.40000  0.46100  1.0000
  Ge  Ge4       1.0  0.77000  0.93900  0.53900  1.0000
  Ge  Ge5       1.0  0.39800  0.23800  0.79700  1.0000
  Ge  Ge6       1.0  0.93800  0.78000  0.87600  1.0000
  Pd  Pd1       1.0  0.57100  0.73700  0.14200  1.0000
  Pd  Pd2       1.0  0.10300  0.27500  0.20700  1.0000
  Pd  Pd3       1.0  0.73100  0.57300  0.46200  1.0000
  Pd  Pd4       1.0  0.26900  0.11100  0.53800  1.0000
  Pd  Pd5       1.0  0.89700  0.06820  0.79300  1.0000
  Pd  Pd6       1.0  0.42900  0.59600  0.85800  1.0000
  Yb  Yb1       1.0  0.50000  0.05010  0.00000  1.0000
  Yb  Yb2       1.0  0.00000  0.46100  0.00000  1.0000
  Yb  Yb3       1.0  0.66400  0.11900  0.32800  1.0000
  Yb  Yb4       1.0  0.16900  0.72500  0.33800  1.0000
  Yb  Yb5       1.0  0.83100  0.38700  0.66200  1.0000
  Yb  Yb6       1.0  0.33600  0.79100  0.67200  1.0000
