data_image0
_chemical_formula_structural       I12K4Re2
_chemical_formula_sum              "I12 K4 Re2"
_cell_length_a       7.99772
_cell_length_b       8.12966
_cell_length_c       11.5839
_cell_angle_alpha    90
_cell_angle_beta     90.2021
_cell_angle_gamma    90

_space_group_name_H-M_alt    "P 1"
_space_group_IT_number       1

loop_
  _space_group_symop_operation_xyz
  'x, y, z'

loop_
  _atom_site_type_symbol
  _atom_site_label
  _atom_site_symmetry_multiplicity
  _atom_site_fract_x
  _atom_site_fract_y
  _atom_site_fract_z
  _atom_site_occupancy
  I   I1        1.0  0.26100  0.94300  0.02260  1.0000
  I   I2        1.0  0.17400  0.47200  0.02910  1.0000
  I   I3        1.0  0.79100  0.02900  0.07890  1.0000
  I   I4        1.0  0.70400  0.55800  0.08550  1.0000
  I   I5        1.0  0.04070  0.74900  0.28800  1.0000
  I   I6        1.0  0.42300  0.24700  0.32000  1.0000
  I   I7        1.0  0.76100  0.05710  0.52300  1.0000
  I   I8        1.0  0.67400  0.52800  0.52900  1.0000
  I   I9        1.0  0.29100  0.97100  0.57900  1.0000
  I   I10       1.0  0.20400  0.44200  0.58500  1.0000
  I   I11       1.0  0.54100  0.25100  0.78800  1.0000
  I   I12       1.0  0.92300  0.75300  0.82000  1.0000
  K   K1        1.0  0.96100  0.30700  0.30300  1.0000
  K   K2        1.0  0.49500  0.80200  0.30400  1.0000
  K   K3        1.0  0.46100  0.69300  0.80300  1.0000
  K   K4        1.0  0.99500  0.19800  0.80400  1.0000
  Re  Re1       1.0  0.98200  0.75100  0.05400  1.0000
  Re  Re2       1.0  0.48200  0.24900  0.55400  1.0000
