data_image0
_chemical_formula_structural       As2Cu2F14
_chemical_formula_sum              "As2 Cu2 F14"
_cell_length_a       5.88759
_cell_length_b       6.77879
_cell_length_c       6.85532
_cell_angle_alpha    119.631
_cell_angle_beta     115.431
_cell_angle_gamma    90

_space_group_name_H-M_alt    "P 1"
_space_group_IT_number       1

loop_
  _space_group_symop_operation_xyz
  'x, y, z'

loop_
  _atom_site_type_symbol
  _atom_site_label
  _atom_site_symmetry_multiplicity
  _atom_site_fract_x
  _atom_site_fract_y
  _atom_site_fract_z
  _atom_site_occupancy
  As  As1       1.0  0.00000  0.00000  0.50000  1.0000
  As  As2       1.0  0.50000  0.50000  0.50000  1.0000
  Cu  Cu1       1.0  0.00000  0.00000  0.00000  1.0000
  Cu  Cu2       1.0  0.00000  0.50000  0.00000  1.0000
  F   F1        1.0  0.88100  0.25000  0.00000  1.0000
  F   F2        1.0  0.11900  0.75000  0.00000  1.0000
  F   F3        1.0  0.86500  0.06300  0.25600  1.0000
  F   F4        1.0  0.39100  0.19300  0.25600  1.0000
  F   F5        1.0  0.39100  0.56300  0.25600  1.0000
  F   F6        1.0  0.86500  0.69300  0.25600  1.0000
  F   F7        1.0  0.28900  0.99700  0.49300  1.0000
  F   F8        1.0  0.20400  0.49700  0.49300  1.0000
  F   F9        1.0  0.71100  0.00337  0.50700  1.0000
  F   F10       1.0  0.79600  0.50300  0.50700  1.0000
  F   F11       1.0  0.13500  0.30700  0.74400  1.0000
  F   F12       1.0  0.60900  0.43700  0.74400  1.0000
  F   F13       1.0  0.60900  0.80700  0.74400  1.0000
  F   F14       1.0  0.13500  0.93700  0.74400  1.0000
