data_image0
_chemical_formula_structural       Br2C2K2N4O8
_chemical_formula_sum              "Br2 C2 K2 N4 O8"
_cell_length_a       7.26905
_cell_length_b       6.94498
_cell_length_c       6.04659
_cell_angle_alpha    85.7313
_cell_angle_beta     103.877
_cell_angle_gamma    63.2149

_space_group_name_H-M_alt    "P 1"
_space_group_IT_number       1

loop_
  _space_group_symop_operation_xyz
  'x, y, z'

loop_
  _atom_site_type_symbol
  _atom_site_label
  _atom_site_symmetry_multiplicity
  _atom_site_fract_x
  _atom_site_fract_y
  _atom_site_fract_z
  _atom_site_occupancy
  Br  Br1       1.0  0.28600  0.20300  0.20000  1.0000
  Br  Br2       1.0  0.71400  0.79700  0.80000  1.0000
  C   C1        1.0  0.46300  0.24300  0.04590  1.0000
  C   C2        1.0  0.53700  0.75700  0.95400  1.0000
  K   K1        1.0  0.12400  0.72100  0.32700  1.0000
  K   K2        1.0  0.87600  0.27900  0.67300  1.0000
  N   N1        1.0  0.67900  0.16000  0.16900  1.0000
  N   N2        1.0  0.62900  0.64200  0.18400  1.0000
  N   N3        1.0  0.37100  0.35800  0.81600  1.0000
  N   N4        1.0  0.32100  0.84000  0.83100  1.0000
  O   O1        1.0  0.81200  0.18100  0.08010  1.0000
  O   O2        1.0  0.82600  0.58300  0.28300  1.0000
  O   O3        1.0  0.52200  0.59300  0.29100  1.0000
  O   O4        1.0  0.74300  0.05590  0.37800  1.0000
  O   O5        1.0  0.25700  0.94400  0.62200  1.0000
  O   O6        1.0  0.47800  0.40700  0.70900  1.0000
  O   O7        1.0  0.17400  0.41700  0.71700  1.0000
  O   O8        1.0  0.18800  0.81900  0.92000  1.0000
