data_image0
_chemical_formula_structural       Ge2S8Tl8
_chemical_formula_sum              "Ge2 S8 Tl8"
_cell_length_a       7.77279
_cell_length_b       8.60714
_cell_length_c       8.60714
_cell_angle_alpha    96.4225
_cell_angle_beta     106.433
_cell_angle_gamma    73.5674

_space_group_name_H-M_alt    "P 1"
_space_group_IT_number       1

loop_
  _space_group_symop_operation_xyz
  'x, y, z'

loop_
  _atom_site_type_symbol
  _atom_site_label
  _atom_site_symmetry_multiplicity
  _atom_site_fract_x
  _atom_site_fract_y
  _atom_site_fract_z
  _atom_site_occupancy
  Ge  Ge1       1.0  0.96100  0.37700  0.20000  1.0000
  Ge  Ge2       1.0  0.46100  0.80000  0.62300  1.0000
  S   S1        1.0  0.14300  0.39500  0.04480  1.0000
  S   S2        1.0  0.78700  0.20700  0.08220  1.0000
  S   S3        1.0  0.78300  0.62300  0.24800  1.0000
  S   S4        1.0  0.28300  0.75200  0.37700  1.0000
  S   S5        1.0  0.14800  0.27600  0.43700  1.0000
  S   S6        1.0  0.64300  0.95500  0.60500  1.0000
  S   S7        1.0  0.64800  0.56300  0.72400  1.0000
  S   S8        1.0  0.28700  0.91800  0.79300  1.0000
  Tl  Tl1       1.0  0.40900  0.00902  0.25700  1.0000
  Tl  Tl2       1.0  0.49600  0.40800  0.37400  1.0000
  Tl  Tl3       1.0  0.94000  0.01690  0.40200  1.0000
  Tl  Tl4       1.0  0.99600  0.62600  0.59200  1.0000
  Tl  Tl5       1.0  0.91800  0.21000  0.78800  1.0000
  Tl  Tl6       1.0  0.41800  0.21200  0.79000  1.0000
  Tl  Tl7       1.0  0.44000  0.59800  0.98300  1.0000
  Tl  Tl8       1.0  0.90900  0.74300  0.99100  1.0000
