data_image0
_chemical_formula_structural       Rb4Se10Sn4
_chemical_formula_sum              "Rb4 Se10 Sn4"
_cell_length_a       7.30177
_cell_length_b       7.30177
_cell_length_c       12.2167
_cell_angle_alpha    104.417
_cell_angle_beta     75.5833
_cell_angle_gamma    107.277

_space_group_name_H-M_alt    "P 1"
_space_group_IT_number       1

loop_
  _space_group_symop_operation_xyz
  'x, y, z'

loop_
  _atom_site_type_symbol
  _atom_site_label
  _atom_site_symmetry_multiplicity
  _atom_site_fract_x
  _atom_site_fract_y
  _atom_site_fract_z
  _atom_site_occupancy
  Rb  Rb1       1.0  0.06120  0.59100  0.17800  1.0000
  Rb  Rb2       1.0  0.59100  0.06120  0.32200  1.0000
  Rb  Rb3       1.0  0.40900  0.93900  0.67800  1.0000
  Rb  Rb4       1.0  0.93900  0.40900  0.82200  1.0000
  Se  Se1       1.0  0.75400  0.13100  0.03330  1.0000
  Se  Se2       1.0  0.62400  0.64500  0.11600  1.0000
  Se  Se3       1.0  0.19200  0.19200  0.25000  1.0000
  Se  Se4       1.0  0.64500  0.62400  0.38400  1.0000
  Se  Se5       1.0  0.13100  0.75400  0.46700  1.0000
  Se  Se6       1.0  0.86900  0.24600  0.53300  1.0000
  Se  Se7       1.0  0.35600  0.37600  0.61600  1.0000
  Se  Se8       1.0  0.80800  0.80800  0.75000  1.0000
  Se  Se9       1.0  0.37600  0.35500  0.88400  1.0000
  Se  Se10      1.0  0.24600  0.86900  0.96700  1.0000
  Sn  Sn1       1.0  0.44700  0.25300  0.05710  1.0000
  Sn  Sn2       1.0  0.25300  0.44700  0.44300  1.0000
  Sn  Sn3       1.0  0.74700  0.55300  0.55700  1.0000
  Sn  Sn4       1.0  0.55300  0.74700  0.94300  1.0000
