data_image0
_chemical_formula_structural       Mo2O12Y5
_chemical_formula_sum              "Mo2 O12 Y5"
_cell_length_a       5.71821
_cell_length_b       6.76356
_cell_length_c       7.51406
_cell_angle_alpha    106.336
_cell_angle_beta     90
_cell_angle_gamma    115.007

_space_group_name_H-M_alt    "P 1"
_space_group_IT_number       1

loop_
  _space_group_symop_operation_xyz
  'x, y, z'

loop_
  _atom_site_type_symbol
  _atom_site_label
  _atom_site_symmetry_multiplicity
  _atom_site_fract_x
  _atom_site_fract_y
  _atom_site_fract_z
  _atom_site_occupancy
  Mo  Mo1       1.0  0.28200  0.00000  0.00000  1.0000
  Mo  Mo2       1.0  0.71800  0.00000  0.00000  1.0000
  O   O1        1.0  0.40800  0.32900  0.08280  1.0000
  O   O2        1.0  0.92100  0.32900  0.08280  1.0000
  O   O3        1.0  0.00109  0.00218  0.18500  1.0000
  O   O4        1.0  0.50000  0.00000  0.20600  1.0000
  O   O5        1.0  0.09290  0.69100  0.42500  1.0000
  O   O6        1.0  0.59800  0.69100  0.42500  1.0000
  O   O7        1.0  0.40200  0.30900  0.57500  1.0000
  O   O8        1.0  0.90700  0.30900  0.57500  1.0000
  O   O9        1.0  0.50000  0.00040  0.79400  1.0000
  O   O10       1.0  0.99900  0.99800  0.81500  1.0000
  O   O11       1.0  0.07920  0.67100  0.91700  1.0000
  O   O12       1.0  0.59200  0.67100  0.91700  1.0000
  Y   Y1        1.0  0.81500  0.63000  0.17800  1.0000
  Y   Y2        1.0  0.19500  0.38900  0.36100  1.0000
  Y   Y3        1.0  0.50000  1.00000  0.50000  1.0000
  Y   Y4        1.0  0.80600  0.61100  0.63900  1.0000
  Y   Y5        1.0  0.18500  0.37000  0.82200  1.0000
