data_image0
_chemical_formula_structural       In6O12W
_chemical_formula_sum              "In6 O12 W1"
_cell_length_a       6.28297
_cell_length_b       6.28297
_cell_length_c       6.28297
_cell_angle_alpha    98.9981
_cell_angle_beta     98.9981
_cell_angle_gamma    98.9981

_space_group_name_H-M_alt    "P 1"
_space_group_IT_number       1

loop_
  _space_group_symop_operation_xyz
  'x, y, z'

loop_
  _atom_site_type_symbol
  _atom_site_label
  _atom_site_symmetry_multiplicity
  _atom_site_fract_x
  _atom_site_fract_y
  _atom_site_fract_z
  _atom_site_occupancy
  In  In1       1.0  0.32100  0.60400  0.13900  1.0000
  In  In2       1.0  0.60400  0.13900  0.32100  1.0000
  In  In3       1.0  0.86100  0.67900  0.39600  1.0000
  In  In4       1.0  0.13900  0.32100  0.60400  1.0000
  In  In5       1.0  0.39600  0.86100  0.67900  1.0000
  In  In6       1.0  0.67900  0.39600  0.86100  1.0000
  O   O1        1.0  0.90200  0.70200  0.04190  1.0000
  O   O2        1.0  0.29800  0.95800  0.09820  1.0000
  O   O3        1.0  0.59400  0.41600  0.17700  1.0000
  O   O4        1.0  0.95800  0.09820  0.29800  1.0000
  O   O5        1.0  0.58400  0.82300  0.40600  1.0000
  O   O6        1.0  0.17700  0.59400  0.41600  1.0000
  O   O7        1.0  0.82300  0.40600  0.58400  1.0000
  O   O8        1.0  0.41600  0.17700  0.59400  1.0000
  O   O9        1.0  0.04190  0.90200  0.70200  1.0000
  O   O10       1.0  0.40600  0.58400  0.82300  1.0000
  O   O11       1.0  0.70200  0.04190  0.90200  1.0000
  O   O12       1.0  0.09820  0.29800  0.95800  1.0000
  W   W1        1.0  0.00000  0.00000  0.00000  1.0000
