data_image0
_chemical_formula_structural       Cu3H2Mo2O10
_chemical_formula_sum              "Cu3 H2 Mo2 O10"
_cell_length_a       5.21669
_cell_length_b       5.53442
_cell_length_c       7.47224
_cell_angle_alpha    102.991
_cell_angle_beta     107.245
_cell_angle_gamma    97.5991

_space_group_name_H-M_alt    "P 1"
_space_group_IT_number       1

loop_
  _space_group_symop_operation_xyz
  'x, y, z'

loop_
  _atom_site_type_symbol
  _atom_site_label
  _atom_site_symmetry_multiplicity
  _atom_site_fract_x
  _atom_site_fract_y
  _atom_site_fract_z
  _atom_site_occupancy
  Cu  Cu1       1.0  0.22900  0.08850  0.19100  1.0000
  Cu  Cu2       1.0  0.77100  0.91200  0.80900  1.0000
  Cu  Cu3       1.0  0.00000  0.50000  1.00000  1.0000
  H   H1        1.0  0.76100  0.16900  0.13900  1.0000
  H   H2        1.0  0.23900  0.83100  0.86100  1.0000
  Mo  Mo1       1.0  0.69200  0.71900  0.30900  1.0000
  Mo  Mo2       1.0  0.30800  0.28100  0.69100  1.0000
  O   O1        1.0  0.88300  0.17800  0.05980  1.0000
  O   O2        1.0  0.43400  0.44700  0.15900  1.0000
  O   O3        1.0  0.99900  0.70900  0.24600  1.0000
  O   O4        1.0  0.58400  0.00654  0.27400  1.0000
  O   O5        1.0  0.23000  0.27900  0.44300  1.0000
  O   O6        1.0  0.77000  0.72100  0.55700  1.0000
  O   O7        1.0  0.41600  0.99300  0.72600  1.0000
  O   O8        1.0  0.00115  0.29100  0.75400  1.0000
  O   O9        1.0  0.56600  0.55300  0.84100  1.0000
  O   O10       1.0  0.11700  0.82200  0.94000  1.0000
