data_image0
_chemical_formula_structural       Fe15Ga2Sm2
_chemical_formula_sum              "Fe15 Ga2 Sm2"
_cell_length_a       6.42389
_cell_length_b       6.42389
_cell_length_c       6.42389
_cell_angle_alpha    82.4417
_cell_angle_beta     97.5583
_cell_angle_gamma    97.5583

_space_group_name_H-M_alt    "P 1"
_space_group_IT_number       1

loop_
  _space_group_symop_operation_xyz
  'x, y, z'

loop_
  _atom_site_type_symbol
  _atom_site_label
  _atom_site_symmetry_multiplicity
  _atom_site_fract_x
  _atom_site_fract_y
  _atom_site_fract_z
  _atom_site_occupancy
  Fe  Fe1       1.0  0.00000  0.50000  0.00000  1.0000
  Fe  Fe2       1.0  0.29800  0.29800  0.00000  1.0000
  Fe  Fe3       1.0  0.50000  0.00000  0.00000  1.0000
  Fe  Fe4       1.0  0.70200  0.70200  0.00000  1.0000
  Fe  Fe5       1.0  0.34100  0.65900  0.15900  1.0000
  Fe  Fe6       1.0  0.29800  0.00000  0.29800  1.0000
  Fe  Fe7       1.0  0.00000  0.70200  0.29800  1.0000
  Fe  Fe8       1.0  0.15900  0.34100  0.34100  1.0000
  Fe  Fe9       1.0  0.65900  0.84100  0.34100  1.0000
  Fe  Fe10      1.0  0.00000  0.00000  0.50000  1.0000
  Fe  Fe11      1.0  0.34100  0.15900  0.65900  1.0000
  Fe  Fe12      1.0  0.84100  0.65900  0.65900  1.0000
  Fe  Fe13      1.0  0.70200  0.00000  0.70200  1.0000
  Fe  Fe14      1.0  0.00000  0.29800  0.70200  1.0000
  Fe  Fe15      1.0  0.65900  0.34100  0.84100  1.0000
  Ga  Ga1       1.0  0.89800  0.10200  0.10200  1.0000
  Ga  Ga2       1.0  0.10200  0.89800  0.89800  1.0000
  Sm  Sm1       1.0  0.65300  0.34700  0.34700  1.0000
  Sm  Sm2       1.0  0.34700  0.65300  0.65300  1.0000
