data_image0
_chemical_formula_structural       In6O12Re
_chemical_formula_sum              "In6 O12 Re1"
_cell_length_a       6.25749
_cell_length_b       6.25749
_cell_length_c       6.25749
_cell_angle_alpha    99.0664
_cell_angle_beta     99.0664
_cell_angle_gamma    99.0664

_space_group_name_H-M_alt    "P 1"
_space_group_IT_number       1

loop_
  _space_group_symop_operation_xyz
  'x, y, z'

loop_
  _atom_site_type_symbol
  _atom_site_label
  _atom_site_symmetry_multiplicity
  _atom_site_fract_x
  _atom_site_fract_y
  _atom_site_fract_z
  _atom_site_occupancy
  In  In1       1.0  0.60500  0.32000  0.14000  1.0000
  In  In2       1.0  0.14000  0.60500  0.32000  1.0000
  In  In3       1.0  0.68000  0.86000  0.39500  1.0000
  In  In4       1.0  0.32000  0.14000  0.60500  1.0000
  In  In5       1.0  0.86000  0.39500  0.68000  1.0000
  In  In6       1.0  0.39500  0.68000  0.86000  1.0000
  O   O1        1.0  0.70200  0.90600  0.04140  1.0000
  O   O2        1.0  0.95900  0.29800  0.09380  1.0000
  O   O3        1.0  0.41700  0.59300  0.17600  1.0000
  O   O4        1.0  0.09380  0.95900  0.29800  1.0000
  O   O5        1.0  0.82400  0.58300  0.40700  1.0000
  O   O6        1.0  0.59300  0.17600  0.41700  1.0000
  O   O7        1.0  0.40700  0.82400  0.58300  1.0000
  O   O8        1.0  0.17600  0.41700  0.59300  1.0000
  O   O9        1.0  0.90600  0.04140  0.70200  1.0000
  O   O10       1.0  0.58300  0.40700  0.82400  1.0000
  O   O11       1.0  0.04140  0.70200  0.90600  1.0000
  O   O12       1.0  0.29800  0.09380  0.95900  1.0000
  Re  Re1       1.0  0.00000  0.00000  0.00000  1.0000
