data_image0
_chemical_formula_structural       Lu6O12U
_chemical_formula_sum              "Lu6 O12 U1"
_cell_length_a       6.39185
_cell_length_b       6.39185
_cell_length_c       6.39185
_cell_angle_alpha    99.2418
_cell_angle_beta     99.2418
_cell_angle_gamma    99.2418

_space_group_name_H-M_alt    "P 1"
_space_group_IT_number       1

loop_
  _space_group_symop_operation_xyz
  'x, y, z'

loop_
  _atom_site_type_symbol
  _atom_site_label
  _atom_site_symmetry_multiplicity
  _atom_site_fract_x
  _atom_site_fract_y
  _atom_site_fract_z
  _atom_site_occupancy
  Lu  Lu1       1.0  0.60900  0.32700  0.14600  1.0000
  Lu  Lu2       1.0  0.14600  0.60900  0.32700  1.0000
  Lu  Lu3       1.0  0.67300  0.85400  0.39100  1.0000
  Lu  Lu4       1.0  0.32700  0.14600  0.60900  1.0000
  Lu  Lu5       1.0  0.85400  0.39100  0.67300  1.0000
  Lu  Lu6       1.0  0.39100  0.67300  0.85400  1.0000
  O   O1        1.0  0.68400  0.91300  0.05060  1.0000
  O   O2        1.0  0.94900  0.31600  0.08700  1.0000
  O   O3        1.0  0.42200  0.58400  0.17800  1.0000
  O   O4        1.0  0.08700  0.94900  0.31600  1.0000
  O   O5        1.0  0.82200  0.57800  0.41600  1.0000
  O   O6        1.0  0.58400  0.17800  0.42200  1.0000
  O   O7        1.0  0.41600  0.82200  0.57800  1.0000
  O   O8        1.0  0.17800  0.42200  0.58400  1.0000
  O   O9        1.0  0.91300  0.05060  0.68400  1.0000
  O   O10       1.0  0.57800  0.41600  0.82200  1.0000
  O   O11       1.0  0.05060  0.68400  0.91300  1.0000
  O   O12       1.0  0.31600  0.08700  0.94900  1.0000
  U   U1        1.0  0.00000  0.00000  0.00000  1.0000
