data_image0
_chemical_formula_structural       Ce7O12
_chemical_formula_sum              "Ce7 O12"
_cell_length_a       6.96153
_cell_length_b       6.96153
_cell_length_c       6.96153
_cell_angle_alpha    99.4984
_cell_angle_beta     99.4984
_cell_angle_gamma    99.4984

_space_group_name_H-M_alt    "P 1"
_space_group_IT_number       1

loop_
  _space_group_symop_operation_xyz
  'x, y, z'

loop_
  _atom_site_type_symbol
  _atom_site_label
  _atom_site_symmetry_multiplicity
  _atom_site_fract_x
  _atom_site_fract_y
  _atom_site_fract_z
  _atom_site_occupancy
  Ce  Ce1       1.0  0.00000  0.00000  0.00000  1.0000
  Ce  Ce2       1.0  0.60800  0.30100  0.13900  1.0000
  Ce  Ce3       1.0  0.13900  0.60800  0.30100  1.0000
  Ce  Ce4       1.0  0.69900  0.86100  0.39200  1.0000
  Ce  Ce5       1.0  0.30100  0.13900  0.60800  1.0000
  Ce  Ce6       1.0  0.86100  0.39200  0.69900  1.0000
  Ce  Ce7       1.0  0.39200  0.69900  0.86100  1.0000
  O   O1        1.0  0.93500  0.32600  0.05810  1.0000
  O   O2        1.0  0.67400  0.94200  0.06450  1.0000
  O   O3        1.0  0.43900  0.58100  0.17800  1.0000
  O   O4        1.0  0.05810  0.93500  0.32600  1.0000
  O   O5        1.0  0.82200  0.56100  0.41900  1.0000
  O   O6        1.0  0.58100  0.17800  0.43900  1.0000
  O   O7        1.0  0.41900  0.82200  0.56100  1.0000
  O   O8        1.0  0.17800  0.43900  0.58100  1.0000
  O   O9        1.0  0.94200  0.06450  0.67400  1.0000
  O   O10       1.0  0.56100  0.41900  0.82200  1.0000
  O   O11       1.0  0.32600  0.05810  0.93500  1.0000
  O   O12       1.0  0.06450  0.67400  0.94200  1.0000
