data_image0
_chemical_formula_structural       NiO12Re2Sr4
_chemical_formula_sum              "Ni1 O12 Re2 Sr4"
_cell_length_a       5.51972
_cell_length_b       5.51973
_cell_length_c       9.44917
_cell_angle_alpha    73.0178
_cell_angle_beta     106.982
_cell_angle_gamma    120

_space_group_name_H-M_alt    "P 1"
_space_group_IT_number       1

loop_
  _space_group_symop_operation_xyz
  'x, y, z'

loop_
  _atom_site_type_symbol
  _atom_site_label
  _atom_site_symmetry_multiplicity
  _atom_site_fract_x
  _atom_site_fract_y
  _atom_site_fract_z
  _atom_site_occupancy
  Ni  Ni1       1.0  0.00000  0.00000  0.00000  1.0000
  O   O1        1.0  0.21600  0.30200  0.13000  1.0000
  O   O2        1.0  0.69800  0.78400  0.13000  1.0000
  O   O3        1.0  0.21600  0.78400  0.13000  1.0000
  O   O4        1.0  0.12900  0.37900  0.37200  1.0000
  O   O5        1.0  0.62100  0.37900  0.37200  1.0000
  O   O6        1.0  0.62100  0.87100  0.37200  1.0000
  O   O7        1.0  0.37900  0.12900  0.62800  1.0000
  O   O8        1.0  0.87100  0.62100  0.62800  1.0000
  O   O9        1.0  0.37900  0.62100  0.62800  1.0000
  O   O10       1.0  0.78400  0.21600  0.87000  1.0000
  O   O11       1.0  0.30200  0.21600  0.87000  1.0000
  O   O12       1.0  0.78400  0.69800  0.87000  1.0000
  Re  Re1       1.0  0.42100  0.57900  0.26200  1.0000
  Re  Re2       1.0  0.57900  0.42100  0.73800  1.0000
  Sr  Sr1       1.0  0.70800  0.29200  0.12400  1.0000
  Sr  Sr2       1.0  0.13200  0.86800  0.39500  1.0000
  Sr  Sr3       1.0  0.86800  0.13200  0.60500  1.0000
  Sr  Sr4       1.0  0.29200  0.70800  0.87600  1.0000
