data_image0
_chemical_formula_structural       Cu12Dy2Ga5
_chemical_formula_sum              "Cu12 Dy2 Ga5"
_cell_length_a       6.55822
_cell_length_b       6.55822
_cell_length_c       6.55822
_cell_angle_alpha    83.085
_cell_angle_beta     96.915
_cell_angle_gamma    96.915

_space_group_name_H-M_alt    "P 1"
_space_group_IT_number       1

loop_
  _space_group_symop_operation_xyz
  'x, y, z'

loop_
  _atom_site_type_symbol
  _atom_site_label
  _atom_site_symmetry_multiplicity
  _atom_site_fract_x
  _atom_site_fract_y
  _atom_site_fract_z
  _atom_site_occupancy
  Cu  Cu1       1.0  0.30300  0.30300  0.00000  1.0000
  Cu  Cu2       1.0  0.69700  0.69700  0.00000  1.0000
  Cu  Cu3       1.0  0.35000  0.65000  0.15900  1.0000
  Cu  Cu4       1.0  0.00000  0.69700  0.30300  1.0000
  Cu  Cu5       1.0  0.30300  0.00000  0.30300  1.0000
  Cu  Cu6       1.0  0.15900  0.35000  0.35000  1.0000
  Cu  Cu7       1.0  0.65000  0.84100  0.35000  1.0000
  Cu  Cu8       1.0  0.35000  0.15900  0.65000  1.0000
  Cu  Cu9       1.0  0.84100  0.65000  0.65000  1.0000
  Cu  Cu10      1.0  0.00000  0.30300  0.69700  1.0000
  Cu  Cu11      1.0  0.69700  0.00000  0.69700  1.0000
  Cu  Cu12      1.0  0.65000  0.35000  0.84100  1.0000
  Dy  Dy1       1.0  0.65300  0.34700  0.34700  1.0000
  Dy  Dy2       1.0  0.34700  0.65300  0.65300  1.0000
  Ga  Ga1       1.0  0.50000  0.00000  0.00000  1.0000
  Ga  Ga2       1.0  0.00000  0.50000  0.00000  1.0000
  Ga  Ga3       1.0  0.90200  0.09780  0.09780  1.0000
  Ga  Ga4       1.0  0.00000  0.00000  0.50000  1.0000
  Ga  Ga5       1.0  0.09780  0.90200  0.90200  1.0000
