data_image0
_chemical_formula_structural       Cu4Gd4Rb2S9
_chemical_formula_sum              "Cu4 Gd4 Rb2 S9"
_cell_length_a       3.98495
_cell_length_b       7.25466
_cell_length_c       15.417
_cell_angle_alpha    93.8974
_cell_angle_beta     97.4256
_cell_angle_gamma    105.941

_space_group_name_H-M_alt    "P 1"
_space_group_IT_number       1

loop_
  _space_group_symop_operation_xyz
  'x, y, z'

loop_
  _atom_site_type_symbol
  _atom_site_label
  _atom_site_symmetry_multiplicity
  _atom_site_fract_x
  _atom_site_fract_y
  _atom_site_fract_z
  _atom_site_occupancy
  Cu  Cu1       1.0  0.98100  0.73300  0.22800  1.0000
  Cu  Cu2       1.0  0.89100  0.32200  0.45900  1.0000
  Cu  Cu3       1.0  0.10900  0.67800  0.54100  1.0000
  Cu  Cu4       1.0  0.01910  0.26700  0.77200  1.0000
  Gd  Gd1       1.0  0.40000  0.74500  0.05400  1.0000
  Gd  Gd2       1.0  0.62800  0.86000  0.39600  1.0000
  Gd  Gd3       1.0  0.37200  0.14000  0.60400  1.0000
  Gd  Gd4       1.0  0.60000  0.25500  0.94600  1.0000
  Rb  Rb1       1.0  0.25800  0.28600  0.23000  1.0000
  Rb  Rb2       1.0  0.74200  0.71400  0.77000  1.0000
  S   S1        1.0  0.00000  0.00000  0.00000  1.0000
  S   S2        1.0  0.80400  0.50700  0.10200  1.0000
  S   S3        1.0  0.56600  0.90900  0.22300  1.0000
  S   S4        1.0  0.98300  0.59100  0.37500  1.0000
  S   S5        1.0  0.28800  0.15000  0.42500  1.0000
  S   S6        1.0  0.71200  0.85000  0.57500  1.0000
  S   S7        1.0  0.01680  0.40900  0.62500  1.0000
  S   S8        1.0  0.43400  0.09090  0.77700  1.0000
  S   S9        1.0  0.19600  0.49300  0.89800  1.0000
