data_image0
_chemical_formula_structural       CI12Zr6
_chemical_formula_sum              "C1 I12 Zr6"
_cell_length_a       9.31962
_cell_length_b       9.31962
_cell_length_c       9.31962
_cell_angle_alpha    106.845
_cell_angle_beta     106.845
_cell_angle_gamma    106.845

_space_group_name_H-M_alt    "P 1"
_space_group_IT_number       1

loop_
  _space_group_symop_operation_xyz
  'x, y, z'

loop_
  _atom_site_type_symbol
  _atom_site_label
  _atom_site_symmetry_multiplicity
  _atom_site_fract_x
  _atom_site_fract_y
  _atom_site_fract_z
  _atom_site_occupancy
  C   C1        1.0  0.00000  0.00000  0.00000  1.0000
  I   I1        1.0  0.69500  0.22400  0.07810  1.0000
  I   I2        1.0  0.36400  0.43700  0.14100  1.0000
  I   I3        1.0  0.07810  0.69500  0.22400  1.0000
  I   I4        1.0  0.77600  0.92200  0.30500  1.0000
  I   I5        1.0  0.43700  0.14100  0.36400  1.0000
  I   I6        1.0  0.14100  0.36400  0.43700  1.0000
  I   I7        1.0  0.85900  0.63600  0.56300  1.0000
  I   I8        1.0  0.56300  0.85900  0.63600  1.0000
  I   I9        1.0  0.22400  0.07810  0.69500  1.0000
  I   I10       1.0  0.92200  0.30500  0.77600  1.0000
  I   I11       1.0  0.63600  0.56300  0.85900  1.0000
  I   I12       1.0  0.30500  0.77600  0.92200  1.0000
  Zr  Zr1       1.0  0.26300  0.08510  0.02480  1.0000
  Zr  Zr2       1.0  0.02480  0.26300  0.08510  1.0000
  Zr  Zr3       1.0  0.08510  0.02480  0.26300  1.0000
  Zr  Zr4       1.0  0.91500  0.97500  0.73700  1.0000
  Zr  Zr5       1.0  0.97500  0.73700  0.91500  1.0000
  Zr  Zr6       1.0  0.73700  0.91500  0.97500  1.0000
