data_image0
_chemical_formula_structural       O12Pr7
_chemical_formula_sum              "O12 Pr7"
_cell_length_a       6.88849
_cell_length_b       6.88849
_cell_length_c       6.88849
_cell_angle_alpha    99.4883
_cell_angle_beta     99.4884
_cell_angle_gamma    99.4884

_space_group_name_H-M_alt    "P 1"
_space_group_IT_number       1

loop_
  _space_group_symop_operation_xyz
  'x, y, z'

loop_
  _atom_site_type_symbol
  _atom_site_label
  _atom_site_symmetry_multiplicity
  _atom_site_fract_x
  _atom_site_fract_y
  _atom_site_fract_z
  _atom_site_occupancy
  O   O1        1.0  0.93600  0.32600  0.05870  1.0000
  O   O2        1.0  0.67400  0.94100  0.06440  1.0000
  O   O3        1.0  0.43800  0.58000  0.17800  1.0000
  O   O4        1.0  0.05870  0.93600  0.32600  1.0000
  O   O5        1.0  0.82200  0.56200  0.42000  1.0000
  O   O6        1.0  0.58000  0.17800  0.43800  1.0000
  O   O7        1.0  0.42000  0.82200  0.56200  1.0000
  O   O8        1.0  0.17800  0.43800  0.58000  1.0000
  O   O9        1.0  0.94100  0.06440  0.67400  1.0000
  O   O10       1.0  0.56200  0.42000  0.82200  1.0000
  O   O11       1.0  0.32600  0.05870  0.93600  1.0000
  O   O12       1.0  0.06440  0.67400  0.94100  1.0000
  Pr  Pr1       1.0  0.00000  0.00000  0.00000  1.0000
  Pr  Pr2       1.0  0.60800  0.30100  0.13900  1.0000
  Pr  Pr3       1.0  0.13900  0.60800  0.30100  1.0000
  Pr  Pr4       1.0  0.69900  0.86100  0.39200  1.0000
  Pr  Pr5       1.0  0.30100  0.13900  0.60800  1.0000
  Pr  Pr6       1.0  0.86100  0.39200  0.69900  1.0000
  Pr  Pr7       1.0  0.39200  0.69900  0.86100  1.0000
