data_image0
_chemical_formula_structural       O12ReSc6
_chemical_formula_sum              "O12 Re1 Sc6"
_cell_length_a       6.0702
_cell_length_b       6.0702
_cell_length_c       6.0702
_cell_angle_alpha    99.0416
_cell_angle_beta     99.0416
_cell_angle_gamma    99.0416

_space_group_name_H-M_alt    "P 1"
_space_group_IT_number       1

loop_
  _space_group_symop_operation_xyz
  'x, y, z'

loop_
  _atom_site_type_symbol
  _atom_site_label
  _atom_site_symmetry_multiplicity
  _atom_site_fract_x
  _atom_site_fract_y
  _atom_site_fract_z
  _atom_site_occupancy
  O   O1        1.0  0.90700  0.69200  0.04180  1.0000
  O   O2        1.0  0.30800  0.95800  0.09280  1.0000
  O   O3        1.0  0.58600  0.41900  0.17800  1.0000
  O   O4        1.0  0.95800  0.09280  0.30800  1.0000
  O   O5        1.0  0.58100  0.82200  0.41400  1.0000
  O   O6        1.0  0.17800  0.58600  0.41900  1.0000
  O   O7        1.0  0.82200  0.41400  0.58100  1.0000
  O   O8        1.0  0.41900  0.17800  0.58600  1.0000
  O   O9        1.0  0.04180  0.90700  0.69200  1.0000
  O   O10       1.0  0.41400  0.58100  0.82200  1.0000
  O   O11       1.0  0.69200  0.04180  0.90700  1.0000
  O   O12       1.0  0.09280  0.30800  0.95800  1.0000
  Re  Re1       1.0  0.00000  0.00000  0.00000  1.0000
  Sc  Sc1       1.0  0.32700  0.61100  0.14400  1.0000
  Sc  Sc2       1.0  0.61100  0.14400  0.32700  1.0000
  Sc  Sc3       1.0  0.85600  0.67300  0.38900  1.0000
  Sc  Sc4       1.0  0.14400  0.32700  0.61100  1.0000
  Sc  Sc5       1.0  0.38900  0.85600  0.67300  1.0000
  Sc  Sc6       1.0  0.67300  0.38900  0.85600  1.0000
