data_image0
_chemical_formula_structural       CuGe4O12Tb2
_chemical_formula_sum              "Cu1 Ge4 O12 Tb2"
_cell_length_a       7.19777
_cell_length_b       7.94885
_cell_length_c       4.8758
_cell_angle_alpha    87.125
_cell_angle_beta     102.587
_cell_angle_gamma    113.314

_space_group_name_H-M_alt    "P 1"
_space_group_IT_number       1

loop_
  _space_group_symop_operation_xyz
  'x, y, z'

loop_
  _atom_site_type_symbol
  _atom_site_label
  _atom_site_symmetry_multiplicity
  _atom_site_fract_x
  _atom_site_fract_y
  _atom_site_fract_z
  _atom_site_occupancy
  Cu  Cu1       1.0  0.00000  0.00000  0.00000  1.0000
  Ge  Ge1       1.0  0.62000  0.79800  0.41500  1.0000
  Ge  Ge2       1.0  0.83200  0.22100  0.45900  1.0000
  Ge  Ge3       1.0  0.16800  0.77900  0.54100  1.0000
  Ge  Ge4       1.0  0.38000  0.20200  0.58500  1.0000
  O   O1        1.0  0.58000  0.60400  0.22200  1.0000
  O   O2        1.0  0.93400  0.39000  0.22700  1.0000
  O   O3        1.0  0.99000  0.79900  0.25000  1.0000
  O   O4        1.0  0.22500  0.18800  0.25100  1.0000
  O   O5        1.0  0.69300  0.01180  0.25200  1.0000
  O   O6        1.0  0.34500  0.71600  0.40900  1.0000
  O   O7        1.0  0.65500  0.28400  0.59100  1.0000
  O   O8        1.0  0.30700  0.98800  0.74800  1.0000
  O   O9        1.0  0.77500  0.81200  0.74900  1.0000
  O   O10       1.0  0.01050  0.20100  0.75000  1.0000
  O   O11       1.0  0.06590  0.61000  0.77300  1.0000
  O   O12       1.0  0.42000  0.39600  0.77800  1.0000
  Tb  Tb1       1.0  0.23200  0.45300  0.05290  1.0000
  Tb  Tb2       1.0  0.76800  0.54700  0.94700  1.0000
