data_image0
_chemical_formula_structural       O12Tb7
_chemical_formula_sum              "O12 Tb7"
_cell_length_a       6.56482
_cell_length_b       6.56482
_cell_length_c       6.56482
_cell_angle_alpha    99.4921
_cell_angle_beta     99.4922
_cell_angle_gamma    99.4922

_space_group_name_H-M_alt    "P 1"
_space_group_IT_number       1

loop_
  _space_group_symop_operation_xyz
  'x, y, z'

loop_
  _atom_site_type_symbol
  _atom_site_label
  _atom_site_symmetry_multiplicity
  _atom_site_fract_x
  _atom_site_fract_y
  _atom_site_fract_z
  _atom_site_occupancy
  O   O1        1.0  0.93700  0.32700  0.06170  1.0000
  O   O2        1.0  0.67300  0.93800  0.06270  1.0000
  O   O3        1.0  0.43600  0.57900  0.17900  1.0000
  O   O4        1.0  0.06170  0.93700  0.32700  1.0000
  O   O5        1.0  0.82100  0.56400  0.42100  1.0000
  O   O6        1.0  0.57900  0.17900  0.43600  1.0000
  O   O7        1.0  0.42100  0.82100  0.56400  1.0000
  O   O8        1.0  0.17900  0.43600  0.57900  1.0000
  O   O9        1.0  0.93800  0.06270  0.67300  1.0000
  O   O10       1.0  0.56400  0.42100  0.82100  1.0000
  O   O11       1.0  0.32700  0.06170  0.93700  1.0000
  O   O12       1.0  0.06270  0.67300  0.93800  1.0000
  Tb  Tb1       1.0  0.00000  0.00000  0.00000  1.0000
  Tb  Tb2       1.0  0.60900  0.30300  0.13900  1.0000
  Tb  Tb3       1.0  0.13900  0.60900  0.30300  1.0000
  Tb  Tb4       1.0  0.69700  0.86100  0.39100  1.0000
  Tb  Tb5       1.0  0.30300  0.13900  0.60900  1.0000
  Tb  Tb6       1.0  0.86100  0.39100  0.69700  1.0000
  Tb  Tb7       1.0  0.39100  0.69700  0.86100  1.0000
