data_image0
_chemical_formula_structural       CuEr2Ge4O12
_chemical_formula_sum              "Cu1 Er2 Ge4 O12"
_cell_length_a       7.11672
_cell_length_b       7.8597
_cell_length_c       4.89122
_cell_angle_alpha    87.3083
_cell_angle_beta     102.42
_cell_angle_gamma    113.207

_space_group_name_H-M_alt    "P 1"
_space_group_IT_number       1

loop_
  _space_group_symop_operation_xyz
  'x, y, z'

loop_
  _atom_site_type_symbol
  _atom_site_label
  _atom_site_symmetry_multiplicity
  _atom_site_fract_x
  _atom_site_fract_y
  _atom_site_fract_z
  _atom_site_occupancy
  Cu  Cu1       1.0  0.00000  0.00000  0.00000  1.0000
  Er  Er1       1.0  0.23200  0.45400  0.05030  1.0000
  Er  Er2       1.0  0.76800  0.54600  0.95000  1.0000
  Ge  Ge1       1.0  0.62200  0.79600  0.41500  1.0000
  Ge  Ge2       1.0  0.83500  0.22400  0.45800  1.0000
  Ge  Ge3       1.0  0.16500  0.77600  0.54200  1.0000
  Ge  Ge4       1.0  0.37800  0.20400  0.58500  1.0000
  O   O1        1.0  0.57700  0.60100  0.21700  1.0000
  O   O2        1.0  0.93500  0.39200  0.22400  1.0000
  O   O3        1.0  0.98700  0.79700  0.25000  1.0000
  O   O4        1.0  0.22300  0.19200  0.25300  1.0000
  O   O5        1.0  0.69600  0.01170  0.25400  1.0000
  O   O6        1.0  0.34400  0.71200  0.41000  1.0000
  O   O7        1.0  0.65600  0.28800  0.59000  1.0000
  O   O8        1.0  0.30400  0.98800  0.74600  1.0000
  O   O9        1.0  0.77700  0.80800  0.74700  1.0000
  O   O10       1.0  0.01340  0.20300  0.75000  1.0000
  O   O11       1.0  0.06450  0.60800  0.77600  1.0000
  O   O12       1.0  0.42300  0.39900  0.78300  1.0000
