data_image0
_chemical_formula_structural       Al12Eu2Mn5
_chemical_formula_sum              "Al12 Eu2 Mn5"
_cell_length_a       6.84986
_cell_length_b       6.84986
_cell_length_c       6.84986
_cell_angle_alpha    83.4174
_cell_angle_beta     96.5826
_cell_angle_gamma    96.5826

_space_group_name_H-M_alt    "P 1"
_space_group_IT_number       1

loop_
  _space_group_symop_operation_xyz
  'x, y, z'

loop_
  _atom_site_type_symbol
  _atom_site_label
  _atom_site_symmetry_multiplicity
  _atom_site_fract_x
  _atom_site_fract_y
  _atom_site_fract_z
  _atom_site_occupancy
  Al  Al1       1.0  0.28000  0.28000  1.00000  1.0000
  Al  Al2       1.0  0.72000  0.72000  1.00000  1.0000
  Al  Al3       1.0  0.33500  0.66500  0.11600  1.0000
  Al  Al4       1.0  0.00000  0.72000  0.28000  1.0000
  Al  Al5       1.0  0.28000  0.00000  0.28000  1.0000
  Al  Al6       1.0  0.11600  0.33500  0.33500  1.0000
  Al  Al7       1.0  0.66500  0.88400  0.33500  1.0000
  Al  Al8       1.0  0.88400  0.66500  0.66500  1.0000
  Al  Al9       1.0  0.33500  0.11600  0.66500  1.0000
  Al  Al10      1.0  0.00000  0.28000  0.72000  1.0000
  Al  Al11      1.0  0.72000  1.00000  0.72000  1.0000
  Al  Al12      1.0  0.66500  0.33500  0.88400  1.0000
  Eu  Eu1       1.0  0.65500  0.34500  0.34500  1.0000
  Eu  Eu2       1.0  0.34500  0.65500  0.65500  1.0000
  Mn  Mn1       1.0  0.00000  0.50000  1.00000  1.0000
  Mn  Mn2       1.0  0.50000  0.00000  1.00000  1.0000
  Mn  Mn3       1.0  0.90100  0.09860  0.09860  1.0000
  Mn  Mn4       1.0  0.00000  1.00000  0.50000  1.0000
  Mn  Mn5       1.0  0.09860  0.90100  0.90100  1.0000
