data_image0
_chemical_formula_structural       K2O12P4Sr
_chemical_formula_sum              "K2 O12 P4 Sr1"
_cell_length_a       7.23317
_cell_length_b       7.23317
_cell_length_c       7.23317
_cell_angle_alpha    118.923
_cell_angle_beta     91.876
_cell_angle_gamma    118.923

_space_group_name_H-M_alt    "P 1"
_space_group_IT_number       1

loop_
  _space_group_symop_operation_xyz
  'x, y, z'

loop_
  _atom_site_type_symbol
  _atom_site_label
  _atom_site_symmetry_multiplicity
  _atom_site_fract_x
  _atom_site_fract_y
  _atom_site_fract_z
  _atom_site_occupancy
  K   K1        1.0  0.32600  0.00000  0.32600  1.0000
  K   K2        1.0  0.67400  0.00000  0.67400  1.0000
  O   O1        1.0  0.86800  0.74400  0.00863  1.0000
  O   O2        1.0  0.07960  0.44100  0.02630  1.0000
  O   O3        1.0  0.26500  0.25600  0.12400  1.0000
  O   O4        1.0  0.87600  0.14100  0.13200  1.0000
  O   O5        1.0  0.56400  0.79800  0.15300  1.0000
  O   O6        1.0  0.97400  0.05330  0.41500  1.0000
  O   O7        1.0  0.23300  0.58900  0.43600  1.0000
  O   O8        1.0  0.58500  0.55900  0.63800  1.0000
  O   O9        1.0  0.84700  0.41100  0.64400  1.0000
  O   O10       1.0  0.99100  0.85900  0.73500  1.0000
  O   O11       1.0  0.35600  0.20200  0.76700  1.0000
  O   O12       1.0  0.36200  0.94700  0.92000  1.0000
  P   P1        1.0  0.12300  0.38300  0.18900  1.0000
  P   P2        1.0  0.81100  0.93400  0.19400  1.0000
  P   P3        1.0  0.80600  0.61700  0.74000  1.0000
  P   P4        1.0  0.26000  0.06620  0.87700  1.0000
  Sr  Sr1       1.0  0.25000  0.50000  0.75000  1.0000
