data_image0
_chemical_formula_structural       Si11Yb8
_chemical_formula_sum              "Si11 Yb8"
_cell_length_a       4.40042
_cell_length_b       7.77774
_cell_length_c       12.979
_cell_angle_alpha    107.435
_cell_angle_beta     99.7599
_cell_angle_gamma    90

_space_group_name_H-M_alt    "P 1"
_space_group_IT_number       1

loop_
  _space_group_symop_operation_xyz
  'x, y, z'

loop_
  _atom_site_type_symbol
  _atom_site_label
  _atom_site_symmetry_multiplicity
  _atom_site_fract_x
  _atom_site_fract_y
  _atom_site_fract_z
  _atom_site_occupancy
  Si  Si1       1.0  0.01590  0.23000  0.03170  1.0000
  Si  Si2       1.0  0.01590  0.80200  0.03170  1.0000
  Si  Si3       1.0  0.11300  0.36700  0.22600  1.0000
  Si  Si4       1.0  0.11300  0.86000  0.22600  1.0000
  Si  Si5       1.0  0.16900  0.16900  0.33800  1.0000
  Si  Si6       1.0  0.17200  0.67200  0.34400  1.0000
  Si  Si7       1.0  0.82900  0.07520  0.65800  1.0000
  Si  Si8       1.0  0.82900  0.58300  0.65800  1.0000
  Si  Si9       1.0  0.88400  0.38400  0.76900  1.0000
  Si  Si10      1.0  0.89200  0.89200  0.78400  1.0000
  Si  Si11      1.0  0.98100  0.48100  0.96200  1.0000
  Yb  Yb1       1.0  0.56900  0.56900  0.13800  1.0000
  Yb  Yb2       1.0  0.57200  0.07220  0.14400  1.0000
  Yb  Yb3       1.0  0.70200  0.45200  0.40400  1.0000
  Yb  Yb4       1.0  0.70200  0.95200  0.40400  1.0000
  Yb  Yb5       1.0  0.29700  0.29700  0.59300  1.0000
  Yb  Yb6       1.0  0.30000  0.80000  0.60000  1.0000
  Yb  Yb7       1.0  0.42800  0.17900  0.85600  1.0000
  Yb  Yb8       1.0  0.42800  0.67700  0.85600  1.0000
