data_image0
_chemical_formula_structural       O12Re2Tm5
_chemical_formula_sum              "O12 Re2 Tm5"
_cell_length_a       5.57899
_cell_length_b       6.71587
_cell_length_c       7.3971
_cell_angle_alpha    106.294
_cell_angle_beta     90
_cell_angle_gamma    114.542

_space_group_name_H-M_alt    "P 1"
_space_group_IT_number       1

loop_
  _space_group_symop_operation_xyz
  'x, y, z'

loop_
  _atom_site_type_symbol
  _atom_site_label
  _atom_site_symmetry_multiplicity
  _atom_site_fract_x
  _atom_site_fract_y
  _atom_site_fract_z
  _atom_site_occupancy
  O   O1        1.0  0.41300  0.33500  0.08680  1.0000
  O   O2        1.0  0.92300  0.33500  0.08680  1.0000
  O   O3        1.0  0.00147  0.00294  0.18300  1.0000
  O   O4        1.0  0.49900  0.99700  0.21000  1.0000
  O   O5        1.0  0.09440  0.69400  0.42800  1.0000
  O   O6        1.0  0.59900  0.69400  0.42800  1.0000
  O   O7        1.0  0.40100  0.30600  0.57200  1.0000
  O   O8        1.0  0.90600  0.30600  0.57200  1.0000
  O   O9        1.0  0.50100  0.00256  0.79000  1.0000
  O   O10       1.0  0.99900  0.99700  0.81700  1.0000
  O   O11       1.0  0.07720  0.66500  0.91300  1.0000
  O   O12       1.0  0.58700  0.66500  0.91300  1.0000
  Re  Re1       1.0  0.28500  0.00000  0.00000  1.0000
  Re  Re2       1.0  0.71500  0.00000  0.00000  1.0000
  Tm  Tm1       1.0  0.81500  0.63000  0.17700  1.0000
  Tm  Tm2       1.0  0.19800  0.39600  0.36000  1.0000
  Tm  Tm3       1.0  0.50000  0.00000  0.50000  1.0000
  Tm  Tm4       1.0  0.80200  0.60400  0.64000  1.0000
  Tm  Tm5       1.0  0.18500  0.37000  0.82300  1.0000
