data_image0
_chemical_formula_structural       Ho5O12Re2
_chemical_formula_sum              "Ho5 O12 Re2"
_cell_length_a       5.60365
_cell_length_b       6.76617
_cell_length_c       7.46821
_cell_angle_alpha    106.271
_cell_angle_beta     90
_cell_angle_gamma    114.462

_space_group_name_H-M_alt    "P 1"
_space_group_IT_number       1

loop_
  _space_group_symop_operation_xyz
  'x, y, z'

loop_
  _atom_site_type_symbol
  _atom_site_label
  _atom_site_symmetry_multiplicity
  _atom_site_fract_x
  _atom_site_fract_y
  _atom_site_fract_z
  _atom_site_occupancy
  Ho  Ho1       1.0  0.31400  0.62900  0.17500  1.0000
  Ho  Ho2       1.0  0.69700  0.39400  0.36000  1.0000
  Ho  Ho3       1.0  0.00000  0.00000  0.50000  1.0000
  Ho  Ho4       1.0  0.30300  0.60600  0.64000  1.0000
  Ho  Ho5       1.0  0.68600  0.37100  0.82500  1.0000
  O   O1        1.0  0.42000  0.33300  0.08590  1.0000
  O   O2        1.0  0.91300  0.33300  0.08590  1.0000
  O   O3        1.0  0.50100  0.00241  0.18000  1.0000
  O   O4        1.0  0.99900  0.99800  0.20800  1.0000
  O   O5        1.0  0.09830  0.69200  0.42600  1.0000
  O   O6        1.0  0.59400  0.69200  0.42600  1.0000
  O   O7        1.0  0.40600  0.30800  0.57400  1.0000
  O   O8        1.0  0.90200  0.30800  0.57400  1.0000
  O   O9        1.0  0.00076  0.00152  0.79200  1.0000
  O   O10       1.0  0.49900  0.99800  0.82000  1.0000
  O   O11       1.0  0.08720  0.66700  0.91400  1.0000
  O   O12       1.0  0.58000  0.66700  0.91400  1.0000
  Re  Re1       1.0  0.21500  0.00000  0.00000  1.0000
  Re  Re2       1.0  0.78500  0.00000  0.00000  1.0000
