data_image0
_chemical_formula_structural       B2C8N8Zn
_chemical_formula_sum              "B2 C8 N8 Zn1"
_cell_length_a       7.46341
_cell_length_b       7.46333
_cell_length_c       5.95118
_cell_angle_alpha    90
_cell_angle_beta     90.001
_cell_angle_gamma    120

_space_group_name_H-M_alt    "P 1"
_space_group_IT_number       1

loop_
  _space_group_symop_operation_xyz
  'x, y, z'

loop_
  _atom_site_type_symbol
  _atom_site_label
  _atom_site_symmetry_multiplicity
  _atom_site_fract_x
  _atom_site_fract_y
  _atom_site_fract_z
  _atom_site_occupancy
  B   B1        1.0  0.66700  0.33300  0.14400  1.0000
  B   B2        1.0  0.33300  0.66700  0.85600  1.0000
  C   C1        1.0  0.33300  0.66700  0.12100  1.0000
  C   C2        1.0  0.78100  0.56200  0.23500  1.0000
  C   C3        1.0  0.78100  0.21900  0.23500  1.0000
  C   C4        1.0  0.43800  0.21900  0.23500  1.0000
  C   C5        1.0  0.56200  0.78100  0.76500  1.0000
  C   C6        1.0  0.21900  0.43800  0.76500  1.0000
  C   C7        1.0  0.21900  0.78100  0.76500  1.0000
  C   C8        1.0  0.66700  0.33300  0.87900  1.0000
  N   N1        1.0  0.86600  0.73200  0.30000  1.0000
  N   N2        1.0  0.86600  0.13400  0.30000  1.0000
  N   N3        1.0  0.26800  0.13400  0.30000  1.0000
  N   N4        1.0  0.33300  0.66700  0.31600  1.0000
  N   N5        1.0  0.66700  0.33300  0.68400  1.0000
  N   N6        1.0  0.73200  0.86600  0.70000  1.0000
  N   N7        1.0  0.13400  0.86600  0.70000  1.0000
  N   N8        1.0  0.13400  0.26800  0.70000  1.0000
  Zn  Zn1       1.0  0.00000  0.00000  0.50000  1.0000
