data_image0
_chemical_formula_structural       Be17Ta2
_chemical_formula_sum              "Be17 Ta2"
_cell_length_a       5.54655
_cell_length_b       5.54655
_cell_length_c       5.54655
_cell_angle_alpha    83.1245
_cell_angle_beta     96.8755
_cell_angle_gamma    96.8755

_space_group_name_H-M_alt    "P 1"
_space_group_IT_number       1

loop_
  _space_group_symop_operation_xyz
  'x, y, z'

loop_
  _atom_site_type_symbol
  _atom_site_label
  _atom_site_symmetry_multiplicity
  _atom_site_fract_x
  _atom_site_fract_y
  _atom_site_fract_z
  _atom_site_occupancy
  Be  Be1       1.0  0.50000  0.50000  1.00000  1.0000
  Be  Be2       1.0  0.33900  0.15300  0.15300  1.0000
  Be  Be3       1.0  0.84700  0.66100  0.15300  1.0000
  Be  Be4       1.0  0.50000  0.79500  0.20500  1.0000
  Be  Be5       1.0  0.20500  0.50000  0.20500  1.0000
  Be  Be6       1.0  0.15300  0.84700  0.33900  1.0000
  Be  Be7       1.0  0.59900  0.40100  0.40100  1.0000
  Be  Be8       1.0  0.20500  0.20500  0.50000  1.0000
  Be  Be9       1.0  0.00000  0.50000  0.50000  1.0000
  Be  Be10      1.0  0.79500  0.79500  0.50000  1.0000
  Be  Be11      1.0  0.50000  0.00000  0.50000  1.0000
  Be  Be12      1.0  0.40100  0.59900  0.59900  1.0000
  Be  Be13      1.0  0.84700  0.15300  0.66100  1.0000
  Be  Be14      1.0  0.50000  0.20500  0.79500  1.0000
  Be  Be15      1.0  0.79500  0.50000  0.79500  1.0000
  Be  Be16      1.0  0.66100  0.84700  0.84700  1.0000
  Be  Be17      1.0  0.15300  0.33900  0.84700  1.0000
  Ta  Ta1       1.0  0.84000  0.16000  0.16000  1.0000
  Ta  Ta2       1.0  0.16000  0.84000  0.84000  1.0000
