data_image0
_chemical_formula_structural       B4O11Sc2Sr2
_chemical_formula_sum              "B4 O11 Sc2 Sr2"
_cell_length_a       6.28542
_cell_length_b       7.24489
_cell_length_c       5.08495
_cell_angle_alpha    90.5437
_cell_angle_beta     104.786
_cell_angle_gamma    77.5193

_space_group_name_H-M_alt    "P 1"
_space_group_IT_number       1

loop_
  _space_group_symop_operation_xyz
  'x, y, z'

loop_
  _atom_site_type_symbol
  _atom_site_label
  _atom_site_symmetry_multiplicity
  _atom_site_fract_x
  _atom_site_fract_y
  _atom_site_fract_z
  _atom_site_occupancy
  B   B1        1.0  0.22100  0.39100  0.28000  1.0000
  B   B2        1.0  0.34300  0.90000  0.35100  1.0000
  B   B3        1.0  0.65700  0.10000  0.64900  1.0000
  B   B4        1.0  0.77900  0.60900  0.72000  1.0000
  O   O1        1.0  0.34200  0.86800  0.08760  1.0000
  O   O2        1.0  0.35600  0.42100  0.11200  1.0000
  O   O3        1.0  0.05390  0.29200  0.17600  1.0000
  O   O4        1.0  0.74300  0.55700  0.45900  1.0000
  O   O5        1.0  0.20300  0.84900  0.48900  1.0000
  O   O6        1.0  0.50000  0.00000  0.50000  1.0000
  O   O7        1.0  0.79700  0.15100  0.51100  1.0000
  O   O8        1.0  0.25700  0.44300  0.54100  1.0000
  O   O9        1.0  0.94600  0.70800  0.82400  1.0000
  O   O10       1.0  0.64400  0.57900  0.88800  1.0000
  O   O11       1.0  0.65800  0.13200  0.91200  1.0000
  Sc  Sc1       1.0  0.71900  0.35100  0.18600  1.0000
  Sc  Sc2       1.0  0.28100  0.64900  0.81400  1.0000
  Sr  Sr1       1.0  0.80600  0.83600  0.22500  1.0000
  Sr  Sr2       1.0  0.19400  0.16400  0.77500  1.0000
