data_image0
_chemical_formula_structural       Cu2Na2O11Si4
_chemical_formula_sum              "Cu2 Na2 O11 Si4"
_cell_length_a       5.18314
_cell_length_b       6.26256
_cell_length_c       8.13297
_cell_angle_alpha    96.008
_cell_angle_beta     98.0855
_cell_angle_gamma    100.976

_space_group_name_H-M_alt    "P 1"
_space_group_IT_number       1

loop_
  _space_group_symop_operation_xyz
  'x, y, z'

loop_
  _atom_site_type_symbol
  _atom_site_label
  _atom_site_symmetry_multiplicity
  _atom_site_fract_x
  _atom_site_fract_y
  _atom_site_fract_z
  _atom_site_occupancy
  Cu  Cu1       1.0  0.28900  0.11200  0.06930  1.0000
  Cu  Cu2       1.0  0.71100  0.88800  0.93100  1.0000
  Na  Na1       1.0  0.86500  0.34300  0.19700  1.0000
  Na  Na2       1.0  0.13500  0.65700  0.80300  1.0000
  O   O1        1.0  0.41300  0.83400  0.05790  1.0000
  O   O2        1.0  0.26300  0.41100  0.09760  1.0000
  O   O3        1.0  0.99700  0.01530  0.18100  1.0000
  O   O4        1.0  0.71300  0.66100  0.28900  1.0000
  O   O5        1.0  0.23300  0.72100  0.33700  1.0000
  O   O6        1.0  0.00000  0.00000  0.50000  1.0000
  O   O7        1.0  0.76700  0.27900  0.66300  1.0000
  O   O8        1.0  0.28700  0.33900  0.71100  1.0000
  O   O9        1.0  0.00317  0.98500  0.81900  1.0000
  O   O10       1.0  0.73700  0.58900  0.90200  1.0000
  O   O11       1.0  0.58700  0.16600  0.94200  1.0000
  Si  Si1       1.0  0.40700  0.65100  0.19100  1.0000
  Si  Si2       1.0  0.98900  0.85600  0.32300  1.0000
  Si  Si3       1.0  0.01120  0.14400  0.67700  1.0000
  Si  Si4       1.0  0.59300  0.34900  0.80900  1.0000
