data_image0
_chemical_formula_structural       CdI4S8Sb6
_chemical_formula_sum              "Cd1 I4 S8 Sb6"
_cell_length_a       9.05535
_cell_length_b       9.09486
_cell_length_c       9.7215
_cell_angle_alpha    133.145
_cell_angle_beta     84.0395
_cell_angle_gamma    91.9416

_space_group_name_H-M_alt    "P 1"
_space_group_IT_number       1

loop_
  _space_group_symop_operation_xyz
  'x, y, z'

loop_
  _atom_site_type_symbol
  _atom_site_label
  _atom_site_symmetry_multiplicity
  _atom_site_fract_x
  _atom_site_fract_y
  _atom_site_fract_z
  _atom_site_occupancy
  Cd  Cd1       1.0  0.00000  0.00000  0.00000  1.0000
  I   I1        1.0  0.33600  0.49600  0.34900  1.0000
  I   I2        1.0  0.72300  0.89300  0.35900  1.0000
  I   I3        1.0  0.27700  0.10700  0.64100  1.0000
  I   I4        1.0  0.66400  0.50400  0.65100  1.0000
  S   S1        1.0  0.68700  0.06830  0.08700  1.0000
  S   S2        1.0  0.98600  0.36600  0.09090  1.0000
  S   S3        1.0  0.35500  0.70900  0.09610  1.0000
  S   S4        1.0  0.07370  0.14000  0.33000  1.0000
  S   S5        1.0  0.92600  0.86000  0.67000  1.0000
  S   S6        1.0  0.64500  0.29100  0.90400  1.0000
  S   S7        1.0  0.01410  0.63400  0.90900  1.0000
  S   S8        1.0  0.31300  0.93200  0.91300  1.0000
  Sb  Sb1       1.0  0.70400  0.42900  0.21700  1.0000
  Sb  Sb2       1.0  0.06940  0.79800  0.23600  1.0000
  Sb  Sb3       1.0  0.35600  0.09420  0.24200  1.0000
  Sb  Sb4       1.0  0.64400  0.90600  0.75800  1.0000
  Sb  Sb5       1.0  0.93100  0.20200  0.76400  1.0000
  Sb  Sb6       1.0  0.29600  0.57100  0.78300  1.0000
