data_image0
_chemical_formula_structural       Cu4Ho4K2S9
_chemical_formula_sum              "Cu4 Ho4 K2 S9"
_cell_length_a       3.92518
_cell_length_b       7.13155
_cell_length_c       15.1012
_cell_angle_alpha    93.4203
_cell_angle_beta     97.4675
_cell_angle_gamma    105.974

_space_group_name_H-M_alt    "P 1"
_space_group_IT_number       1

loop_
  _space_group_symop_operation_xyz
  'x, y, z'

loop_
  _atom_site_type_symbol
  _atom_site_label
  _atom_site_symmetry_multiplicity
  _atom_site_fract_x
  _atom_site_fract_y
  _atom_site_fract_z
  _atom_site_occupancy
  Cu  Cu1       1.0  0.98300  0.73700  0.22800  1.0000
  Cu  Cu2       1.0  0.89000  0.32200  0.45800  1.0000
  Cu  Cu3       1.0  0.11000  0.67800  0.54200  1.0000
  Cu  Cu4       1.0  0.01730  0.26300  0.77200  1.0000
  Ho  Ho1       1.0  0.40000  0.74500  0.05430  1.0000
  Ho  Ho2       1.0  0.62800  0.86200  0.39500  1.0000
  Ho  Ho3       1.0  0.37200  0.13800  0.60500  1.0000
  Ho  Ho4       1.0  0.60000  0.25500  0.94600  1.0000
  K   K1        1.0  0.25900  0.28800  0.23000  1.0000
  K   K2        1.0  0.74100  0.71200  0.77000  1.0000
  S   S1        1.0  0.00000  0.00000  0.00000  1.0000
  S   S2        1.0  0.80300  0.50400  0.10300  1.0000
  S   S3        1.0  0.57200  0.92200  0.22100  1.0000
  S   S4        1.0  0.98200  0.59200  0.37300  1.0000
  S   S5        1.0  0.28600  0.14800  0.42400  1.0000
  S   S6        1.0  0.71400  0.85200  0.57600  1.0000
  S   S7        1.0  0.01760  0.40800  0.62700  1.0000
  S   S8        1.0  0.42800  0.07780  0.77900  1.0000
  S   S9        1.0  0.19700  0.49600  0.89700  1.0000
