data_image0
_chemical_formula_structural       In6O12Te
_chemical_formula_sum              "In6 O12 Te1"
_cell_length_a       6.25764
_cell_length_b       6.25764
_cell_length_c       6.25764
_cell_angle_alpha    98.7235
_cell_angle_beta     98.7235
_cell_angle_gamma    98.7235

_space_group_name_H-M_alt    "P 1"
_space_group_IT_number       1

loop_
  _space_group_symop_operation_xyz
  'x, y, z'

loop_
  _atom_site_type_symbol
  _atom_site_label
  _atom_site_symmetry_multiplicity
  _atom_site_fract_x
  _atom_site_fract_y
  _atom_site_fract_z
  _atom_site_occupancy
  In  In1       1.0  0.31700  0.60700  0.14000  1.0000
  In  In2       1.0  0.60700  0.14000  0.31700  1.0000
  In  In3       1.0  0.86000  0.68300  0.39300  1.0000
  In  In4       1.0  0.14000  0.31700  0.60700  1.0000
  In  In5       1.0  0.39300  0.86000  0.68300  1.0000
  In  In6       1.0  0.68300  0.39300  0.86000  1.0000
  O   O1        1.0  0.91600  0.69700  0.03960  1.0000
  O   O2        1.0  0.30300  0.96000  0.08400  1.0000
  O   O3        1.0  0.59400  0.42000  0.17600  1.0000
  O   O4        1.0  0.96000  0.08400  0.30300  1.0000
  O   O5        1.0  0.58000  0.82400  0.40600  1.0000
  O   O6        1.0  0.17600  0.59400  0.42000  1.0000
  O   O7        1.0  0.82400  0.40600  0.58000  1.0000
  O   O8        1.0  0.42000  0.17600  0.59400  1.0000
  O   O9        1.0  0.03960  0.91600  0.69700  1.0000
  O   O10       1.0  0.40600  0.58000  0.82400  1.0000
  O   O11       1.0  0.69700  0.03960  0.91600  1.0000
  O   O12       1.0  0.08400  0.30300  0.96000  1.0000
  Te  Te1       1.0  0.00000  0.00000  0.00000  1.0000
