data_image0
_chemical_formula_structural       Fe2O12Se4Sr
_chemical_formula_sum              "Fe2 O12 Se4 Sr1"
_cell_length_a       7.17341
_cell_length_b       5.37586
_cell_length_c       6.97744
_cell_angle_alpha    90
_cell_angle_beta     92.5424
_cell_angle_gamma    90

_space_group_name_H-M_alt    "P 1"
_space_group_IT_number       1

loop_
  _space_group_symop_operation_xyz
  'x, y, z'

loop_
  _atom_site_type_symbol
  _atom_site_label
  _atom_site_symmetry_multiplicity
  _atom_site_fract_x
  _atom_site_fract_y
  _atom_site_fract_z
  _atom_site_occupancy
  Fe  Fe1       1.0  0.50000  0.00000  1.00000  1.0000
  Fe  Fe2       1.0  0.00000  0.50000  0.50000  1.0000
  O   O1        1.0  0.24200  0.00000  0.09990  1.0000
  O   O2        1.0  0.59200  0.26400  0.18500  1.0000
  O   O3        1.0  0.59200  0.73600  0.18500  1.0000
  O   O4        1.0  0.92400  0.50000  0.21900  1.0000
  O   O5        1.0  0.19500  0.24500  0.43300  1.0000
  O   O6        1.0  0.19500  0.75500  0.43300  1.0000
  O   O7        1.0  0.80500  0.24500  0.56700  1.0000
  O   O8        1.0  0.80500  0.75500  0.56700  1.0000
  O   O9        1.0  0.07590  0.50000  0.78100  1.0000
  O   O10       1.0  0.40800  0.26400  0.81500  1.0000
  O   O11       1.0  0.40800  0.73600  0.81500  1.0000
  O   O12       1.0  0.75800  0.00000  0.90000  1.0000
  Se  Se1       1.0  0.72200  0.50000  0.08030  1.0000
  Se  Se2       1.0  0.10500  0.00000  0.29300  1.0000
  Se  Se3       1.0  0.89500  0.00000  0.70700  1.0000
  Se  Se4       1.0  0.27800  0.50000  0.92000  1.0000
  Sr  Sr1       1.0  0.50000  0.50000  0.50000  1.0000
