data_image0
_chemical_formula_structural       FeMn2N8Sr8
_chemical_formula_sum              "Fe1 Mn2 N8 Sr8"
_cell_length_a       5.30238
_cell_length_b       7.50255
_cell_length_c       9.72554
_cell_angle_alpha    105.425
_cell_angle_beta     105.819
_cell_angle_gamma    90

_space_group_name_H-M_alt    "P 1"
_space_group_IT_number       1

loop_
  _space_group_symop_operation_xyz
  'x, y, z'

loop_
  _atom_site_type_symbol
  _atom_site_label
  _atom_site_symmetry_multiplicity
  _atom_site_fract_x
  _atom_site_fract_y
  _atom_site_fract_z
  _atom_site_occupancy
  Fe  Fe1       1.0  0.50000  0.50000  0.00000  1.0000
  Mn  Mn1       1.0  0.18800  0.20500  0.37500  1.0000
  Mn  Mn2       1.0  0.81200  0.79500  0.62500  1.0000
  N   N1        1.0  0.52500  0.28100  0.05050  1.0000
  N   N2        1.0  0.10700  0.01370  0.21400  1.0000
  N   N3        1.0  0.17800  0.42800  0.35500  1.0000
  N   N4        1.0  0.72400  0.82900  0.44700  1.0000
  N   N5        1.0  0.27600  0.17100  0.55300  1.0000
  N   N6        1.0  0.82200  0.57200  0.64500  1.0000
  N   N7        1.0  0.89300  0.98600  0.78600  1.0000
  N   N8        1.0  0.47500  0.71900  0.95000  1.0000
  Sr  Sr1       1.0  0.02860  0.26000  0.05710  1.0000
  Sr  Sr2       1.0  0.59600  0.96700  0.19300  1.0000
  Sr  Sr3       1.0  0.66700  0.46600  0.33400  1.0000
  Sr  Sr4       1.0  0.19900  0.80500  0.39900  1.0000
  Sr  Sr5       1.0  0.80100  0.19500  0.60100  1.0000
  Sr  Sr6       1.0  0.33300  0.53400  0.66600  1.0000
  Sr  Sr7       1.0  0.40400  0.03340  0.80700  1.0000
  Sr  Sr8       1.0  0.97100  0.74000  0.94300  1.0000
