data_image0
_chemical_formula_structural       La6O12U
_chemical_formula_sum              "La6 O12 U1"
_cell_length_a       6.87326
_cell_length_b       6.87326
_cell_length_c       6.87326
_cell_angle_alpha    98.6871
_cell_angle_beta     98.6871
_cell_angle_gamma    98.6871

_space_group_name_H-M_alt    "P 1"
_space_group_IT_number       1

loop_
  _space_group_symop_operation_xyz
  'x, y, z'

loop_
  _atom_site_type_symbol
  _atom_site_label
  _atom_site_symmetry_multiplicity
  _atom_site_fract_x
  _atom_site_fract_y
  _atom_site_fract_z
  _atom_site_occupancy
  La  La1       1.0  0.31000  0.60600  0.14400  1.0000
  La  La2       1.0  0.60600  0.14400  0.31000  1.0000
  La  La3       1.0  0.85600  0.69000  0.39400  1.0000
  La  La4       1.0  0.14400  0.31000  0.60600  1.0000
  La  La5       1.0  0.39400  0.85600  0.69000  1.0000
  La  La6       1.0  0.69000  0.39400  0.85600  1.0000
  O   O1        1.0  0.93100  0.70100  0.04350  1.0000
  O   O2        1.0  0.29900  0.95700  0.06880  1.0000
  O   O3        1.0  0.59200  0.43800  0.17700  1.0000
  O   O4        1.0  0.95700  0.06880  0.29900  1.0000
  O   O5        1.0  0.56200  0.82300  0.40800  1.0000
  O   O6        1.0  0.17700  0.59200  0.43800  1.0000
  O   O7        1.0  0.82300  0.40800  0.56200  1.0000
  O   O8        1.0  0.43800  0.17700  0.59200  1.0000
  O   O9        1.0  0.04350  0.93100  0.70100  1.0000
  O   O10       1.0  0.40800  0.56200  0.82300  1.0000
  O   O11       1.0  0.70100  0.04350  0.93100  1.0000
  O   O12       1.0  0.06880  0.29900  0.95700  1.0000
  U   U1        1.0  0.00000  0.00000  0.00000  1.0000
