data_image0
_chemical_formula_structural       CuGe4O12Yb2
_chemical_formula_sum              "Cu1 Ge4 O12 Yb2"
_cell_length_a       7.09378
_cell_length_b       7.81221
_cell_length_c       4.81768
_cell_angle_alpha    87.158
_cell_angle_beta     102.954
_cell_angle_gamma    112.892

_space_group_name_H-M_alt    "P 1"
_space_group_IT_number       1

loop_
  _space_group_symop_operation_xyz
  'x, y, z'

loop_
  _atom_site_type_symbol
  _atom_site_label
  _atom_site_symmetry_multiplicity
  _atom_site_fract_x
  _atom_site_fract_y
  _atom_site_fract_z
  _atom_site_occupancy
  Cu  Cu1       1.0  0.00000  0.00000  0.00000  1.0000
  Ge  Ge1       1.0  0.62800  0.80400  0.40800  1.0000
  Ge  Ge2       1.0  0.83300  0.22600  0.46500  1.0000
  Ge  Ge3       1.0  0.16700  0.77400  0.53500  1.0000
  Ge  Ge4       1.0  0.37200  0.19600  0.59200  1.0000
  O   O1        1.0  0.23600  0.17300  0.23200  1.0000
  O   O2        1.0  0.71300  0.01930  0.23900  1.0000
  O   O3        1.0  0.98100  0.80600  0.24200  1.0000
  O   O4        1.0  0.94300  0.40200  0.24700  1.0000
  O   O5        1.0  0.59800  0.59500  0.25900  1.0000
  O   O6        1.0  0.35000  0.73700  0.37300  1.0000
  O   O7        1.0  0.65000  0.26300  0.62700  1.0000
  O   O8        1.0  0.40200  0.40500  0.74100  1.0000
  O   O9        1.0  0.05710  0.59800  0.75300  1.0000
  O   O10       1.0  0.01940  0.19400  0.75800  1.0000
  O   O11       1.0  0.28700  0.98100  0.76100  1.0000
  O   O12       1.0  0.76400  0.82700  0.76800  1.0000
  Yb  Yb1       1.0  0.23900  0.45700  0.07300  1.0000
  Yb  Yb2       1.0  0.76100  0.54300  0.92700  1.0000
