data_image0
_chemical_formula_structural       Ag6O8
_chemical_formula_sum              "Ag6 O8"
_cell_length_a       3.55201
_cell_length_b       9.30434
_cell_length_c       5.70183
_cell_angle_alpha    90
_cell_angle_beta     105.44
_cell_angle_gamma    90

_space_group_name_H-M_alt    "P 1"
_space_group_IT_number       1

loop_
  _space_group_symop_operation_xyz
  'x, y, z'

loop_
  _atom_site_type_symbol
  _atom_site_label
  _atom_site_symmetry_multiplicity
  _atom_site_fract_x
  _atom_site_fract_y
  _atom_site_fract_z
  _atom_site_occupancy
  Ag  Ag1       1.0  0.00000  0.00000  0.00000  1.0000
  Ag  Ag2       1.0  0.28200  0.64200  0.04580  1.0000
  Ag  Ag3       1.0  0.71800  0.14200  0.45400  1.0000
  Ag  Ag4       1.0  0.00000  0.50000  0.50000  1.0000
  Ag  Ag5       1.0  0.28200  0.85800  0.54600  1.0000
  Ag  Ag6       1.0  0.71800  0.35800  0.95400  1.0000
  O   O1        1.0  0.97400  0.19100  0.17700  1.0000
  O   O2        1.0  0.50600  0.45200  0.22700  1.0000
  O   O3        1.0  0.49400  0.95200  0.27300  1.0000
  O   O4        1.0  0.02590  0.69100  0.32300  1.0000
  O   O5        1.0  0.97400  0.30900  0.67700  1.0000
  O   O6        1.0  0.50600  0.04830  0.72700  1.0000
  O   O7        1.0  0.49400  0.54800  0.77300  1.0000
  O   O8        1.0  0.02590  0.80900  0.82300  1.0000
