data_image0
_chemical_formula_structural       B6Ir8Zn2
_chemical_formula_sum              "B6 Ir8 Zn2"
_cell_length_a       2.81087
_cell_length_b       23.5074
_cell_length_c       2.84097
_cell_angle_alpha    90
_cell_angle_beta     90
_cell_angle_gamma    90

_space_group_name_H-M_alt    "P 1"
_space_group_IT_number       1

loop_
  _space_group_symop_operation_xyz
  'x, y, z'

loop_
  _atom_site_type_symbol
  _atom_site_label
  _atom_site_symmetry_multiplicity
  _atom_site_fract_x
  _atom_site_fract_y
  _atom_site_fract_z
  _atom_site_occupancy
  B   B1        1.0  0.00000  0.12100  0.00000  1.0000
  B   B2        1.0  0.50000  0.37600  0.00000  1.0000
  B   B3        1.0  0.50000  0.62400  0.00000  1.0000
  B   B4        1.0  0.00000  0.87900  0.00000  1.0000
  B   B5        1.0  0.00000  0.23900  0.50000  1.0000
  B   B6        1.0  0.00000  0.76100  0.50000  1.0000
  Ir  Ir1       1.0  0.50000  0.19600  0.00000  1.0000
  Ir  Ir2       1.0  0.00000  0.30600  0.00000  1.0000
  Ir  Ir3       1.0  0.00000  0.69400  0.00000  1.0000
  Ir  Ir4       1.0  0.50000  0.80400  0.00000  1.0000
  Ir  Ir5       1.0  0.50000  0.08370  0.50000  1.0000
  Ir  Ir6       1.0  0.00000  0.41600  0.50000  1.0000
  Ir  Ir7       1.0  0.00000  0.58400  0.50000  1.0000
  Ir  Ir8       1.0  0.50000  0.91600  0.50000  1.0000
  Zn  Zn1       1.0  0.00000  0.00000  0.00000  1.0000
  Zn  Zn2       1.0  0.50000  0.50000  0.00000  1.0000
