data_image0
_chemical_formula_structural       CuDy2Ge4O12
_chemical_formula_sum              "Cu1 Dy2 Ge4 O12"
_cell_length_a       7.17237
_cell_length_b       7.91908
_cell_length_c       4.88476
_cell_angle_alpha    87.2135
_cell_angle_beta     102.405
_cell_angle_gamma    113.35

_space_group_name_H-M_alt    "P 1"
_space_group_IT_number       1

loop_
  _space_group_symop_operation_xyz
  'x, y, z'

loop_
  _atom_site_type_symbol
  _atom_site_label
  _atom_site_symmetry_multiplicity
  _atom_site_fract_x
  _atom_site_fract_y
  _atom_site_fract_z
  _atom_site_occupancy
  Cu  Cu1       1.0  0.00000  0.00000  0.00000  1.0000
  Dy  Dy1       1.0  0.23200  0.45300  0.04980  1.0000
  Dy  Dy2       1.0  0.76800  0.54700  0.95000  1.0000
  Ge  Ge1       1.0  0.62000  0.79600  0.41700  1.0000
  Ge  Ge2       1.0  0.83300  0.22100  0.45800  1.0000
  Ge  Ge3       1.0  0.16700  0.77900  0.54200  1.0000
  Ge  Ge4       1.0  0.38000  0.20400  0.58300  1.0000
  O   O1        1.0  0.57800  0.60200  0.22200  1.0000
  O   O2        1.0  0.93500  0.39000  0.22500  1.0000
  O   O3        1.0  0.22600  0.19000  0.25000  1.0000
  O   O4        1.0  0.98800  0.79900  0.25100  1.0000
  O   O5        1.0  0.69500  0.01050  0.25300  1.0000
  O   O6        1.0  0.34400  0.71400  0.40900  1.0000
  O   O7        1.0  0.65600  0.28600  0.59100  1.0000
  O   O8        1.0  0.30500  0.98900  0.74700  1.0000
  O   O9        1.0  0.01190  0.20100  0.74900  1.0000
  O   O10       1.0  0.77400  0.81000  0.75000  1.0000
  O   O11       1.0  0.06540  0.61000  0.77500  1.0000
  O   O12       1.0  0.42200  0.39800  0.77800  1.0000
