data_image0
_chemical_formula_structural       CuGe4Ho2O12
_chemical_formula_sum              "Cu1 Ge4 Ho2 O12"
_cell_length_a       7.132
_cell_length_b       7.87987
_cell_length_c       4.88609
_cell_angle_alpha    87.3524
_cell_angle_beta     102.514
_cell_angle_gamma    113.104

_space_group_name_H-M_alt    "P 1"
_space_group_IT_number       1

loop_
  _space_group_symop_operation_xyz
  'x, y, z'

loop_
  _atom_site_type_symbol
  _atom_site_label
  _atom_site_symmetry_multiplicity
  _atom_site_fract_x
  _atom_site_fract_y
  _atom_site_fract_z
  _atom_site_occupancy
  Cu  Cu1       1.0  0.00000  0.00000  0.00000  1.0000
  Ge  Ge1       1.0  0.62200  0.79700  0.41400  1.0000
  Ge  Ge2       1.0  0.83400  0.22300  0.45900  1.0000
  Ge  Ge3       1.0  0.16600  0.77700  0.54100  1.0000
  Ge  Ge4       1.0  0.37800  0.20300  0.58600  1.0000
  Ho  Ho1       1.0  0.23200  0.45300  0.05160  1.0000
  Ho  Ho2       1.0  0.76800  0.54700  0.94800  1.0000
  O   O1        1.0  0.57800  0.60100  0.22000  1.0000
  O   O2        1.0  0.93500  0.39200  0.22600  1.0000
  O   O3        1.0  0.98700  0.79800  0.25100  1.0000
  O   O4        1.0  0.22400  0.19000  0.25200  1.0000
  O   O5        1.0  0.69400  0.01170  0.25300  1.0000
  O   O6        1.0  0.34400  0.71400  0.40700  1.0000
  O   O7        1.0  0.65600  0.28600  0.59300  1.0000
  O   O8        1.0  0.30600  0.98800  0.74700  1.0000
  O   O9        1.0  0.77600  0.81000  0.74800  1.0000
  O   O10       1.0  0.01350  0.20200  0.74900  1.0000
  O   O11       1.0  0.06520  0.60800  0.77400  1.0000
  O   O12       1.0  0.42200  0.39900  0.78000  1.0000
