data_image0
_chemical_formula_structural       Cu4Dy4K2Se9
_chemical_formula_sum              "Cu4 Dy4 K2 Se9"
_cell_length_a       4.10911
_cell_length_b       7.44491
_cell_length_c       15.79
_cell_angle_alpha    93.8045
_cell_angle_beta     97.4764
_cell_angle_gamma    106.02

_space_group_name_H-M_alt    "P 1"
_space_group_IT_number       1

loop_
  _space_group_symop_operation_xyz
  'x, y, z'

loop_
  _atom_site_type_symbol
  _atom_site_label
  _atom_site_symmetry_multiplicity
  _atom_site_fract_x
  _atom_site_fract_y
  _atom_site_fract_z
  _atom_site_occupancy
  Cu  Cu1       1.0  0.60400  0.18000  0.02870  1.0000
  Cu  Cu2       1.0  0.51200  0.75200  0.27100  1.0000
  Cu  Cu3       1.0  0.48800  0.24800  0.72900  1.0000
  Cu  Cu4       1.0  0.39600  0.82000  0.97100  1.0000
  Dy  Dy1       1.0  0.87100  0.63900  0.10300  1.0000
  Dy  Dy2       1.0  0.09880  0.75400  0.44400  1.0000
  Dy  Dy3       1.0  0.90100  0.24600  0.55600  1.0000
  Dy  Dy4       1.0  0.12900  0.36100  0.89700  1.0000
  K   K1        1.0  0.23700  0.20400  0.26900  1.0000
  K   K2        1.0  0.76300  0.79600  0.73100  1.0000
  Se  Se1       1.0  0.21300  0.34800  0.07800  1.0000
  Se  Se2       1.0  0.52300  0.91600  0.13000  1.0000
  Se  Se3       1.0  0.92100  0.56600  0.27700  1.0000
  Se  Se4       1.0  0.69700  0.99900  0.39600  1.0000
  Se  Se5       1.0  0.50000  0.50000  0.50000  1.0000
  Se  Se6       1.0  0.30300  0.00137  0.60400  1.0000
  Se  Se7       1.0  0.07860  0.43400  0.72300  1.0000
  Se  Se8       1.0  0.47700  0.08450  0.87000  1.0000
  Se  Se9       1.0  0.78700  0.65200  0.92200  1.0000
