data_image0
_chemical_formula_structural       LiS6Ti3
_chemical_formula_sum              "Li1 S6 Ti3"
_cell_length_a       3.40389
_cell_length_b       3.40389
_cell_length_c       21.1456
_cell_angle_alpha    90
_cell_angle_beta     90.0017
_cell_angle_gamma    120

_space_group_name_H-M_alt    "P 1"
_space_group_IT_number       1

loop_
  _space_group_symop_operation_xyz
  'x, y, z'

loop_
  _atom_site_type_symbol
  _atom_site_label
  _atom_site_symmetry_multiplicity
  _atom_site_fract_x
  _atom_site_fract_y
  _atom_site_fract_z
  _atom_site_occupancy
  Li  Li1       1.0  1.00000  0.00000  0.50000  1.0000
  S   S1        1.0  0.33300  0.66700  0.06720  1.0000
  S   S2        1.0  0.66700  0.33300  0.28600  1.0000
  S   S3        1.0  0.33300  0.66700  0.42300  1.0000
  S   S4        1.0  0.66700  0.33300  0.57700  1.0000
  S   S5        1.0  0.33300  0.66700  0.71400  1.0000
  S   S6        1.0  0.66700  0.33300  0.93300  1.0000
  Ti  Ti1       1.0  0.00000  0.00000  0.00000  1.0000
  Ti  Ti2       1.0  0.00000  1.00000  0.35200  1.0000
  Ti  Ti3       1.0  0.00002  0.00001  0.64800  1.0000
