data_image0
_chemical_formula_structural       I12K4Pt2
_chemical_formula_sum              "I12 K4 Pt2"
_cell_length_a       7.82012
_cell_length_b       7.82012
_cell_length_c       11.8655
_cell_angle_alpha    90
_cell_angle_beta     90
_cell_angle_gamma    90

_space_group_name_H-M_alt    "P 1"
_space_group_IT_number       1

loop_
  _space_group_symop_operation_xyz
  'x, y, z'

loop_
  _atom_site_type_symbol
  _atom_site_label
  _atom_site_symmetry_multiplicity
  _atom_site_fract_x
  _atom_site_fract_y
  _atom_site_fract_z
  _atom_site_occupancy
  I   I1        1.0  0.71100  0.19300  0.00000  1.0000
  I   I2        1.0  0.19300  0.28900  0.00000  1.0000
  I   I3        1.0  0.80700  0.71100  0.00000  1.0000
  I   I4        1.0  0.28900  0.80700  0.00000  1.0000
  I   I5        1.0  0.00000  0.00000  0.22900  1.0000
  I   I6        1.0  0.50000  0.50000  0.27100  1.0000
  I   I7        1.0  0.69300  0.21100  0.50000  1.0000
  I   I8        1.0  0.21100  0.30700  0.50000  1.0000
  I   I9        1.0  0.78900  0.69300  0.50000  1.0000
  I   I10       1.0  0.30700  0.78900  0.50000  1.0000
  I   I11       1.0  0.50000  0.50000  0.72900  1.0000
  I   I12       1.0  0.00000  0.00000  0.77100  1.0000
  K   K1        1.0  0.50000  0.00000  0.25000  1.0000
  K   K2        1.0  0.00000  0.50000  0.25000  1.0000
  K   K3        1.0  0.50000  0.00000  0.75000  1.0000
  K   K4        1.0  0.00000  0.50000  0.75000  1.0000
  Pt  Pt1       1.0  0.00000  0.00000  0.00000  1.0000
  Pt  Pt2       1.0  0.50000  0.50000  0.50000  1.0000
