data_image0
_chemical_formula_structural       Br4O12Sr2
_chemical_formula_sum              "Br4 O12 Sr2"
_cell_length_a       7.31831
_cell_length_b       6.85694
_cell_length_c       6.85694
_cell_angle_alpha    113.982
_cell_angle_beta     105.576
_cell_angle_gamma    105.576

_space_group_name_H-M_alt    "P 1"
_space_group_IT_number       1

loop_
  _space_group_symop_operation_xyz
  'x, y, z'

loop_
  _atom_site_type_symbol
  _atom_site_label
  _atom_site_symmetry_multiplicity
  _atom_site_fract_x
  _atom_site_fract_y
  _atom_site_fract_z
  _atom_site_occupancy
  Br  Br1       1.0  0.97500  0.97800  0.09660  1.0000
  Br  Br2       1.0  0.55600  0.78700  0.41000  1.0000
  Br  Br3       1.0  0.05600  0.41000  0.78700  1.0000
  Br  Br4       1.0  0.47500  0.09660  0.97800  1.0000
  O   O1        1.0  0.73600  0.78100  0.02250  1.0000
  O   O2        1.0  0.07680  0.61100  0.04390  1.0000
  O   O3        1.0  0.60500  0.38100  0.05290  1.0000
  O   O4        1.0  0.93500  0.21100  0.11200  1.0000
  O   O5        1.0  0.43500  0.11200  0.21100  1.0000
  O   O6        1.0  0.10500  0.05290  0.38100  1.0000
  O   O7        1.0  0.36600  0.58800  0.41500  1.0000
  O   O8        1.0  0.77300  0.77500  0.55500  1.0000
  O   O9        1.0  0.86600  0.41500  0.58800  1.0000
  O   O10       1.0  0.57700  0.04390  0.61100  1.0000
  O   O11       1.0  0.27300  0.55500  0.77500  1.0000
  O   O12       1.0  0.23600  0.02250  0.78100  1.0000
  Sr  Sr1       1.0  0.01090  0.63400  0.38700  1.0000
  Sr  Sr2       1.0  0.51100  0.38700  0.63400  1.0000
