data_image0
_chemical_formula_structural       Br7La8Ni4
_chemical_formula_sum              "Br7 La8 Ni4"
_cell_length_a       4.02452
_cell_length_b       8.74483
_cell_length_c       14.9643
_cell_angle_alpha    94.2104
_cell_angle_beta     97.728
_cell_angle_gamma    90

_space_group_name_H-M_alt    "P 1"
_space_group_IT_number       1

loop_
  _space_group_symop_operation_xyz
  'x, y, z'

loop_
  _atom_site_type_symbol
  _atom_site_label
  _atom_site_symmetry_multiplicity
  _atom_site_fract_x
  _atom_site_fract_y
  _atom_site_fract_z
  _atom_site_occupancy
  Br  Br1       1.0  0.50000  0.50000  0.00000  1.0000
  Br  Br2       1.0  0.10400  0.64600  0.20700  1.0000
  Br  Br3       1.0  0.69800  0.48500  0.39700  1.0000
  Br  Br4       1.0  0.21200  0.86800  0.42500  1.0000
  Br  Br5       1.0  0.78800  0.13200  0.57500  1.0000
  Br  Br6       1.0  0.30200  0.51500  0.60300  1.0000
  Br  Br7       1.0  0.89600  0.35400  0.79300  1.0000
  La  La1       1.0  0.01250  0.81000  0.02490  1.0000
  La  La2       1.0  0.59800  0.35000  0.19600  1.0000
  La  La3       1.0  0.62600  0.93900  0.25300  1.0000
  La  La4       1.0  0.21000  0.22400  0.42100  1.0000
  La  La5       1.0  0.79000  0.77600  0.57900  1.0000
  La  La6       1.0  0.37400  0.06140  0.74700  1.0000
  La  La7       1.0  0.40200  0.65000  0.80400  1.0000
  La  La8       1.0  0.98800  0.19000  0.97500  1.0000
  Ni  Ni1       1.0  0.54100  0.05420  0.08230  1.0000
  Ni  Ni2       1.0  0.10100  0.13500  0.20100  1.0000
  Ni  Ni3       1.0  0.89900  0.86500  0.79900  1.0000
  Ni  Ni4       1.0  0.45900  0.94600  0.91800  1.0000
