data_image0
_chemical_formula_structural       C2Cl10Sc7
_chemical_formula_sum              "C2 Cl10 Sc7"
_cell_length_a       3.5104
_cell_length_b       9.68041
_cell_length_c       12.0188
_cell_angle_alpha    100.208
_cell_angle_beta     90
_cell_angle_gamma    100.446

_space_group_name_H-M_alt    "P 1"
_space_group_IT_number       1

loop_
  _space_group_symop_operation_xyz
  'x, y, z'

loop_
  _atom_site_type_symbol
  _atom_site_label
  _atom_site_symmetry_multiplicity
  _atom_site_fract_x
  _atom_site_fract_y
  _atom_site_fract_z
  _atom_site_occupancy
  C   C1        1.0  0.26000  0.52100  0.37600  1.0000
  C   C2        1.0  0.74000  0.47900  0.62400  1.0000
  Cl  Cl1       1.0  0.45300  0.90700  0.12000  1.0000
  Cl  Cl2       1.0  0.78600  0.57200  0.13000  1.0000
  Cl  Cl3       1.0  0.12200  0.24500  0.13400  1.0000
  Cl  Cl4       1.0  0.92500  0.85000  0.37500  1.0000
  Cl  Cl5       1.0  0.59800  0.19600  0.38500  1.0000
  Cl  Cl6       1.0  0.40200  0.80400  0.61500  1.0000
  Cl  Cl7       1.0  0.07520  0.15000  0.62500  1.0000
  Cl  Cl8       1.0  0.87800  0.75500  0.86600  1.0000
  Cl  Cl9       1.0  0.21400  0.42800  0.87000  1.0000
  Cl  Cl10      1.0  0.54700  0.09300  0.88000  1.0000
  Sc  Sc1       1.0  0.00000  0.00000  0.00000  1.0000
  Sc  Sc2       1.0  0.34300  0.68500  0.27200  1.0000
  Sc  Sc3       1.0  0.70000  0.40000  0.27900  1.0000
  Sc  Sc4       1.0  0.81800  0.63500  0.49300  1.0000
  Sc  Sc5       1.0  0.18200  0.36500  0.50700  1.0000
  Sc  Sc6       1.0  0.30000  0.60000  0.72100  1.0000
  Sc  Sc7       1.0  0.65700  0.31500  0.72800  1.0000
