data_image0
_chemical_formula_structural       As2
_chemical_formula_sum              "As2"
_cell_length_a       4.13061
_cell_length_b       4.13061
_cell_length_c       4.13061
_cell_angle_alpha    55.1918
_cell_angle_beta     55.1918
_cell_angle_gamma    55.1918

_space_group_name_H-M_alt    "P 1"
_space_group_IT_number       1

loop_
  _space_group_symop_operation_xyz
  'x, y, z'

loop_
  _atom_site_type_symbol
  _atom_site_label
  _atom_site_symmetry_multiplicity
  _atom_site_fract_x
  _atom_site_fract_y
  _atom_site_fract_z
  _atom_site_occupancy
  As  As1       1.0  0.22800  0.22800  0.22800  1.0000
  As  As2       1.0  0.77200  0.77200  0.77200  1.0000
