data_image0
_chemical_formula_structural       F15PrZr3
_chemical_formula_sum              "F15 Pr1 Zr3"
_cell_length_a       5.9899
_cell_length_b       7.31028
_cell_length_c       7.31028
_cell_angle_alpha    112.843
_cell_angle_beta     105.845
_cell_angle_gamma    105.845

_space_group_name_H-M_alt    "P 1"
_space_group_IT_number       1

loop_
  _space_group_symop_operation_xyz
  'x, y, z'

loop_
  _atom_site_type_symbol
  _atom_site_label
  _atom_site_symmetry_multiplicity
  _atom_site_fract_x
  _atom_site_fract_y
  _atom_site_fract_z
  _atom_site_occupancy
  F   F1        1.0  0.34900  0.25700  1.00000  1.0000
  F   F2        1.0  0.87500  0.21100  0.00002  1.0000
  F   F3        1.0  0.42600  0.65800  0.00004  1.0000
  F   F4        1.0  0.04190  0.66600  0.21000  1.0000
  F   F5        1.0  0.87500  0.00002  0.21100  1.0000
  F   F6        1.0  0.34900  0.00000  0.25700  1.0000
  F   F7        1.0  0.37600  0.54300  0.33400  1.0000
  F   F8        1.0  0.76800  0.34200  0.34200  1.0000
  F   F9        1.0  0.83200  0.79000  0.45700  1.0000
  F   F10       1.0  0.37600  0.33400  0.54300  1.0000
  F   F11       1.0  0.42600  0.00004  0.65800  1.0000
  F   F12       1.0  0.04190  0.21000  0.66600  1.0000
  F   F13       1.0  0.09150  0.74300  0.74300  1.0000
  F   F14       1.0  0.66400  0.78900  0.78900  1.0000
  F   F15       1.0  0.83200  0.45700  0.79000  1.0000
  Pr  Pr1       1.0  0.50700  0.00002  0.00002  1.0000
  Zr  Zr1       1.0  0.14100  0.43900  0.00001  1.0000
  Zr  Zr2       1.0  0.14100  0.00001  0.43900  1.0000
  Zr  Zr3       1.0  0.70100  0.56100  0.56100  1.0000
