data_image0
_chemical_formula_structural       Ag2F14ZnZr2
_chemical_formula_sum              "Ag2 F14 Zn1 Zr2"
_cell_length_a       5.41219
_cell_length_b       5.41219
_cell_length_c       8.801
_cell_angle_alpha    91.1663
_cell_angle_beta     91.1663
_cell_angle_gamma    74.4522

_space_group_name_H-M_alt    "P 1"
_space_group_IT_number       1

loop_
  _space_group_symop_operation_xyz
  'x, y, z'

loop_
  _atom_site_type_symbol
  _atom_site_label
  _atom_site_symmetry_multiplicity
  _atom_site_fract_x
  _atom_site_fract_y
  _atom_site_fract_z
  _atom_site_occupancy
  Ag  Ag1       1.0  0.69500  0.69500  0.38300  1.0000
  Ag  Ag2       1.0  0.30500  0.30500  0.61700  1.0000
  F   F1        1.0  0.00000  0.00000  0.00000  1.0000
  F   F2        1.0  0.84500  0.43700  0.11500  1.0000
  F   F3        1.0  0.43700  0.84500  0.11500  1.0000
  F   F4        1.0  0.36400  0.36400  0.18100  1.0000
  F   F5        1.0  0.90600  0.90600  0.27000  1.0000
  F   F6        1.0  0.98100  0.34300  0.39300  1.0000
  F   F7        1.0  0.34300  0.98100  0.39300  1.0000
  F   F8        1.0  0.50000  0.50000  0.50000  1.0000
  F   F9        1.0  0.65700  0.01920  0.60700  1.0000
  F   F10       1.0  0.01920  0.65700  0.60700  1.0000
  F   F11       1.0  0.09450  0.09450  0.73000  1.0000
  F   F12       1.0  0.63600  0.63600  0.81900  1.0000
  F   F13       1.0  0.56300  0.15500  0.88500  1.0000
  F   F14       1.0  0.15500  0.56300  0.88500  1.0000
  Zn  Zn1       1.0  0.50000  0.50000  0.00000  1.0000
  Zr  Zr1       1.0  0.12800  0.12800  0.20100  1.0000
  Zr  Zr2       1.0  0.87200  0.87200  0.79900  1.0000
