data_image0
_chemical_formula_structural       O12Pb2Se4
_chemical_formula_sum              "O12 Pb2 Se4"
_cell_length_a       4.79536
_cell_length_b       8.82408
_cell_length_c       6.97271
_cell_angle_alpha    90
_cell_angle_beta     108.769
_cell_angle_gamma    90

_space_group_name_H-M_alt    "P 1"
_space_group_IT_number       1

loop_
  _space_group_symop_operation_xyz
  'x, y, z'

loop_
  _atom_site_type_symbol
  _atom_site_label
  _atom_site_symmetry_multiplicity
  _atom_site_fract_x
  _atom_site_fract_y
  _atom_site_fract_z
  _atom_site_occupancy
  O   O1        1.0  0.86900  0.15600  0.08030  1.0000
  O   O2        1.0  0.77900  0.83900  0.21000  1.0000
  O   O3        1.0  0.58000  0.55400  0.21400  1.0000
  O   O4        1.0  0.42000  0.05450  0.28600  1.0000
  O   O5        1.0  0.22100  0.33900  0.29000  1.0000
  O   O6        1.0  0.13100  0.65600  0.42000  1.0000
  O   O7        1.0  0.86900  0.34400  0.58000  1.0000
  O   O8        1.0  0.77900  0.66100  0.71000  1.0000
  O   O9        1.0  0.58000  0.94600  0.71400  1.0000
  O   O10       1.0  0.42000  0.44600  0.78600  1.0000
  O   O11       1.0  0.22100  0.16100  0.79000  1.0000
  O   O12       1.0  0.13100  0.84400  0.92000  1.0000
  Pb  Pb1       1.0  0.50000  0.00000  0.00000  1.0000
  Pb  Pb2       1.0  0.50000  0.50000  0.50000  1.0000
  Se  Se1       1.0  0.87000  0.65200  0.17800  1.0000
  Se  Se2       1.0  0.13000  0.15200  0.32200  1.0000
  Se  Se3       1.0  0.87000  0.84800  0.67800  1.0000
  Se  Se4       1.0  0.13000  0.34800  0.82200  1.0000
