data_image0
_chemical_formula_structural       Hg5Mg
_chemical_formula_sum              "Hg5 Mg1"
_cell_length_a       3.49129
_cell_length_b       3.49129
_cell_length_c       13.9931
_cell_angle_alpha    90
_cell_angle_beta     90
_cell_angle_gamma    120

_space_group_name_H-M_alt    "P 1"
_space_group_IT_number       1

loop_
  _space_group_symop_operation_xyz
  'x, y, z'

loop_
  _atom_site_type_symbol
  _atom_site_label
  _atom_site_symmetry_multiplicity
  _atom_site_fract_x
  _atom_site_fract_y
  _atom_site_fract_z
  _atom_site_occupancy
  Hg  Hg1       1.0  0.66700  0.33300  0.15700  1.0000
  Hg  Hg2       1.0  0.00000  0.00000  0.33300  1.0000
  Hg  Hg3       1.0  0.66700  0.33300  0.51000  1.0000
  Hg  Hg4       1.0  0.00000  0.00000  0.68300  1.0000
  Hg  Hg5       1.0  0.00000  0.00000  0.98400  1.0000
  Mg  Mg1       1.0  0.66700  0.33300  0.83300  1.0000
