data_image0
_chemical_formula_structural       Ba2Fe4O10Y2
_chemical_formula_sum              "Ba2 Fe4 O10 Y2"
_cell_length_a       8.02507
_cell_length_b       3.88058
_cell_length_c       7.55451
_cell_angle_alpha    90
_cell_angle_beta     90
_cell_angle_gamma    90

_space_group_name_H-M_alt    "P 1"
_space_group_IT_number       1

loop_
  _space_group_symop_operation_xyz
  'x, y, z'

loop_
  _atom_site_type_symbol
  _atom_site_label
  _atom_site_symmetry_multiplicity
  _atom_site_fract_x
  _atom_site_fract_y
  _atom_site_fract_z
  _atom_site_occupancy
  Ba  Ba1       1.0  0.00000  0.00000  0.00000  1.0000
  Ba  Ba2       1.0  0.50000  0.00000  0.00000  1.0000
  Fe  Fe1       1.0  0.25000  0.50000  0.25400  1.0000
  Fe  Fe2       1.0  0.75000  0.50000  0.26900  1.0000
  Fe  Fe3       1.0  0.25000  0.50000  0.73100  1.0000
  Fe  Fe4       1.0  0.75000  0.50000  0.74600  1.0000
  O   O1        1.0  0.25000  0.50000  0.00482  1.0000
  O   O2        1.0  0.25000  0.00000  0.31200  1.0000
  O   O3        1.0  0.01180  0.50000  0.31300  1.0000
  O   O4        1.0  0.48800  0.50000  0.31300  1.0000
  O   O5        1.0  0.75000  0.00000  0.32300  1.0000
  O   O6        1.0  0.25000  0.00000  0.67700  1.0000
  O   O7        1.0  0.51200  0.50000  0.68700  1.0000
  O   O8        1.0  0.98800  0.50000  0.68700  1.0000
  O   O9        1.0  0.75000  0.00000  0.68800  1.0000
  O   O10       1.0  0.75000  0.50000  0.99500  1.0000
  Y   Y1        1.0  0.00000  0.00000  0.50000  1.0000
  Y   Y2        1.0  0.50000  0.00000  0.50000  1.0000
