data_image0
_chemical_formula_structural       As4Cl2Cu4La5O4
_chemical_formula_sum              "As4 Cl2 Cu4 La5 O4"
_cell_length_a       4.11902
_cell_length_b       4.11902
_cell_length_c       21.0224
_cell_angle_alpha    95.6221
_cell_angle_beta     95.6221
_cell_angle_gamma    90

_space_group_name_H-M_alt    "P 1"
_space_group_IT_number       1

loop_
  _space_group_symop_operation_xyz
  'x, y, z'

loop_
  _atom_site_type_symbol
  _atom_site_label
  _atom_site_symmetry_multiplicity
  _atom_site_fract_x
  _atom_site_fract_y
  _atom_site_fract_z
  _atom_site_occupancy
  As  As1       1.0  0.53100  0.53100  0.06110  1.0000
  As  As2       1.0  0.09600  0.09600  0.19200  1.0000
  As  As3       1.0  0.90400  0.90400  0.80800  1.0000
  As  As4       1.0  0.46900  0.46900  0.93900  1.0000
  Cl  Cl1       1.0  0.72900  0.72900  0.45700  1.0000
  Cl  Cl2       1.0  0.27100  0.27100  0.54300  1.0000
  Cu  Cu1       1.0  0.56500  0.06470  0.12900  1.0000
  Cu  Cu2       1.0  0.06470  0.56500  0.12900  1.0000
  Cu  Cu3       1.0  0.93500  0.43500  0.87100  1.0000
  Cu  Cu4       1.0  0.43500  0.93500  0.87100  1.0000
  La  La1       1.0  0.00000  0.00000  0.00000  1.0000
  La  La2       1.0  0.63800  0.63800  0.27600  1.0000
  La  La3       1.0  0.19600  0.19600  0.39200  1.0000
  La  La4       1.0  0.80400  0.80400  0.60800  1.0000
  La  La5       1.0  0.36200  0.36200  0.72400  1.0000
  O   O1        1.0  0.66700  0.16700  0.33400  1.0000
  O   O2        1.0  0.16700  0.66700  0.33400  1.0000
  O   O3        1.0  0.83300  0.33300  0.66600  1.0000
  O   O4        1.0  0.33300  0.83300  0.66600  1.0000
