data_image0
_chemical_formula_structural       Fe6S8Tl4
_chemical_formula_sum              "Fe6 S8 Tl4"
_cell_length_a       5.15053
_cell_length_b       8.80871
_cell_length_c       8.80871
_cell_angle_alpha    96.7887
_cell_angle_beta     106.999
_cell_angle_gamma    106.999

_space_group_name_H-M_alt    "P 1"
_space_group_IT_number       1

loop_
  _space_group_symop_operation_xyz
  'x, y, z'

loop_
  _atom_site_type_symbol
  _atom_site_label
  _atom_site_symmetry_multiplicity
  _atom_site_fract_x
  _atom_site_fract_y
  _atom_site_fract_z
  _atom_site_occupancy
  Fe  Fe1       1.0  0.25100  0.50100  0.00124  1.0000
  Fe  Fe2       1.0  0.50000  0.75000  0.25000  1.0000
  Fe  Fe3       1.0  0.74900  0.99900  0.49900  1.0000
  Fe  Fe4       1.0  0.25100  0.00124  0.50100  1.0000
  Fe  Fe5       1.0  0.50000  0.25000  0.75000  1.0000
  Fe  Fe6       1.0  0.74900  0.49900  0.99900  1.0000
  S   S1        1.0  0.62000  0.71100  0.03010  1.0000
  S   S2        1.0  0.12100  0.53000  0.21100  1.0000
  S   S3        1.0  0.38000  0.97000  0.28900  1.0000
  S   S4        1.0  0.87900  0.78900  0.47000  1.0000
  S   S5        1.0  0.12100  0.21100  0.53000  1.0000
  S   S6        1.0  0.62000  0.03010  0.71100  1.0000
  S   S7        1.0  0.87900  0.47000  0.78900  1.0000
  S   S8        1.0  0.38000  0.28900  0.97000  1.0000
  Tl  Tl1       1.0  0.88700  0.12800  0.12800  1.0000
  Tl  Tl2       1.0  0.63100  0.37200  0.37200  1.0000
  Tl  Tl3       1.0  0.36900  0.62800  0.62800  1.0000
  Tl  Tl4       1.0  0.11300  0.87200  0.87200  1.0000
