data_image0
_chemical_formula_structural       Eu2Zn4
_chemical_formula_sum              "Eu2 Zn4"
_cell_length_a       4.63174
_cell_length_b       5.7516
_cell_length_c       5.7516
_cell_angle_alpha    98.3184
_cell_angle_beta     113.744
_cell_angle_gamma    66.2562

_space_group_name_H-M_alt    "P 1"
_space_group_IT_number       1

loop_
  _space_group_symop_operation_xyz
  'x, y, z'

loop_
  _atom_site_type_symbol
  _atom_site_label
  _atom_site_symmetry_multiplicity
  _atom_site_fract_x
  _atom_site_fract_y
  _atom_site_fract_z
  _atom_site_occupancy
  Eu  Eu1       1.0  0.75000  0.70100  0.20100  1.0000
  Eu  Eu2       1.0  0.25000  0.29900  0.79900  1.0000
  Zn  Zn1       1.0  0.06220  0.10200  0.22700  1.0000
  Zn  Zn2       1.0  0.56200  0.27300  0.39800  1.0000
  Zn  Zn3       1.0  0.43800  0.72700  0.60200  1.0000
  Zn  Zn4       1.0  0.93800  0.89800  0.77300  1.0000
