data_image0
_chemical_formula_structural       F12K2Na2Th2
_chemical_formula_sum              "F12 K2 Na2 Th2"
_cell_length_a       6.1397
_cell_length_b       6.13972
_cell_length_c       7.603
_cell_angle_alpha    89.9999
_cell_angle_beta     90.0008
_cell_angle_gamma    120.001

_space_group_name_H-M_alt    "P 1"
_space_group_IT_number       1

loop_
  _space_group_symop_operation_xyz
  'x, y, z'

loop_
  _atom_site_type_symbol
  _atom_site_label
  _atom_site_symmetry_multiplicity
  _atom_site_fract_x
  _atom_site_fract_y
  _atom_site_fract_z
  _atom_site_occupancy
  F   F1        1.0  0.91900  0.61500  0.10200  1.0000
  F   F2        1.0  0.69700  0.08140  0.10200  1.0000
  F   F3        1.0  0.38500  0.30300  0.10200  1.0000
  F   F4        1.0  0.10400  0.37700  0.33800  1.0000
  F   F5        1.0  0.27300  0.89600  0.33800  1.0000
  F   F6        1.0  0.62300  0.72700  0.33800  1.0000
  F   F7        1.0  0.37700  0.27300  0.66200  1.0000
  F   F8        1.0  0.72700  0.10400  0.66200  1.0000
  F   F9        1.0  0.89600  0.62300  0.66200  1.0000
  F   F10       1.0  0.61500  0.69700  0.89800  1.0000
  F   F11       1.0  0.30300  0.91900  0.89800  1.0000
  F   F12       1.0  0.08140  0.38500  0.89800  1.0000
  K   K1        1.0  0.66700  0.33300  0.38800  1.0000
  K   K2        1.0  0.33300  0.66700  0.61200  1.0000
  Na  Na1       1.0  1.00000  1.00000  0.24000  1.0000
  Na  Na2       1.0  1.00000  0.00000  0.76000  1.0000
  Th  Th1       1.0  0.33300  0.66700  0.13000  1.0000
  Th  Th2       1.0  0.66700  0.33300  0.87000  1.0000
