data_image0
_chemical_formula_structural       O12Pr5Ru2
_chemical_formula_sum              "O12 Pr5 Ru2"
_cell_length_a       5.9632
_cell_length_b       7.05879
_cell_length_c       7.66414
_cell_angle_alpha    105.764
_cell_angle_beta     90
_cell_angle_gamma    114.986

_space_group_name_H-M_alt    "P 1"
_space_group_IT_number       1

loop_
  _space_group_symop_operation_xyz
  'x, y, z'

loop_
  _atom_site_type_symbol
  _atom_site_label
  _atom_site_symmetry_multiplicity
  _atom_site_fract_x
  _atom_site_fract_y
  _atom_site_fract_z
  _atom_site_occupancy
  O   O1        1.0  0.41400  0.31900  0.07880  1.0000
  O   O2        1.0  0.90500  0.31900  0.07880  1.0000
  O   O3        1.0  0.50000  0.00047  0.17300  1.0000
  O   O4        1.0  0.00092  0.00184  0.18700  1.0000
  O   O5        1.0  0.09590  0.69100  0.42200  1.0000
  O   O6        1.0  0.59500  0.69100  0.42200  1.0000
  O   O7        1.0  0.40500  0.30900  0.57800  1.0000
  O   O8        1.0  0.90400  0.30900  0.57800  1.0000
  O   O9        1.0  0.99900  0.99800  0.81300  1.0000
  O   O10       1.0  0.50000  0.00000  0.82700  1.0000
  O   O11       1.0  0.09530  0.68100  0.92100  1.0000
  O   O12       1.0  0.58600  0.68100  0.92100  1.0000
  Pr  Pr1       1.0  0.31000  0.61900  0.16700  1.0000
  Pr  Pr2       1.0  0.69300  0.38700  0.35800  1.0000
  Pr  Pr3       1.0  1.00000  1.00000  0.50000  1.0000
  Pr  Pr4       1.0  0.30700  0.61300  0.64200  1.0000
  Pr  Pr5       1.0  0.69000  0.38100  0.83300  1.0000
  Ru  Ru1       1.0  0.23500  0.00000  0.00000  1.0000
  Ru  Ru2       1.0  0.76500  0.00000  0.00000  1.0000
