data_image0
_chemical_formula_structural       GeTe
_chemical_formula_sum              "Ge1 Te1"
_cell_length_a       4.20518
_cell_length_b       4.20518
_cell_length_c       4.32607
_cell_angle_alpha    90
_cell_angle_beta     60.9201
_cell_angle_gamma    120

_space_group_name_H-M_alt    "P 1"
_space_group_IT_number       1

loop_
  _space_group_symop_operation_xyz
  'x, y, z'

loop_
  _atom_site_type_symbol
  _atom_site_label
  _atom_site_symmetry_multiplicity
  _atom_site_fract_x
  _atom_site_fract_y
  _atom_site_fract_z
  _atom_site_occupancy
  Ge  Ge1       1.0  0.47300  0.23700  0.29000  1.0000
  Te  Te1       1.0  0.52700  0.76300  0.71000  1.0000
