data_image0
_chemical_formula_structural       As2Mn6
_chemical_formula_sum              "As2 Mn6"
_cell_length_a       3.62729
_cell_length_b       3.65344
_cell_length_c       7.87359
_cell_angle_alpha    76.5848
_cell_angle_beta     90
_cell_angle_gamma    90

_space_group_name_H-M_alt    "P 1"
_space_group_IT_number       1

loop_
  _space_group_symop_operation_xyz
  'x, y, z'

loop_
  _atom_site_type_symbol
  _atom_site_label
  _atom_site_symmetry_multiplicity
  _atom_site_fract_x
  _atom_site_fract_y
  _atom_site_fract_z
  _atom_site_occupancy
  As  As1       1.0  0.25000  0.84200  0.31700  1.0000
  As  As2       1.0  0.75000  0.15800  0.68300  1.0000
  Mn  Mn1       1.0  0.25000  0.45100  0.09880  1.0000
  Mn  Mn2       1.0  0.75000  0.94800  0.10300  1.0000
  Mn  Mn3       1.0  0.75000  0.32000  0.36000  1.0000
  Mn  Mn4       1.0  0.25000  0.68000  0.64000  1.0000
  Mn  Mn5       1.0  0.25000  0.05170  0.89700  1.0000
  Mn  Mn6       1.0  0.75000  0.54900  0.90100  1.0000
