data_image0
_chemical_formula_structural       CsF6Sb
_chemical_formula_sum              "Cs1 F6 Sb1"
_cell_length_a       4.97686
_cell_length_b       4.97686
_cell_length_c       4.97686
_cell_angle_alpha    96.4794
_cell_angle_beta     96.4794
_cell_angle_gamma    96.4794

_space_group_name_H-M_alt    "P 1"
_space_group_IT_number       1

loop_
  _space_group_symop_operation_xyz
  'x, y, z'

loop_
  _atom_site_type_symbol
  _atom_site_label
  _atom_site_symmetry_multiplicity
  _atom_site_fract_x
  _atom_site_fract_y
  _atom_site_fract_z
  _atom_site_occupancy
  Cs  Cs1       1.0  0.50000  0.50000  0.50000  1.0000
  F   F1        1.0  0.66900  0.80900  0.07920  1.0000
  F   F2        1.0  0.92100  0.33100  0.19100  1.0000
  F   F3        1.0  0.19100  0.92100  0.33100  1.0000
  F   F4        1.0  0.80900  0.07920  0.66900  1.0000
  F   F5        1.0  0.07920  0.66900  0.80900  1.0000
  F   F6        1.0  0.33100  0.19100  0.92100  1.0000
  Sb  Sb1       1.0  0.00000  0.00000  0.00000  1.0000
