data_image0
_chemical_formula_structural       Cl2Fe2Mo2O8
_chemical_formula_sum              "Cl2 Fe2 Mo2 O8"
_cell_length_a       6.70447
_cell_length_b       6.70447
_cell_length_c       5.14222
_cell_angle_alpha    90
_cell_angle_beta     90
_cell_angle_gamma    90

_space_group_name_H-M_alt    "P 1"
_space_group_IT_number       1

loop_
  _space_group_symop_operation_xyz
  'x, y, z'

loop_
  _atom_site_type_symbol
  _atom_site_label
  _atom_site_symmetry_multiplicity
  _atom_site_fract_x
  _atom_site_fract_y
  _atom_site_fract_z
  _atom_site_occupancy
  Cl  Cl1       1.0  0.75000  0.75000  0.29100  1.0000
  Cl  Cl2       1.0  0.25000  0.25000  0.70900  1.0000
  Fe  Fe1       1.0  0.25000  0.25000  0.27500  1.0000
  Fe  Fe2       1.0  0.75000  0.75000  0.72500  1.0000
  Mo  Mo1       1.0  0.75000  0.25000  0.00000  1.0000
  Mo  Mo2       1.0  0.25000  0.75000  0.00000  1.0000
  O   O1        1.0  0.53700  0.25000  0.20600  1.0000
  O   O2        1.0  0.96300  0.25000  0.20600  1.0000
  O   O3        1.0  0.25000  0.53700  0.20600  1.0000
  O   O4        1.0  0.25000  0.96300  0.20600  1.0000
  O   O5        1.0  0.75000  0.03670  0.79400  1.0000
  O   O6        1.0  0.75000  0.46300  0.79400  1.0000
  O   O7        1.0  0.03670  0.75000  0.79400  1.0000
  O   O8        1.0  0.46300  0.75000  0.79400  1.0000
