data_image0
_chemical_formula_structural       K2Li2O4Zn2
_chemical_formula_sum              "K2 Li2 O4 Zn2"
_cell_length_a       3.3451
_cell_length_b       5.65803
_cell_length_c       7.39153
_cell_angle_alpha    95.4817
_cell_angle_beta     103.078
_cell_angle_gamma    107.194

_space_group_name_H-M_alt    "P 1"
_space_group_IT_number       1

loop_
  _space_group_symop_operation_xyz
  'x, y, z'

loop_
  _atom_site_type_symbol
  _atom_site_label
  _atom_site_symmetry_multiplicity
  _atom_site_fract_x
  _atom_site_fract_y
  _atom_site_fract_z
  _atom_site_occupancy
  K   K1        1.0  0.53400  0.69700  0.37000  1.0000
  K   K2        1.0  0.46600  0.30300  0.63000  1.0000
  Li  Li1       1.0  0.71400  0.37200  0.05650  1.0000
  Li  Li2       1.0  0.28600  0.62800  0.94300  1.0000
  O   O1        1.0  0.90100  0.73700  0.06400  1.0000
  O   O2        1.0  0.77100  0.23200  0.31000  1.0000
  O   O3        1.0  0.22900  0.76800  0.69000  1.0000
  O   O4        1.0  0.09950  0.26300  0.93600  1.0000
  Zn  Zn1       1.0  0.13900  0.09430  0.18400  1.0000
  Zn  Zn2       1.0  0.86100  0.90600  0.81600  1.0000
