data_image0
_chemical_formula_structural       Tb4Zn34
_chemical_formula_sum              "Tb4 Zn34"
_cell_length_a       8.69349
_cell_length_b       8.69372
_cell_length_c       8.4836
_cell_angle_alpha    89.993
_cell_angle_beta     90.0048
_cell_angle_gamma    120.003

_space_group_name_H-M_alt    "P 1"
_space_group_IT_number       1

loop_
  _space_group_symop_operation_xyz
  'x, y, z'

loop_
  _atom_site_type_symbol
  _atom_site_label
  _atom_site_symmetry_multiplicity
  _atom_site_fract_x
  _atom_site_fract_y
  _atom_site_fract_z
  _atom_site_occupancy
  Tb  Tb1       1.0  0.00000  0.00000  0.25000  1.0000
  Tb  Tb2       1.0  0.66700  0.33300  0.25000  1.0000
  Tb  Tb3       1.0  0.33300  0.66700  0.75000  1.0000
  Tb  Tb4       1.0  0.00000  1.00000  0.75000  1.0000
  Zn  Zn1       1.0  0.16200  0.32400  0.52200  1.0000
  Zn  Zn2       1.0  0.16200  0.83800  0.52300  1.0000
  Zn  Zn3       1.0  0.67500  0.83800  0.52200  1.0000
  Zn  Zn4       1.0  0.32400  0.16200  0.02240  1.0000
  Zn  Zn5       1.0  0.83800  0.16200  0.02250  1.0000
  Zn  Zn6       1.0  0.83800  0.67600  0.02240  1.0000
  Zn  Zn7       1.0  0.32400  0.16200  0.47800  1.0000
  Zn  Zn8       1.0  0.83800  0.16200  0.47700  1.0000
  Zn  Zn9       1.0  0.16200  0.83800  0.97700  1.0000
  Zn  Zn10      1.0  0.67600  0.83800  0.97800  1.0000
  Zn  Zn11      1.0  0.83800  0.67500  0.47800  1.0000
  Zn  Zn12      1.0  0.66700  0.33300  0.60000  1.0000
  Zn  Zn13      1.0  0.33300  0.66700  0.10000  1.0000
  Zn  Zn14      1.0  0.00009  0.50000  0.50000  1.0000
  Zn  Zn15      1.0  0.50000  0.50000  0.50000  1.0000
  Zn  Zn16      1.0  0.50000  0.50000  0.00013  1.0000
  Zn  Zn17      1.0  0.00000  0.50000  0.00001  1.0000
  Zn  Zn18      1.0  0.50000  1.00000  0.50000  1.0000
  Zn  Zn19      1.0  0.50000  0.00011  0.00000  1.0000
  Zn  Zn20      1.0  0.67100  0.63300  0.75000  1.0000
  Zn  Zn21      1.0  0.36700  0.03840  0.75000  1.0000
  Zn  Zn22      1.0  0.96200  0.63300  0.75000  1.0000
  Zn  Zn23      1.0  0.36700  0.32900  0.75000  1.0000
  Zn  Zn24      1.0  0.63300  0.67100  0.25000  1.0000
  Zn  Zn25      1.0  0.03840  0.36700  0.25000  1.0000
  Zn  Zn26      1.0  0.67200  0.03830  0.75000  1.0000
  Zn  Zn27      1.0  0.32800  0.96200  0.25000  1.0000
  Zn  Zn28      1.0  0.63300  0.96200  0.25000  1.0000
  Zn  Zn29      1.0  0.32900  0.36700  0.25000  1.0000
  Zn  Zn30      1.0  0.03830  0.67100  0.25000  1.0000
  Zn  Zn31      1.0  0.96200  0.32800  0.75000  1.0000
  Zn  Zn32      1.0  0.16200  0.32400  0.97800  1.0000
  Zn  Zn33      1.0  0.33300  0.66700  0.40000  1.0000
  Zn  Zn34      1.0  0.66700  0.33300  0.90000  1.0000
