data_image0
_chemical_formula_structural       Cs6F18Fe6
_chemical_formula_sum              "Cs6 F18 Fe6"
_cell_length_a       5.88144
_cell_length_b       5.87708
_cell_length_c       14.1712
_cell_angle_alpha    90.0066
_cell_angle_beta     90.0068
_cell_angle_gamma    120.073

_space_group_name_H-M_alt    "P 1"
_space_group_IT_number       1

loop_
  _space_group_symop_operation_xyz
  'x, y, z'

loop_
  _atom_site_type_symbol
  _atom_site_label
  _atom_site_symmetry_multiplicity
  _atom_site_fract_x
  _atom_site_fract_y
  _atom_site_fract_z
  _atom_site_occupancy
  Cs  Cs1       1.0  0.00016  0.00000  0.25000  1.0000
  Cs  Cs2       1.0  0.00000  0.00045  0.75000  1.0000
  Cs  Cs3       1.0  0.33300  0.66700  0.08840  1.0000
  Cs  Cs4       1.0  0.66600  0.33200  0.58800  1.0000
  Cs  Cs5       1.0  0.66700  0.33200  0.91200  1.0000
  Cs  Cs6       1.0  0.33400  0.66800  0.41200  1.0000
  F   F1        1.0  0.50300  0.49500  0.25000  1.0000
  F   F2        1.0  0.49700  0.50500  0.75000  1.0000
  F   F3        1.0  0.50700  0.01060  0.25000  1.0000
  F   F4        1.0  0.99100  0.49200  0.25000  1.0000
  F   F5        1.0  0.00905  0.50700  0.75000  1.0000
  F   F6        1.0  0.49400  0.99000  0.75000  1.0000
  F   F7        1.0  0.83500  0.16500  0.08190  1.0000
  F   F8        1.0  0.16700  0.83300  0.58200  1.0000
  F   F9        1.0  0.83200  0.66600  0.08210  1.0000
  F   F10       1.0  0.33400  0.16800  0.08220  1.0000
  F   F11       1.0  0.66900  0.83400  0.58200  1.0000
  F   F12       1.0  0.16800  0.33400  0.58200  1.0000
  F   F13       1.0  0.66500  0.83200  0.91800  1.0000
  F   F14       1.0  0.16800  0.33400  0.91800  1.0000
  F   F15       1.0  0.16500  0.83500  0.91800  1.0000
  F   F16       1.0  0.83400  0.16700  0.41800  1.0000
  F   F17       1.0  0.83300  0.66500  0.41800  1.0000
  F   F18       1.0  0.33200  0.16600  0.41800  1.0000
  Fe  Fe1       1.0  0.00000  0.00000  0.00000  1.0000
  Fe  Fe2       1.0  0.00000  0.00008  0.50000  1.0000
  Fe  Fe3       1.0  0.33300  0.66600  0.83800  1.0000
  Fe  Fe4       1.0  0.66700  0.33400  0.33800  1.0000
  Fe  Fe5       1.0  0.66700  0.33400  0.16200  1.0000
  Fe  Fe6       1.0  0.33300  0.66600  0.66200  1.0000
