data_image0
_chemical_formula_structural       C2In2Sc4
_chemical_formula_sum              "C2 In2 Sc4"
_cell_length_a       3.34868
_cell_length_b       3.34869
_cell_length_c       15.3627
_cell_angle_alpha    89.9995
_cell_angle_beta     90.001
_cell_angle_gamma    120.003

_space_group_name_H-M_alt    "P 1"
_space_group_IT_number       1

loop_
  _space_group_symop_operation_xyz
  'x, y, z'

loop_
  _atom_site_type_symbol
  _atom_site_label
  _atom_site_symmetry_multiplicity
  _atom_site_fract_x
  _atom_site_fract_y
  _atom_site_fract_z
  _atom_site_occupancy
  C   C1        1.0  0.00000  1.00000  0.50000  1.0000
  C   C2        1.0  0.00000  1.00000  0.00001  1.0000
  In  In1       1.0  0.66700  0.33300  0.25000  1.0000
  In  In2       1.0  0.33300  0.66700  0.75000  1.0000
  Sc  Sc1       1.0  0.33300  0.66700  0.42000  1.0000
  Sc  Sc2       1.0  0.66700  0.33300  0.92000  1.0000
  Sc  Sc3       1.0  0.66700  0.33300  0.58000  1.0000
  Sc  Sc4       1.0  0.33300  0.66700  0.07970  1.0000
