data_image0
_chemical_formula_structural       Be2La6S14Yb2
_chemical_formula_sum              "Be2 La6 S14 Yb2"
_cell_length_a       10.3134
_cell_length_b       10.3139
_cell_length_c       5.93924
_cell_angle_alpha    90
_cell_angle_beta     90
_cell_angle_gamma    120.013

_space_group_name_H-M_alt    "P 1"
_space_group_IT_number       1

loop_
  _space_group_symop_operation_xyz
  'x, y, z'

loop_
  _atom_site_type_symbol
  _atom_site_label
  _atom_site_symmetry_multiplicity
  _atom_site_fract_x
  _atom_site_fract_y
  _atom_site_fract_z
  _atom_site_occupancy
  Be  Be1       1.0  0.33300  0.66700  0.66100  1.0000
  Be  Be2       1.0  0.66700  0.33300  0.16100  1.0000
  La  La1       1.0  0.13700  0.38600  0.25100  1.0000
  La  La2       1.0  0.86300  0.61400  0.75100  1.0000
  La  La3       1.0  0.61400  0.75100  0.25100  1.0000
  La  La4       1.0  0.24900  0.86300  0.25100  1.0000
  La  La5       1.0  0.75100  0.13700  0.75100  1.0000
  La  La6       1.0  0.38600  0.24900  0.75100  1.0000
  S   S1        1.0  0.33300  0.66700  0.01800  1.0000
  S   S2        1.0  0.66700  0.33300  0.51800  1.0000
  S   S3        1.0  0.08690  0.25200  0.76200  1.0000
  S   S4        1.0  0.91300  0.74800  0.26200  1.0000
  S   S5        1.0  0.74800  0.83500  0.76200  1.0000
  S   S6        1.0  0.16500  0.91300  0.76200  1.0000
  S   S7        1.0  0.83500  0.08690  0.26200  1.0000
  S   S8        1.0  0.25200  0.16500  0.26200  1.0000
  S   S9        1.0  0.40700  0.52200  0.53400  1.0000
  S   S10       1.0  0.59300  0.47800  0.03410  1.0000
  S   S11       1.0  0.47800  0.88500  0.53400  1.0000
  S   S12       1.0  0.11500  0.59300  0.53400  1.0000
  S   S13       1.0  0.88500  0.40700  0.03400  1.0000
  S   S14       1.0  0.52200  0.11500  0.03400  1.0000
  Yb  Yb1       1.0  0.00000  0.00000  0.01190  1.0000
  Yb  Yb2       1.0  0.00000  0.00000  0.51200  1.0000
