data_image0
_chemical_formula_structural       B2Re8Zr18
_chemical_formula_sum              "B2 Re8 Zr18"
_cell_length_a       8.49859
_cell_length_b       8.49859
_cell_length_c       8.67011
_cell_angle_alpha    90
_cell_angle_beta     90
_cell_angle_gamma    120.01

_space_group_name_H-M_alt    "P 1"
_space_group_IT_number       1

loop_
  _space_group_symop_operation_xyz
  'x, y, z'

loop_
  _atom_site_type_symbol
  _atom_site_label
  _atom_site_symmetry_multiplicity
  _atom_site_fract_x
  _atom_site_fract_y
  _atom_site_fract_z
  _atom_site_occupancy
  B   B1        1.0  0.33300  0.66700  0.25000  1.0000
  B   B2        1.0  0.66700  0.33300  0.75000  1.0000
  Re  Re1       1.0  0.00000  0.00000  0.00000  1.0000
  Re  Re2       1.0  0.00000  0.00000  0.50000  1.0000
  Re  Re3       1.0  0.89300  0.78500  0.25000  1.0000
  Re  Re4       1.0  0.10700  0.21500  0.75000  1.0000
  Re  Re5       1.0  0.21500  0.10700  0.25000  1.0000
  Re  Re6       1.0  0.89300  0.10700  0.25000  1.0000
  Re  Re7       1.0  0.10700  0.89300  0.75000  1.0000
  Re  Re8       1.0  0.78500  0.89300  0.75000  1.0000
  Zr  Zr1       1.0  0.53900  0.07790  0.25000  1.0000
  Zr  Zr2       1.0  0.46100  0.92200  0.75000  1.0000
  Zr  Zr3       1.0  0.92200  0.46100  0.25000  1.0000
  Zr  Zr4       1.0  0.53900  0.46100  0.25000  1.0000
  Zr  Zr5       1.0  0.46100  0.53900  0.75000  1.0000
  Zr  Zr6       1.0  0.07790  0.53900  0.75000  1.0000
  Zr  Zr7       1.0  0.20200  0.40300  0.05500  1.0000
  Zr  Zr8       1.0  0.79800  0.59700  0.55500  1.0000
  Zr  Zr9       1.0  0.59700  0.79800  0.05500  1.0000
  Zr  Zr10      1.0  0.20200  0.79800  0.05500  1.0000
  Zr  Zr11      1.0  0.79800  0.20200  0.55500  1.0000
  Zr  Zr12      1.0  0.40300  0.20200  0.55500  1.0000
  Zr  Zr13      1.0  0.79800  0.59700  0.94500  1.0000
  Zr  Zr14      1.0  0.79800  0.20200  0.94500  1.0000
  Zr  Zr15      1.0  0.40300  0.20200  0.94500  1.0000
  Zr  Zr16      1.0  0.59700  0.79800  0.44500  1.0000
  Zr  Zr17      1.0  0.20200  0.79800  0.44500  1.0000
  Zr  Zr18      1.0  0.20200  0.40300  0.44500  1.0000
