data_image0
_chemical_formula_structural       As8Nb14
_chemical_formula_sum              "As8 Nb14"
_cell_length_a       7.96821
_cell_length_b       7.96821
_cell_length_c       14.2836
_cell_angle_alpha    75.6567
_cell_angle_beta     104.343
_cell_angle_gamma    154.328

_space_group_name_H-M_alt    "P 1"
_space_group_IT_number       1

loop_
  _space_group_symop_operation_xyz
  'x, y, z'

loop_
  _atom_site_type_symbol
  _atom_site_label
  _atom_site_symmetry_multiplicity
  _atom_site_fract_x
  _atom_site_fract_y
  _atom_site_fract_z
  _atom_site_occupancy
  As  As1       1.0  0.37100  0.62900  0.33400  1.0000
  As  As2       1.0  0.62900  0.37100  0.66600  1.0000
  As  As3       1.0  0.37100  0.62900  0.59800  1.0000
  As  As4       1.0  0.62900  0.37100  0.40200  1.0000
  As  As5       1.0  0.17200  0.82800  0.10900  1.0000
  As  As6       1.0  0.82800  0.17200  0.89100  1.0000
  As  As7       1.0  0.06410  0.93600  0.84800  1.0000
  As  As8       1.0  0.93600  0.06410  0.15200  1.0000
  Nb  Nb1       1.0  0.17900  0.82100  0.54500  1.0000
  Nb  Nb2       1.0  0.82100  0.17900  0.45500  1.0000
  Nb  Nb3       1.0  0.43100  0.56900  0.82600  1.0000
  Nb  Nb4       1.0  0.56900  0.43100  0.17400  1.0000
  Nb  Nb5       1.0  0.50000  0.50000  0.50000  1.0000
  Nb  Nb6       1.0  0.00000  0.00000  0.00000  1.0000
  Nb  Nb7       1.0  0.00028  1.00000  0.66200  1.0000
  Nb  Nb8       1.0  0.00000  0.00028  0.33800  1.0000
  Nb  Nb9       1.0  0.33400  0.66600  0.02980  1.0000
  Nb  Nb10      1.0  0.66600  0.33400  0.97000  1.0000
  Nb  Nb11      1.0  0.21200  0.78800  0.80000  1.0000
  Nb  Nb12      1.0  0.78800  0.21200  0.20000  1.0000
  Nb  Nb13      1.0  0.19500  0.80500  0.30900  1.0000
  Nb  Nb14      1.0  0.80500  0.19500  0.69100  1.0000
