data_image0
_chemical_formula_structural       Cl2Cs2Mn4O14V4
_chemical_formula_sum              "Cl2 Cs2 Mn4 O14 V4"
_cell_length_a       14.7621
_cell_length_b       5.37419
_cell_length_c       5.1116
_cell_angle_alpha    90
_cell_angle_beta     90
_cell_angle_gamma    90

_space_group_name_H-M_alt    "P 1"
_space_group_IT_number       1

loop_
  _space_group_symop_operation_xyz
  'x, y, z'

loop_
  _atom_site_type_symbol
  _atom_site_label
  _atom_site_symmetry_multiplicity
  _atom_site_fract_x
  _atom_site_fract_y
  _atom_site_fract_z
  _atom_site_occupancy
  Cl  Cl1       1.0  0.00000  0.00000  0.20600  1.0000
  Cl  Cl2       1.0  0.50000  0.00000  0.20600  1.0000
  Cs  Cs1       1.0  0.25000  0.97600  0.14200  1.0000
  Cs  Cs2       1.0  0.75000  0.02440  0.14200  1.0000
  Mn  Mn1       1.0  0.00000  0.00000  0.69400  1.0000
  Mn  Mn2       1.0  0.50000  0.00000  0.69400  1.0000
  Mn  Mn3       1.0  0.00000  0.50000  0.08650  1.0000
  Mn  Mn4       1.0  0.50000  0.50000  0.08650  1.0000
  O   O1        1.0  0.12300  0.49200  0.26900  1.0000
  O   O2        1.0  0.87700  0.50800  0.26900  1.0000
  O   O3        1.0  0.37700  0.49200  0.26900  1.0000
  O   O4        1.0  0.62300  0.50800  0.26900  1.0000
  O   O5        1.0  0.93500  0.33000  0.76000  1.0000
  O   O6        1.0  0.06480  0.67000  0.76000  1.0000
  O   O7        1.0  0.56500  0.33000  0.76000  1.0000
  O   O8        1.0  0.43500  0.67000  0.76000  1.0000
  O   O9        1.0  0.25000  0.60500  0.67600  1.0000
  O   O10       1.0  0.75000  0.39500  0.67600  1.0000
  O   O11       1.0  0.12800  0.18000  0.70000  1.0000
  O   O12       1.0  0.87200  0.82000  0.70000  1.0000
  O   O13       1.0  0.37200  0.18000  0.70000  1.0000
  O   O14       1.0  0.62800  0.82000  0.70000  1.0000
  V   V1        1.0  0.14000  0.47900  0.59800  1.0000
  V   V2        1.0  0.86000  0.52100  0.59800  1.0000
  V   V3        1.0  0.36000  0.47900  0.59800  1.0000
  V   V4        1.0  0.64000  0.52100  0.59800  1.0000
