data_image0
_chemical_formula_structural       C2Hf4In2
_chemical_formula_sum              "C2 Hf4 In2"
_cell_length_a       3.32174
_cell_length_b       3.32173
_cell_length_c       14.8657
_cell_angle_alpha    89.9997
_cell_angle_beta     90.0005
_cell_angle_gamma    120.002

_space_group_name_H-M_alt    "P 1"
_space_group_IT_number       1

loop_
  _space_group_symop_operation_xyz
  'x, y, z'

loop_
  _atom_site_type_symbol
  _atom_site_label
  _atom_site_symmetry_multiplicity
  _atom_site_fract_x
  _atom_site_fract_y
  _atom_site_fract_z
  _atom_site_occupancy
  C   C1        1.0  0.00000  0.00000  0.50000  1.0000
  C   C2        1.0  0.00000  0.00000  0.00000  1.0000
  Hf  Hf1       1.0  0.33300  0.66700  0.41800  1.0000
  Hf  Hf2       1.0  0.66700  0.33300  0.91800  1.0000
  Hf  Hf3       1.0  0.66700  0.33300  0.58200  1.0000
  Hf  Hf4       1.0  0.33300  0.66700  0.08190  1.0000
  In  In1       1.0  0.66700  0.33300  0.25000  1.0000
  In  In2       1.0  0.33300  0.66700  0.75000  1.0000
