data_image0
_chemical_formula_structural       B6Ce4Co3
_chemical_formula_sum              "B6 Ce4 Co3"
_cell_length_a       8.33214
_cell_length_b       8.33214
_cell_length_c       8.33214
_cell_angle_alpha    37.7797
_cell_angle_beta     37.7797
_cell_angle_gamma    37.7797

_space_group_name_H-M_alt    "P 1"
_space_group_IT_number       1

loop_
  _space_group_symop_operation_xyz
  'x, y, z'

loop_
  _atom_site_type_symbol
  _atom_site_label
  _atom_site_symmetry_multiplicity
  _atom_site_fract_x
  _atom_site_fract_y
  _atom_site_fract_z
  _atom_site_occupancy
  B   B1        1.0  0.83300  0.16700  0.50000  1.0000
  B   B2        1.0  0.50000  0.83300  0.16700  1.0000
  B   B3        1.0  0.16700  0.50000  0.83300  1.0000
  B   B4        1.0  0.16700  0.83300  0.50000  1.0000
  B   B5        1.0  0.50000  0.16700  0.83300  1.0000
  B   B6        1.0  0.83300  0.50000  0.16700  1.0000
  Ce  Ce1       1.0  0.41000  0.41000  0.41000  1.0000
  Ce  Ce2       1.0  0.59000  0.59000  0.59000  1.0000
  Ce  Ce3       1.0  0.25700  0.25700  0.25700  1.0000
  Ce  Ce4       1.0  0.74300  0.74300  0.74300  1.0000
  Co  Co1       1.0  0.00000  0.00000  0.00000  1.0000
  Co  Co2       1.0  0.11700  0.11700  0.11700  1.0000
  Co  Co3       1.0  0.88300  0.88300  0.88300  1.0000
