data_image0
_chemical_formula_structural       K2Li2Mn2O4
_chemical_formula_sum              "K2 Li2 Mn2 O4"
_cell_length_a       3.41636
_cell_length_b       5.7875
_cell_length_c       7.46578
_cell_angle_alpha    95.0289
_cell_angle_beta     103.227
_cell_angle_gamma    107.167

_space_group_name_H-M_alt    "P 1"
_space_group_IT_number       1

loop_
  _space_group_symop_operation_xyz
  'x, y, z'

loop_
  _atom_site_type_symbol
  _atom_site_label
  _atom_site_symmetry_multiplicity
  _atom_site_fract_x
  _atom_site_fract_y
  _atom_site_fract_z
  _atom_site_occupancy
  K   K1        1.0  0.52700  0.68700  0.36700  1.0000
  K   K2        1.0  0.47300  0.31300  0.63300  1.0000
  Li  Li1       1.0  0.71700  0.37800  0.05600  1.0000
  Li  Li2       1.0  0.28300  0.62200  0.94400  1.0000
  Mn  Mn1       1.0  0.14300  0.09460  0.19100  1.0000
  Mn  Mn2       1.0  0.85700  0.90500  0.80900  1.0000
  O   O1        1.0  0.89700  0.73500  0.05900  1.0000
  O   O2        1.0  0.77900  0.24400  0.31500  1.0000
  O   O3        1.0  0.22100  0.75600  0.68500  1.0000
  O   O4        1.0  0.10300  0.26500  0.94100  1.0000
