data_image0
_chemical_formula_structural       Cs4Eu4S16Si4
_chemical_formula_sum              "Cs4 Eu4 S16 Si4"
_cell_length_a       6.69539
_cell_length_b       5.84457
_cell_length_c       19.4432
_cell_angle_alpha    90
_cell_angle_beta     90
_cell_angle_gamma    90

_space_group_name_H-M_alt    "P 1"
_space_group_IT_number       1

loop_
  _space_group_symop_operation_xyz
  'x, y, z'

loop_
  _atom_site_type_symbol
  _atom_site_label
  _atom_site_symmetry_multiplicity
  _atom_site_fract_x
  _atom_site_fract_y
  _atom_site_fract_z
  _atom_site_occupancy
  Cs  Cs1       1.0  0.52200  0.99700  0.52800  1.0000
  Cs  Cs2       1.0  0.97800  0.00315  0.02770  1.0000
  Cs  Cs3       1.0  0.02220  0.50300  0.47200  1.0000
  Cs  Cs4       1.0  0.47800  0.49700  0.97200  1.0000
  Eu  Eu1       1.0  0.71100  0.00708  0.27000  1.0000
  Eu  Eu2       1.0  0.78900  0.99300  0.77000  1.0000
  Eu  Eu3       1.0  0.21100  0.49300  0.73000  1.0000
  Eu  Eu4       1.0  0.28900  0.50700  0.23000  1.0000
  S   S1        1.0  0.41100  0.26500  0.36300  1.0000
  S   S2        1.0  0.08900  0.73500  0.86300  1.0000
  S   S3        1.0  0.91100  0.23500  0.63700  1.0000
  S   S4        1.0  0.58900  0.76500  0.13700  1.0000
  S   S5        1.0  0.93200  0.00572  0.39700  1.0000
  S   S6        1.0  0.56800  0.99400  0.89700  1.0000
  S   S7        1.0  0.43200  0.49400  0.60300  1.0000
  S   S8        1.0  0.06770  0.50600  0.10300  1.0000
  S   S9        1.0  0.41100  0.74700  0.36300  1.0000
  S   S10       1.0  0.08860  0.25300  0.86300  1.0000
  S   S11       1.0  0.91100  0.75300  0.63700  1.0000
  S   S12       1.0  0.58900  0.24700  0.13700  1.0000
  S   S13       1.0  0.35000  0.99400  0.73000  1.0000
  S   S14       1.0  0.15000  0.00577  0.23000  1.0000
  S   S15       1.0  0.85000  0.50600  0.27000  1.0000
  S   S16       1.0  0.65000  0.49400  0.77000  1.0000
  Si  Si1       1.0  0.19000  0.00516  0.33700  1.0000
  Si  Si2       1.0  0.31000  0.99500  0.83700  1.0000
  Si  Si3       1.0  0.69000  0.49500  0.66300  1.0000
  Si  Si4       1.0  0.81000  0.50500  0.16300  1.0000
