data_image0
_chemical_formula_structural       Al6In6Se18
_chemical_formula_sum              "Al6 In6 Se18"
_cell_length_a       7.02335
_cell_length_b       7.02335
_cell_length_c       18.7674
_cell_angle_alpha    90
_cell_angle_beta     90
_cell_angle_gamma    120

_space_group_name_H-M_alt    "P 1"
_space_group_IT_number       1

loop_
  _space_group_symop_operation_xyz
  'x, y, z'

loop_
  _atom_site_type_symbol
  _atom_site_label
  _atom_site_symmetry_multiplicity
  _atom_site_fract_x
  _atom_site_fract_y
  _atom_site_fract_z
  _atom_site_occupancy
  Al  Al1       1.0  0.32600  0.01290  0.19100  1.0000
  Al  Al2       1.0  0.67400  0.98700  0.69100  1.0000
  Al  Al3       1.0  0.98700  0.31300  0.52400  1.0000
  Al  Al4       1.0  0.68700  0.67400  0.85700  1.0000
  Al  Al5       1.0  0.31300  0.32600  0.35700  1.0000
  Al  Al6       1.0  0.01290  0.68700  0.02420  1.0000
  In  In1       1.0  0.99000  0.33100  0.16300  1.0000
  In  In2       1.0  0.00987  0.66900  0.66300  1.0000
  In  In3       1.0  0.66900  0.65900  0.49600  1.0000
  In  In4       1.0  0.34100  0.00987  0.83000  1.0000
  In  In5       1.0  0.65900  0.99000  0.33000  1.0000
  In  In6       1.0  0.33100  0.34100  0.99600  1.0000
  Se  Se1       1.0  0.37200  0.05240  0.67700  1.0000
  Se  Se2       1.0  0.62800  0.94800  0.17700  1.0000
  Se  Se3       1.0  0.94800  0.32000  0.01080  1.0000
  Se  Se4       1.0  0.68000  0.62800  0.34400  1.0000
  Se  Se5       1.0  0.32000  0.37200  0.84400  1.0000
  Se  Se6       1.0  0.05240  0.68000  0.51100  1.0000
  Se  Se7       1.0  0.27200  0.97800  0.32000  1.0000
  Se  Se8       1.0  0.72800  0.02250  0.82000  1.0000
  Se  Se9       1.0  0.02250  0.29500  0.65300  1.0000
  Se  Se10      1.0  0.70500  0.72800  0.98700  1.0000
  Se  Se11      1.0  0.29500  0.27200  0.48700  1.0000
  Se  Se12      1.0  0.97800  0.70500  0.15300  1.0000
  Se  Se13      1.0  0.02120  0.37700  0.31500  1.0000
  Se  Se14      1.0  0.97900  0.62300  0.81500  1.0000
  Se  Se15      1.0  0.62300  0.64400  0.64800  1.0000
  Se  Se16      1.0  0.35600  0.97900  0.98100  1.0000
  Se  Se17      1.0  0.64400  0.02120  0.48100  1.0000
  Se  Se18      1.0  0.37700  0.35600  0.14800  1.0000
