data_image0
_chemical_formula_structural       As8Zr14
_chemical_formula_sum              "As8 Zr14"
_cell_length_a       8.37283
_cell_length_b       8.37283
_cell_length_c       15.0827
_cell_angle_alpha    75.7164
_cell_angle_beta     104.284
_cell_angle_gamma    154.434

_space_group_name_H-M_alt    "P 1"
_space_group_IT_number       1

loop_
  _space_group_symop_operation_xyz
  'x, y, z'

loop_
  _atom_site_type_symbol
  _atom_site_label
  _atom_site_symmetry_multiplicity
  _atom_site_fract_x
  _atom_site_fract_y
  _atom_site_fract_z
  _atom_site_occupancy
  As  As1       1.0  0.37300  0.62700  0.60100  1.0000
  As  As2       1.0  0.62700  0.37300  0.39900  1.0000
  As  As3       1.0  0.06290  0.93700  0.85000  1.0000
  As  As4       1.0  0.93700  0.06290  0.15000  1.0000
  As  As5       1.0  0.17600  0.82400  0.11000  1.0000
  As  As6       1.0  0.82400  0.17600  0.89000  1.0000
  As  As7       1.0  0.37000  0.63000  0.33900  1.0000
  As  As8       1.0  0.63000  0.37000  0.66100  1.0000
  Zr  Zr1       1.0  0.00274  0.99700  0.66400  1.0000
  Zr  Zr2       1.0  0.99700  0.00274  0.33600  1.0000
  Zr  Zr3       1.0  0.33800  0.66200  0.03160  1.0000
  Zr  Zr4       1.0  0.66200  0.33800  0.96800  1.0000
  Zr  Zr5       1.0  0.20700  0.79300  0.79700  1.0000
  Zr  Zr6       1.0  0.79300  0.20700  0.20300  1.0000
  Zr  Zr7       1.0  0.19700  0.80300  0.30900  1.0000
  Zr  Zr8       1.0  0.80300  0.19700  0.69100  1.0000
  Zr  Zr9       1.0  0.43100  0.56900  0.83000  1.0000
  Zr  Zr10      1.0  0.56900  0.43100  0.17000  1.0000
  Zr  Zr11      1.0  0.50000  0.50000  0.50000  1.0000
  Zr  Zr12      1.0  0.00000  0.00000  0.00000  1.0000
  Zr  Zr13      1.0  0.17900  0.82100  0.54300  1.0000
  Zr  Zr14      1.0  0.82100  0.17900  0.45700  1.0000
