data_image0
_chemical_formula_structural       Be2La6Lu2S14
_chemical_formula_sum              "Be2 La6 Lu2 S14"
_cell_length_a       10.2597
_cell_length_b       10.2584
_cell_length_c       6.14165
_cell_angle_alpha    90
_cell_angle_beta     90
_cell_angle_gamma    119.999

_space_group_name_H-M_alt    "P 1"
_space_group_IT_number       1

loop_
  _space_group_symop_operation_xyz
  'x, y, z'

loop_
  _atom_site_type_symbol
  _atom_site_label
  _atom_site_symmetry_multiplicity
  _atom_site_fract_x
  _atom_site_fract_y
  _atom_site_fract_z
  _atom_site_occupancy
  Be  Be1       1.0  0.33300  0.66700  0.66000  1.0000
  Be  Be2       1.0  0.66700  0.33300  0.16000  1.0000
  La  La1       1.0  0.13800  0.39600  0.25000  1.0000
  La  La2       1.0  0.86200  0.60400  0.75000  1.0000
  La  La3       1.0  0.60400  0.74300  0.24900  1.0000
  La  La4       1.0  0.25700  0.86200  0.24900  1.0000
  La  La5       1.0  0.74300  0.13800  0.74900  1.0000
  La  La6       1.0  0.39600  0.25700  0.74900  1.0000
  Lu  Lu1       1.0  0.00000  0.00003  0.01750  1.0000
  Lu  Lu2       1.0  0.00001  0.00000  0.51800  1.0000
  S   S1        1.0  0.33300  0.66700  0.00960  1.0000
  S   S2        1.0  0.66700  0.33300  0.51000  1.0000
  S   S3        1.0  0.40600  0.52000  0.53100  1.0000
  S   S4        1.0  0.59400  0.48000  0.03050  1.0000
  S   S5        1.0  0.48000  0.88500  0.53100  1.0000
  S   S6        1.0  0.11500  0.59400  0.53100  1.0000
  S   S7        1.0  0.88500  0.40600  0.03060  1.0000
  S   S8        1.0  0.52000  0.11500  0.03050  1.0000
  S   S9        1.0  0.08140  0.23800  0.76800  1.0000
  S   S10       1.0  0.91900  0.76200  0.26800  1.0000
  S   S11       1.0  0.76200  0.84300  0.76800  1.0000
  S   S12       1.0  0.15600  0.91800  0.76800  1.0000
  S   S13       1.0  0.84400  0.08170  0.26800  1.0000
  S   S14       1.0  0.23800  0.15700  0.26800  1.0000
