data_image0
_chemical_formula_structural       Cs8Fe4O10
_chemical_formula_sum              "Cs8 Fe4 O10"
_cell_length_a       9.60834
_cell_length_b       9.60834
_cell_length_c       7.46607
_cell_angle_alpha    83.8616
_cell_angle_beta     96.1384
_cell_angle_gamma    44.2529

_space_group_name_H-M_alt    "P 1"
_space_group_IT_number       1

loop_
  _space_group_symop_operation_xyz
  'x, y, z'

loop_
  _atom_site_type_symbol
  _atom_site_label
  _atom_site_symmetry_multiplicity
  _atom_site_fract_x
  _atom_site_fract_y
  _atom_site_fract_z
  _atom_site_occupancy
  Cs  Cs1       1.0  0.52500  0.83600  0.38500  1.0000
  Cs  Cs2       1.0  0.83600  0.52500  0.11500  1.0000
  Cs  Cs3       1.0  0.47500  0.16400  0.61500  1.0000
  Cs  Cs4       1.0  0.16400  0.47500  0.88500  1.0000
  Cs  Cs5       1.0  0.45900  0.45900  0.25000  1.0000
  Cs  Cs6       1.0  0.54100  0.54100  0.75000  1.0000
  Cs  Cs7       1.0  0.02380  0.02380  0.25000  1.0000
  Cs  Cs8       1.0  0.97600  0.97600  0.75000  1.0000
  Fe  Fe1       1.0  0.69300  0.99900  0.09520  1.0000
  Fe  Fe2       1.0  0.99900  0.69300  0.40500  1.0000
  Fe  Fe3       1.0  0.30700  0.00111  0.90500  1.0000
  Fe  Fe4       1.0  0.00111  0.30700  0.59500  1.0000
  O   O1        1.0  0.36800  0.79000  0.04590  1.0000
  O   O2        1.0  0.79000  0.36800  0.45400  1.0000
  O   O3        1.0  0.63200  0.21000  0.95400  1.0000
  O   O4        1.0  0.21000  0.63200  0.54600  1.0000
  O   O5        1.0  0.50000  0.00000  0.00000  1.0000
  O   O6        1.0  0.00000  0.50000  0.50000  1.0000
  O   O7        1.0  0.73300  0.97900  0.36200  1.0000
  O   O8        1.0  0.97900  0.73300  0.13800  1.0000
  O   O9        1.0  0.26700  0.02070  0.63800  1.0000
  O   O10       1.0  0.02070  0.26700  0.86200  1.0000
