data_image0
_chemical_formula_structural       Br6Rb2Te
_chemical_formula_sum              "Br6 Rb2 Te1"
_cell_length_a       7.65881
_cell_length_b       7.65881
_cell_length_c       7.71772
_cell_angle_alpha    119.748
_cell_angle_beta     119.748
_cell_angle_gamma    90

_space_group_name_H-M_alt    "P 1"
_space_group_IT_number       1

loop_
  _space_group_symop_operation_xyz
  'x, y, z'

loop_
  _atom_site_type_symbol
  _atom_site_label
  _atom_site_symmetry_multiplicity
  _atom_site_fract_x
  _atom_site_fract_y
  _atom_site_fract_z
  _atom_site_occupancy
  Br  Br1       1.0  0.72800  0.22900  0.00000  1.0000
  Br  Br2       1.0  0.22900  0.27200  0.00000  1.0000
  Br  Br3       1.0  0.77100  0.72800  0.00000  1.0000
  Br  Br4       1.0  0.27200  0.77100  0.00000  1.0000
  Br  Br5       1.0  0.24800  0.24800  0.49600  1.0000
  Br  Br6       1.0  0.75200  0.75200  0.50400  1.0000
  Rb  Rb1       1.0  0.75000  0.25000  0.50000  1.0000
  Rb  Rb2       1.0  0.25000  0.75000  0.50000  1.0000
  Te  Te1       1.0  0.00000  0.00000  0.00000  1.0000
