data_image0
_chemical_formula_structural       Dy6Mn23
_chemical_formula_sum              "Dy6 Mn23"
_cell_length_a       8.33739
_cell_length_b       8.33739
_cell_length_c       8.33739
_cell_angle_alpha    60
_cell_angle_beta     60
_cell_angle_gamma    60

_space_group_name_H-M_alt    "P 1"
_space_group_IT_number       1

loop_
  _space_group_symop_operation_xyz
  'x, y, z'

loop_
  _atom_site_type_symbol
  _atom_site_label
  _atom_site_symmetry_multiplicity
  _atom_site_fract_x
  _atom_site_fract_y
  _atom_site_fract_z
  _atom_site_occupancy
  Dy  Dy1       1.0  0.70400  0.29600  0.29600  1.0000
  Dy  Dy2       1.0  0.29600  0.70400  0.70400  1.0000
  Dy  Dy3       1.0  0.29600  0.70400  0.29600  1.0000
  Dy  Dy4       1.0  0.29600  0.29600  0.70400  1.0000
  Dy  Dy5       1.0  0.70400  0.29600  0.70400  1.0000
  Dy  Dy6       1.0  0.70400  0.70400  0.29600  1.0000
  Mn  Mn1       1.0  0.00000  0.00000  0.00000  1.0000
  Mn  Mn2       1.0  0.50000  0.00000  0.00000  1.0000
  Mn  Mn3       1.0  0.00000  0.50000  0.50000  1.0000
  Mn  Mn4       1.0  0.00000  0.50000  0.00000  1.0000
  Mn  Mn5       1.0  0.00000  0.00000  0.50000  1.0000
  Mn  Mn6       1.0  0.50000  0.00000  0.50000  1.0000
  Mn  Mn7       1.0  0.50000  0.50000  0.00000  1.0000
  Mn  Mn8       1.0  0.12100  0.12100  0.12100  1.0000
  Mn  Mn9       1.0  0.12100  0.12100  0.63600  1.0000
  Mn  Mn10      1.0  0.63600  0.12100  0.12100  1.0000
  Mn  Mn11      1.0  0.12100  0.63600  0.12100  1.0000
  Mn  Mn12      1.0  0.87900  0.87900  0.87900  1.0000
  Mn  Mn13      1.0  0.87900  0.87900  0.36400  1.0000
  Mn  Mn14      1.0  0.87900  0.36400  0.87900  1.0000
  Mn  Mn15      1.0  0.36400  0.87900  0.87900  1.0000
  Mn  Mn16      1.0  0.32300  0.32300  0.32300  1.0000
  Mn  Mn17      1.0  0.32300  0.32300  0.03180  1.0000
  Mn  Mn18      1.0  0.03180  0.32300  0.32300  1.0000
  Mn  Mn19      1.0  0.32300  0.03180  0.32300  1.0000
  Mn  Mn20      1.0  0.67700  0.67700  0.67700  1.0000
  Mn  Mn21      1.0  0.67700  0.67700  0.96800  1.0000
  Mn  Mn22      1.0  0.67700  0.96800  0.67700  1.0000
  Mn  Mn23      1.0  0.96800  0.67700  0.67700  1.0000
