data_image0
_chemical_formula_structural       Dy4Ga21Ni10
_chemical_formula_sum              "Dy4 Ga21 Ni10"
_cell_length_a       10.5334
_cell_length_b       10.5334
_cell_length_c       15.584
_cell_angle_alpha    54.3069
_cell_angle_beta     125.693
_cell_angle_gamma    157.846

_space_group_name_H-M_alt    "P 1"
_space_group_IT_number       1

loop_
  _space_group_symop_operation_xyz
  'x, y, z'

loop_
  _atom_site_type_symbol
  _atom_site_label
  _atom_site_symmetry_multiplicity
  _atom_site_fract_x
  _atom_site_fract_y
  _atom_site_fract_z
  _atom_site_occupancy
  Dy  Dy1       1.0  0.22900  0.77100  0.32300  1.0000
  Dy  Dy2       1.0  0.77100  0.22900  0.67700  1.0000
  Dy  Dy3       1.0  0.88000  0.12000  0.16700  1.0000
  Dy  Dy4       1.0  0.12000  0.88000  0.83300  1.0000
  Ga  Ga1       1.0  0.60100  0.39900  0.49700  1.0000
  Ga  Ga2       1.0  0.39900  0.60100  0.50300  1.0000
  Ga  Ga3       1.0  0.61500  0.38500  0.20500  1.0000
  Ga  Ga4       1.0  0.38500  0.61500  0.79500  1.0000
  Ga  Ga5       1.0  0.75100  0.24900  0.20500  1.0000
  Ga  Ga6       1.0  0.24900  0.75100  0.79500  1.0000
  Ga  Ga7       1.0  0.99300  0.00672  0.40900  1.0000
  Ga  Ga8       1.0  0.00672  0.99300  0.59100  1.0000
  Ga  Ga9       1.0  0.37400  0.62600  0.30600  1.0000
  Ga  Ga10      1.0  0.62600  0.37400  0.69400  1.0000
  Ga  Ga11      1.0  0.06370  0.93600  0.29400  1.0000
  Ga  Ga12      1.0  0.93600  0.06370  0.70600  1.0000
  Ga  Ga13      1.0  0.46000  0.54000  0.13100  1.0000
  Ga  Ga14      1.0  0.54000  0.46000  0.86900  1.0000
  Ga  Ga15      1.0  0.11800  0.88200  0.05560  1.0000
  Ga  Ga16      1.0  0.88200  0.11800  0.94400  1.0000
  Ga  Ga17      1.0  0.50000  0.50000  0.00000  1.0000
  Ga  Ga18      1.0  0.70200  0.29800  0.00292  1.0000
  Ga  Ga19      1.0  0.29800  0.70200  0.99700  1.0000
  Ga  Ga20      1.0  0.20000  0.80000  0.50200  1.0000
  Ga  Ga21      1.0  0.80000  0.20000  0.49800  1.0000
  Ni  Ni1       1.0  0.02450  0.97600  0.10700  1.0000
  Ni  Ni2       1.0  0.97600  0.02450  0.89300  1.0000
  Ni  Ni3       1.0  0.65200  0.34800  0.38800  1.0000
  Ni  Ni4       1.0  0.34800  0.65200  0.61200  1.0000
  Ni  Ni5       1.0  0.25100  0.74900  0.11500  1.0000
  Ni  Ni6       1.0  0.74900  0.25100  0.88500  1.0000
  Ni  Ni7       1.0  0.86800  0.13200  0.39800  1.0000
  Ni  Ni8       1.0  0.13200  0.86800  0.60200  1.0000
  Ni  Ni9       1.0  0.49700  0.50300  0.31300  1.0000
  Ni  Ni10      1.0  0.50300  0.49700  0.68700  1.0000
