data_image0
_chemical_formula_structural       Fe7Ga16Ti6
_chemical_formula_sum              "Fe7 Ga16 Ti6"
_cell_length_a       8.33047
_cell_length_b       8.33047
_cell_length_c       8.33047
_cell_angle_alpha    60
_cell_angle_beta     60
_cell_angle_gamma    60

_space_group_name_H-M_alt    "P 1"
_space_group_IT_number       1

loop_
  _space_group_symop_operation_xyz
  'x, y, z'

loop_
  _atom_site_type_symbol
  _atom_site_label
  _atom_site_symmetry_multiplicity
  _atom_site_fract_x
  _atom_site_fract_y
  _atom_site_fract_z
  _atom_site_occupancy
  Fe  Fe1       1.0  0.50000  0.00000  0.00000  1.0000
  Fe  Fe2       1.0  0.00000  0.50000  0.50000  1.0000
  Fe  Fe3       1.0  0.00000  0.50000  0.00000  1.0000
  Fe  Fe4       1.0  0.00000  0.00000  0.50000  1.0000
  Fe  Fe5       1.0  0.50000  0.00000  0.50000  1.0000
  Fe  Fe6       1.0  0.50000  0.50000  0.00000  1.0000
  Fe  Fe7       1.0  0.00000  0.00000  0.00000  1.0000
  Ga  Ga1       1.0  0.35000  0.35000  0.35000  1.0000
  Ga  Ga2       1.0  0.35000  0.35000  0.95100  1.0000
  Ga  Ga3       1.0  0.95100  0.35000  0.35000  1.0000
  Ga  Ga4       1.0  0.35000  0.95100  0.35000  1.0000
  Ga  Ga5       1.0  0.65000  0.65000  0.65000  1.0000
  Ga  Ga6       1.0  0.65000  0.65000  0.04890  1.0000
  Ga  Ga7       1.0  0.65000  0.04890  0.65000  1.0000
  Ga  Ga8       1.0  0.04890  0.65000  0.65000  1.0000
  Ga  Ga9       1.0  0.12300  0.12300  0.12300  1.0000
  Ga  Ga10      1.0  0.12300  0.12300  0.63100  1.0000
  Ga  Ga11      1.0  0.63100  0.12300  0.12300  1.0000
  Ga  Ga12      1.0  0.12300  0.63100  0.12300  1.0000
  Ga  Ga13      1.0  0.87700  0.87700  0.87700  1.0000
  Ga  Ga14      1.0  0.87700  0.87700  0.36900  1.0000
  Ga  Ga15      1.0  0.87700  0.36900  0.87700  1.0000
  Ga  Ga16      1.0  0.36900  0.87700  0.87700  1.0000
  Ti  Ti1       1.0  0.72100  0.27900  0.27900  1.0000
  Ti  Ti2       1.0  0.27900  0.72100  0.72100  1.0000
  Ti  Ti3       1.0  0.27900  0.72100  0.27900  1.0000
  Ti  Ti4       1.0  0.27900  0.27900  0.72100  1.0000
  Ti  Ti5       1.0  0.72100  0.27900  0.72100  1.0000
  Ti  Ti6       1.0  0.72100  0.72100  0.27900  1.0000
