data_image0
_chemical_formula_structural       Cu2La8S14
_chemical_formula_sum              "Cu2 La8 S14"
_cell_length_a       10.2636
_cell_length_b       10.2619
_cell_length_c       6.00743
_cell_angle_alpha    90
_cell_angle_beta     90
_cell_angle_gamma    120.141

_space_group_name_H-M_alt    "P 1"
_space_group_IT_number       1

loop_
  _space_group_symop_operation_xyz
  'x, y, z'

loop_
  _atom_site_type_symbol
  _atom_site_label
  _atom_site_symmetry_multiplicity
  _atom_site_fract_x
  _atom_site_fract_y
  _atom_site_fract_z
  _atom_site_occupancy
  Cu  Cu1       1.0  0.00000  0.99900  0.25300  1.0000
  Cu  Cu2       1.0  0.00013  0.00066  0.75300  1.0000
  La  La1       1.0  0.17200  0.35800  0.24000  1.0000
  La  La2       1.0  0.82800  0.64200  0.74000  1.0000
  La  La3       1.0  0.64100  0.81200  0.24100  1.0000
  La  La4       1.0  0.18700  0.82900  0.23900  1.0000
  La  La5       1.0  0.81300  0.17100  0.73900  1.0000
  La  La6       1.0  0.35900  0.18800  0.74100  1.0000
  La  La7       1.0  0.33100  0.66600  0.69600  1.0000
  La  La8       1.0  0.66900  0.33400  0.19600  1.0000
  S   S1        1.0  0.33300  0.66700  0.15300  1.0000
  S   S2        1.0  0.66700  0.33300  0.65300  1.0000
  S   S3        1.0  0.47700  0.51700  0.50500  1.0000
  S   S4        1.0  0.52300  0.48300  0.00455  1.0000
  S   S5        1.0  0.48400  0.96300  0.50200  1.0000
  S   S6        1.0  0.03290  0.51900  0.50000  1.0000
  S   S7        1.0  0.96700  0.48100  0.00000  1.0000
  S   S8        1.0  0.51600  0.03690  0.00160  1.0000
  S   S9        1.0  0.12400  0.25900  0.75500  1.0000
  S   S10       1.0  0.87600  0.74100  0.25500  1.0000
  S   S11       1.0  0.74200  0.86600  0.75500  1.0000
  S   S12       1.0  0.13400  0.87700  0.75500  1.0000
  S   S13       1.0  0.86600  0.12300  0.25500  1.0000
  S   S14       1.0  0.25800  0.13400  0.25500  1.0000
