data_image0
_chemical_formula_structural       C4Nb16Rh8
_chemical_formula_sum              "C4 Nb16 Rh8"
_cell_length_a       8.48261
_cell_length_b       8.48261
_cell_length_c       8.48261
_cell_angle_alpha    60
_cell_angle_beta     60
_cell_angle_gamma    60

_space_group_name_H-M_alt    "P 1"
_space_group_IT_number       1

loop_
  _space_group_symop_operation_xyz
  'x, y, z'

loop_
  _atom_site_type_symbol
  _atom_site_label
  _atom_site_symmetry_multiplicity
  _atom_site_fract_x
  _atom_site_fract_y
  _atom_site_fract_z
  _atom_site_occupancy
  C   C1        1.0  0.50000  0.50000  0.50000  1.0000
  C   C2        1.0  0.50000  0.50000  0.00000  1.0000
  C   C3        1.0  0.00000  0.50000  0.50000  1.0000
  C   C4        1.0  0.50000  0.00000  0.50000  1.0000
  Nb  Nb1       1.0  0.80800  0.44200  0.44200  1.0000
  Nb  Nb2       1.0  0.44200  0.80800  0.80800  1.0000
  Nb  Nb3       1.0  0.44200  0.80800  0.44200  1.0000
  Nb  Nb4       1.0  0.44200  0.44200  0.80800  1.0000
  Nb  Nb5       1.0  0.80800  0.44200  0.80800  1.0000
  Nb  Nb6       1.0  0.80800  0.80800  0.44200  1.0000
  Nb  Nb7       1.0  0.55800  0.19200  0.55800  1.0000
  Nb  Nb8       1.0  0.19200  0.55800  0.19200  1.0000
  Nb  Nb9       1.0  0.19200  0.55800  0.55800  1.0000
  Nb  Nb10      1.0  0.55800  0.55800  0.19200  1.0000
  Nb  Nb11      1.0  0.55800  0.19200  0.19200  1.0000
  Nb  Nb12      1.0  0.19200  0.19200  0.55800  1.0000
  Nb  Nb13      1.0  0.00000  0.00000  0.00000  1.0000
  Nb  Nb14      1.0  0.00000  0.00000  0.50000  1.0000
  Nb  Nb15      1.0  0.50000  0.00000  0.00000  1.0000
  Nb  Nb16      1.0  0.00000  0.50000  0.00000  1.0000
  Rh  Rh1       1.0  0.21200  0.21200  0.21200  1.0000
  Rh  Rh2       1.0  0.21200  0.21200  0.86300  1.0000
  Rh  Rh3       1.0  0.86300  0.21200  0.21200  1.0000
  Rh  Rh4       1.0  0.21200  0.86300  0.21200  1.0000
  Rh  Rh5       1.0  0.78800  0.78800  0.78800  1.0000
  Rh  Rh6       1.0  0.78800  0.78800  0.13700  1.0000
  Rh  Rh7       1.0  0.78800  0.13700  0.78800  1.0000
  Rh  Rh8       1.0  0.13700  0.78800  0.78800  1.0000
