data_image0
_chemical_formula_structural       Fe2La8S14
_chemical_formula_sum              "Fe2 La8 S14"
_cell_length_a       10.1172
_cell_length_b       10.0537
_cell_length_c       7.05225
_cell_angle_alpha    90
_cell_angle_beta     90
_cell_angle_gamma    121.992

_space_group_name_H-M_alt    "P 1"
_space_group_IT_number       1

loop_
  _space_group_symop_operation_xyz
  'x, y, z'

loop_
  _atom_site_type_symbol
  _atom_site_label
  _atom_site_symmetry_multiplicity
  _atom_site_fract_x
  _atom_site_fract_y
  _atom_site_fract_z
  _atom_site_occupancy
  Fe  Fe1       1.0  0.03390  0.00347  0.96700  1.0000
  Fe  Fe2       1.0  0.96600  0.99700  0.46700  1.0000
  La  La1       1.0  0.14900  0.37300  0.20900  1.0000
  La  La2       1.0  0.85100  0.62700  0.70900  1.0000
  La  La3       1.0  0.61500  0.76600  0.29500  1.0000
  La  La4       1.0  0.24000  0.85900  0.23200  1.0000
  La  La5       1.0  0.76000  0.14100  0.73200  1.0000
  La  La6       1.0  0.38500  0.23400  0.79500  1.0000
  La  La7       1.0  0.26100  0.60900  0.70700  1.0000
  La  La8       1.0  0.73900  0.39100  0.20700  1.0000
  S   S1        1.0  0.35900  0.68500  0.07440  1.0000
  S   S2        1.0  0.64100  0.31500  0.57400  1.0000
  S   S3        1.0  0.40500  0.48800  0.49100  1.0000
  S   S4        1.0  0.59500  0.51200  0.99100  1.0000
  S   S5        1.0  0.46400  0.89300  0.51700  1.0000
  S   S6        1.0  0.04310  0.54700  0.42500  1.0000
  S   S7        1.0  0.95700  0.45300  0.92500  1.0000
  S   S8        1.0  0.53600  0.10700  0.01750  1.0000
  S   S9        1.0  0.10600  0.24400  0.81900  1.0000
  S   S10       1.0  0.89400  0.75600  0.31900  1.0000
  S   S11       1.0  0.80800  0.88400  0.75400  1.0000
  S   S12       1.0  0.15400  0.88500  0.82800  1.0000
  S   S13       1.0  0.84600  0.11500  0.32800  1.0000
  S   S14       1.0  0.19200  0.11600  0.25400  1.0000
