data_image0
_chemical_formula_structural       Co2Dy16Ga6
_chemical_formula_sum              "Co2 Dy16 Ga6"
_cell_length_a       10.0077
_cell_length_b       10.0077
_cell_length_c       6.87065
_cell_angle_alpha    90
_cell_angle_beta     90
_cell_angle_gamma    120.011

_space_group_name_H-M_alt    "P 1"
_space_group_IT_number       1

loop_
  _space_group_symop_operation_xyz
  'x, y, z'

loop_
  _atom_site_type_symbol
  _atom_site_label
  _atom_site_symmetry_multiplicity
  _atom_site_fract_x
  _atom_site_fract_y
  _atom_site_fract_z
  _atom_site_occupancy
  Co  Co1       1.0  0.33300  0.66700  0.05750  1.0000
  Co  Co2       1.0  0.66700  0.33300  0.55700  1.0000
  Dy  Dy1       1.0  0.00000  0.00002  0.26800  1.0000
  Dy  Dy2       1.0  0.00003  0.00000  0.76800  1.0000
  Dy  Dy3       1.0  0.17300  0.82700  0.99000  1.0000
  Dy  Dy4       1.0  0.82700  0.17300  0.49000  1.0000
  Dy  Dy5       1.0  0.17300  0.34500  0.99000  1.0000
  Dy  Dy6       1.0  0.65500  0.82700  0.99000  1.0000
  Dy  Dy7       1.0  0.34500  0.17300  0.49000  1.0000
  Dy  Dy8       1.0  0.82700  0.65500  0.49000  1.0000
  Dy  Dy9       1.0  0.46400  0.53600  0.29200  1.0000
  Dy  Dy10      1.0  0.53600  0.46400  0.79200  1.0000
  Dy  Dy11      1.0  0.46400  0.92700  0.29200  1.0000
  Dy  Dy12      1.0  0.07270  0.53600  0.29200  1.0000
  Dy  Dy13      1.0  0.92700  0.46400  0.79200  1.0000
  Dy  Dy14      1.0  0.53600  0.07270  0.79200  1.0000
  Dy  Dy15      1.0  0.33300  0.66700  0.67200  1.0000
  Dy  Dy16      1.0  0.66700  0.33300  0.17200  1.0000
  Ga  Ga1       1.0  0.16400  0.83600  0.54000  1.0000
  Ga  Ga2       1.0  0.83600  0.16400  0.03970  1.0000
  Ga  Ga3       1.0  0.16400  0.32700  0.54000  1.0000
  Ga  Ga4       1.0  0.67300  0.83600  0.54000  1.0000
  Ga  Ga5       1.0  0.32700  0.16400  0.03970  1.0000
  Ga  Ga6       1.0  0.83600  0.67300  0.03970  1.0000
