data_image0
_chemical_formula_structural       Mn23Tb6
_chemical_formula_sum              "Mn23 Tb6"
_cell_length_a       8.35583
_cell_length_b       8.35583
_cell_length_c       8.35583
_cell_angle_alpha    60
_cell_angle_beta     60
_cell_angle_gamma    60

_space_group_name_H-M_alt    "P 1"
_space_group_IT_number       1

loop_
  _space_group_symop_operation_xyz
  'x, y, z'

loop_
  _atom_site_type_symbol
  _atom_site_label
  _atom_site_symmetry_multiplicity
  _atom_site_fract_x
  _atom_site_fract_y
  _atom_site_fract_z
  _atom_site_occupancy
  Mn  Mn1       1.0  0.00000  0.00000  0.00000  1.0000
  Mn  Mn2       1.0  0.50000  0.00000  0.00000  1.0000
  Mn  Mn3       1.0  1.00000  0.50000  0.50000  1.0000
  Mn  Mn4       1.0  0.00000  0.50000  0.00000  1.0000
  Mn  Mn5       1.0  0.00000  0.00000  0.50000  1.0000
  Mn  Mn6       1.0  0.50000  0.00000  0.50000  1.0000
  Mn  Mn7       1.0  0.50000  0.50000  1.00000  1.0000
  Mn  Mn8       1.0  0.12200  0.12200  0.12200  1.0000
  Mn  Mn9       1.0  0.12200  0.12200  0.63500  1.0000
  Mn  Mn10      1.0  0.63500  0.12200  0.12200  1.0000
  Mn  Mn11      1.0  0.12200  0.63500  0.12200  1.0000
  Mn  Mn12      1.0  0.87800  0.87800  0.87800  1.0000
  Mn  Mn13      1.0  0.87800  0.87800  0.36500  1.0000
  Mn  Mn14      1.0  0.87800  0.36500  0.87800  1.0000
  Mn  Mn15      1.0  0.36500  0.87800  0.87800  1.0000
  Mn  Mn16      1.0  0.32300  0.32300  0.32300  1.0000
  Mn  Mn17      1.0  0.32300  0.32300  0.03210  1.0000
  Mn  Mn18      1.0  0.03210  0.32300  0.32300  1.0000
  Mn  Mn19      1.0  0.32300  0.03210  0.32300  1.0000
  Mn  Mn20      1.0  0.67700  0.67700  0.67700  1.0000
  Mn  Mn21      1.0  0.67700  0.67700  0.96800  1.0000
  Mn  Mn22      1.0  0.67700  0.96800  0.67700  1.0000
  Mn  Mn23      1.0  0.96800  0.67700  0.67700  1.0000
  Tb  Tb1       1.0  0.70400  0.29600  0.29600  1.0000
  Tb  Tb2       1.0  0.29600  0.70400  0.70400  1.0000
  Tb  Tb3       1.0  0.29600  0.70400  0.29600  1.0000
  Tb  Tb4       1.0  0.29600  0.29600  0.70400  1.0000
  Tb  Tb5       1.0  0.70400  0.29600  0.70400  1.0000
  Tb  Tb6       1.0  0.70400  0.70400  0.29600  1.0000
