data_image0
_chemical_formula_structural       Mn8Ni4Pr
_chemical_formula_sum              "Mn8 Ni4 Pr1"
_cell_length_a       6.32757
_cell_length_b       6.32757
_cell_length_c       6.32757
_cell_angle_alpha    97.8943
_cell_angle_beta     97.8943
_cell_angle_gamma    136.495

_space_group_name_H-M_alt    "P 1"
_space_group_IT_number       1

loop_
  _space_group_symop_operation_xyz
  'x, y, z'

loop_
  _atom_site_type_symbol
  _atom_site_label
  _atom_site_symmetry_multiplicity
  _atom_site_fract_x
  _atom_site_fract_y
  _atom_site_fract_z
  _atom_site_occupancy
  Mn  Mn1       1.0  0.50000  0.50000  0.50000  1.0000
  Mn  Mn2       1.0  0.00000  0.00000  0.50000  1.0000
  Mn  Mn3       1.0  0.50000  0.00000  0.00000  1.0000
  Mn  Mn4       1.0  0.00000  0.50000  0.00000  1.0000
  Mn  Mn5       1.0  0.50000  0.26500  0.76500  1.0000
  Mn  Mn6       1.0  0.50000  0.73500  0.23500  1.0000
  Mn  Mn7       1.0  0.73500  0.50000  0.23500  1.0000
  Mn  Mn8       1.0  0.26500  0.50000  0.76500  1.0000
  Ni  Ni1       1.0  0.00000  0.35400  0.35400  1.0000
  Ni  Ni2       1.0  0.00000  0.64600  0.64600  1.0000
  Ni  Ni3       1.0  0.64600  0.00000  0.64600  1.0000
  Ni  Ni4       1.0  0.35400  0.00000  0.35400  1.0000
  Pr  Pr1       1.0  0.00000  0.00000  0.00000  1.0000
