data_image0
_chemical_formula_structural       Ce4Zn34
_chemical_formula_sum              "Ce4 Zn34"
_cell_length_a       8.92734
_cell_length_b       8.92751
_cell_length_c       8.69474
_cell_angle_alpha    89.999
_cell_angle_beta     90.0018
_cell_angle_gamma    120.013

_space_group_name_H-M_alt    "P 1"
_space_group_IT_number       1

loop_
  _space_group_symop_operation_xyz
  'x, y, z'

loop_
  _atom_site_type_symbol
  _atom_site_label
  _atom_site_symmetry_multiplicity
  _atom_site_fract_x
  _atom_site_fract_y
  _atom_site_fract_z
  _atom_site_occupancy
  Ce  Ce1       1.0  0.33300  0.66700  0.75000  1.0000
  Ce  Ce2       1.0  0.66700  0.33300  0.25000  1.0000
  Ce  Ce3       1.0  0.00001  0.00004  0.25000  1.0000
  Ce  Ce4       1.0  0.00001  0.00000  0.75000  1.0000
  Zn  Zn1       1.0  0.33000  0.95800  0.25000  1.0000
  Zn  Zn2       1.0  0.67000  0.04160  0.75000  1.0000
  Zn  Zn3       1.0  0.04170  0.37100  0.25000  1.0000
  Zn  Zn4       1.0  0.62900  0.67000  0.25000  1.0000
  Zn  Zn5       1.0  0.37100  0.33000  0.75000  1.0000
  Zn  Zn6       1.0  0.95800  0.62900  0.75000  1.0000
  Zn  Zn7       1.0  0.37100  0.04170  0.75000  1.0000
  Zn  Zn8       1.0  0.67000  0.62900  0.75000  1.0000
  Zn  Zn9       1.0  0.95800  0.33000  0.75000  1.0000
  Zn  Zn10      1.0  0.04170  0.67000  0.25000  1.0000
  Zn  Zn11      1.0  0.33000  0.37100  0.25000  1.0000
  Zn  Zn12      1.0  0.62900  0.95800  0.25000  1.0000
  Zn  Zn13      1.0  0.50000  0.00007  0.00000  1.0000
  Zn  Zn14      1.0  0.50000  0.00000  0.50000  1.0000
  Zn  Zn15      1.0  0.00005  0.50000  0.00000  1.0000
  Zn  Zn16      1.0  0.50000  0.50000  1.00000  1.0000
  Zn  Zn17      1.0  0.50000  0.50000  0.50000  1.0000
  Zn  Zn18      1.0  0.00000  0.50000  0.50000  1.0000
  Zn  Zn19      1.0  0.33300  0.66700  0.10400  1.0000
  Zn  Zn20      1.0  0.66700  0.33300  0.60400  1.0000
  Zn  Zn21      1.0  0.66700  0.33300  0.89600  1.0000
  Zn  Zn22      1.0  0.33300  0.66700  0.39600  1.0000
  Zn  Zn23      1.0  0.16300  0.32600  0.98000  1.0000
  Zn  Zn24      1.0  0.83700  0.67400  0.48000  1.0000
  Zn  Zn25      1.0  0.67400  0.83700  0.98000  1.0000
  Zn  Zn26      1.0  0.16300  0.83700  0.98000  1.0000
  Zn  Zn27      1.0  0.83700  0.16300  0.48000  1.0000
  Zn  Zn28      1.0  0.32600  0.16300  0.48000  1.0000
  Zn  Zn29      1.0  0.83700  0.67400  0.02030  1.0000
  Zn  Zn30      1.0  0.83700  0.16300  0.02030  1.0000
  Zn  Zn31      1.0  0.32600  0.16300  0.02030  1.0000
  Zn  Zn32      1.0  0.67400  0.83700  0.52000  1.0000
  Zn  Zn33      1.0  0.16300  0.83700  0.52000  1.0000
  Zn  Zn34      1.0  0.16300  0.32600  0.52000  1.0000
