data_image0
_chemical_formula_structural       Co2Li11O8
_chemical_formula_sum              "Co2 Li11 O8"
_cell_length_a       6.39426
_cell_length_b       6.39426
_cell_length_c       4.54196
_cell_angle_alpha    89.4793
_cell_angle_beta     89.4793
_cell_angle_gamma    90.9468

_space_group_name_H-M_alt    "P 1"
_space_group_IT_number       1

loop_
  _space_group_symop_operation_xyz
  'x, y, z'

loop_
  _atom_site_type_symbol
  _atom_site_label
  _atom_site_symmetry_multiplicity
  _atom_site_fract_x
  _atom_site_fract_y
  _atom_site_fract_z
  _atom_site_occupancy
  Co  Co1       1.0  0.76100  0.23900  0.75000  1.0000
  Co  Co2       1.0  0.25000  0.75000  0.25000  1.0000
  Li  Li1       1.0  0.47600  0.52400  0.75000  1.0000
  Li  Li2       1.0  0.53400  0.03960  0.23100  1.0000
  Li  Li3       1.0  0.96000  0.46600  0.26900  1.0000
  Li  Li4       1.0  0.97000  0.02970  0.25000  1.0000
  Li  Li5       1.0  0.54000  0.46000  0.25000  1.0000
  Li  Li6       1.0  0.46300  0.96500  0.73700  1.0000
  Li  Li7       1.0  0.03460  0.53700  0.76300  1.0000
  Li  Li8       1.0  0.74400  0.75100  0.30500  1.0000
  Li  Li9       1.0  0.22500  0.22500  0.70500  1.0000
  Li  Li10      1.0  0.24900  0.25600  0.19500  1.0000
  Li  Li11      1.0  0.77500  0.77500  0.79500  1.0000
  O   O1        1.0  0.75000  0.51900  0.54900  1.0000
  O   O2        1.0  0.73300  0.99200  0.51700  1.0000
  O   O3        1.0  0.25200  0.49100  0.46200  1.0000
  O   O4        1.0  0.26000  0.00715  0.43200  1.0000
  O   O5        1.0  0.48100  0.25000  0.95100  1.0000
  O   O6        1.0  0.00810  0.26700  0.98300  1.0000
  O   O7        1.0  0.50900  0.74800  0.03790  1.0000
  O   O8        1.0  0.99300  0.74000  0.06830  1.0000
