data_image0
_chemical_formula_structural       C4Os8Zr16
_chemical_formula_sum              "C4 Os8 Zr16"
_cell_length_a       8.85286
_cell_length_b       8.85286
_cell_length_c       8.85286
_cell_angle_alpha    60
_cell_angle_beta     60
_cell_angle_gamma    60

_space_group_name_H-M_alt    "P 1"
_space_group_IT_number       1

loop_
  _space_group_symop_operation_xyz
  'x, y, z'

loop_
  _atom_site_type_symbol
  _atom_site_label
  _atom_site_symmetry_multiplicity
  _atom_site_fract_x
  _atom_site_fract_y
  _atom_site_fract_z
  _atom_site_occupancy
  C   C1        1.0  0.50000  0.50000  0.50000  1.0000
  C   C2        1.0  0.50000  0.50000  0.00000  1.0000
  C   C3        1.0  0.00000  0.50000  0.50000  1.0000
  C   C4        1.0  0.50000  0.00000  0.50000  1.0000
  Os  Os1       1.0  0.20900  0.20900  0.20900  1.0000
  Os  Os2       1.0  0.20900  0.20900  0.87200  1.0000
  Os  Os3       1.0  0.87200  0.20900  0.20900  1.0000
  Os  Os4       1.0  0.20900  0.87200  0.20900  1.0000
  Os  Os5       1.0  0.79100  0.79100  0.79100  1.0000
  Os  Os6       1.0  0.79100  0.79100  0.12800  1.0000
  Os  Os7       1.0  0.79100  0.12800  0.79100  1.0000
  Os  Os8       1.0  0.12800  0.79100  0.79100  1.0000
  Zr  Zr1       1.0  0.81200  0.43800  0.43800  1.0000
  Zr  Zr2       1.0  0.43800  0.81200  0.81200  1.0000
  Zr  Zr3       1.0  0.43800  0.81200  0.43800  1.0000
  Zr  Zr4       1.0  0.43800  0.43800  0.81200  1.0000
  Zr  Zr5       1.0  0.81200  0.43800  0.81200  1.0000
  Zr  Zr6       1.0  0.81200  0.81200  0.43800  1.0000
  Zr  Zr7       1.0  0.56200  0.18800  0.56200  1.0000
  Zr  Zr8       1.0  0.18800  0.56200  0.18800  1.0000
  Zr  Zr9       1.0  0.18800  0.56200  0.56200  1.0000
  Zr  Zr10      1.0  0.56200  0.56200  0.18800  1.0000
  Zr  Zr11      1.0  0.56200  0.18800  0.18800  1.0000
  Zr  Zr12      1.0  0.18800  0.18800  0.56200  1.0000
  Zr  Zr13      1.0  0.00000  0.00000  0.00000  1.0000
  Zr  Zr14      1.0  0.00000  0.00000  0.50000  1.0000
  Zr  Zr15      1.0  0.50000  0.00000  0.00000  1.0000
  Zr  Zr16      1.0  0.00000  0.50000  0.00000  1.0000
