data_image0
_chemical_formula_structural       CoS17U8
_chemical_formula_sum              "Co1 S17 U8"
_cell_length_a       7.68481
_cell_length_b       7.68481
_cell_length_c       10.1648
_cell_angle_alpha    80.2693
_cell_angle_beta     99.7307
_cell_angle_gamma    115.668

_space_group_name_H-M_alt    "P 1"
_space_group_IT_number       1

loop_
  _space_group_symop_operation_xyz
  'x, y, z'

loop_
  _atom_site_type_symbol
  _atom_site_label
  _atom_site_symmetry_multiplicity
  _atom_site_fract_x
  _atom_site_fract_y
  _atom_site_fract_z
  _atom_site_occupancy
  Co  Co1       1.0  0.00000  0.00000  0.00000  1.0000
  S   S1        1.0  0.21600  0.78400  0.72100  1.0000
  S   S2        1.0  0.78400  0.21600  0.27900  1.0000
  S   S3        1.0  0.32000  0.05600  0.97100  1.0000
  S   S4        1.0  0.05600  0.32000  0.02850  1.0000
  S   S5        1.0  0.68000  0.94400  0.02850  1.0000
  S   S6        1.0  0.94400  0.68000  0.97100  1.0000
  S   S7        1.0  0.43500  0.18200  0.46300  1.0000
  S   S8        1.0  0.18200  0.43500  0.53700  1.0000
  S   S9        1.0  0.56500  0.81800  0.53700  1.0000
  S   S10       1.0  0.81800  0.56500  0.46300  1.0000
  S   S11       1.0  0.52200  0.47800  0.17100  1.0000
  S   S12       1.0  0.47800  0.52200  0.82900  1.0000
  S   S13       1.0  0.29900  0.70100  0.24100  1.0000
  S   S14       1.0  0.70100  0.29900  0.75900  1.0000
  S   S15       1.0  0.00000  1.00000  0.50000  1.0000
  S   S16       1.0  0.05570  0.94400  0.22300  1.0000
  S   S17       1.0  0.94400  0.05570  0.77700  1.0000
  U   U1        1.0  0.30100  0.17900  0.70300  1.0000
  U   U2        1.0  0.17900  0.30100  0.29700  1.0000
  U   U3        1.0  0.69900  0.82100  0.29700  1.0000
  U   U4        1.0  0.82100  0.69900  0.70300  1.0000
  U   U5        1.0  0.68300  0.31700  0.01800  1.0000
  U   U6        1.0  0.31700  0.68300  0.98200  1.0000
  U   U7        1.0  0.20300  0.79700  0.45300  1.0000
  U   U8        1.0  0.79700  0.20300  0.54700  1.0000
