data_image0
_chemical_formula_structural       C12Rh5Tb8
_chemical_formula_sum              "C12 Rh5 Tb8"
_cell_length_a       14.1256
_cell_length_b       14.1256
_cell_length_c       7.41981
_cell_angle_alpha    86.3104
_cell_angle_beta     93.6896
_cell_angle_gamma    165.453

_space_group_name_H-M_alt    "P 1"
_space_group_IT_number       1

loop_
  _space_group_symop_operation_xyz
  'x, y, z'

loop_
  _atom_site_type_symbol
  _atom_site_label
  _atom_site_symmetry_multiplicity
  _atom_site_fract_x
  _atom_site_fract_y
  _atom_site_fract_z
  _atom_site_occupancy
  C   C1        1.0  0.20700  0.79300  0.86900  1.0000
  C   C2        1.0  0.79300  0.20700  0.13100  1.0000
  C   C3        1.0  0.16800  0.83200  0.34700  1.0000
  C   C4        1.0  0.83200  0.16800  0.65300  1.0000
  C   C5        1.0  0.04800  0.95200  0.61300  1.0000
  C   C6        1.0  0.95200  0.04800  0.38700  1.0000
  C   C7        1.0  0.02270  0.97700  0.75400  1.0000
  C   C8        1.0  0.97700  0.02270  0.24600  1.0000
  C   C9        1.0  0.15900  0.84100  0.88100  1.0000
  C   C10       1.0  0.84100  0.15900  0.11900  1.0000
  C   C11       1.0  0.21600  0.78400  0.36600  1.0000
  C   C12       1.0  0.78400  0.21600  0.63400  1.0000
  Rh  Rh1       1.0  0.10900  0.89100  0.48900  1.0000
  Rh  Rh2       1.0  0.89100  0.10900  0.51100  1.0000
  Rh  Rh3       1.0  0.00000  0.00000  0.00000  1.0000
  Rh  Rh4       1.0  0.11700  0.88300  0.12600  1.0000
  Rh  Rh5       1.0  0.88300  0.11700  0.87400  1.0000
  Tb  Tb1       1.0  0.29400  0.70600  0.88200  1.0000
  Tb  Tb2       1.0  0.70600  0.29400  0.11800  1.0000
  Tb  Tb3       1.0  0.41200  0.58800  0.17400  1.0000
  Tb  Tb4       1.0  0.58800  0.41200  0.82600  1.0000
  Tb  Tb5       1.0  0.30100  0.69900  0.39100  1.0000
  Tb  Tb6       1.0  0.69900  0.30100  0.60900  1.0000
  Tb  Tb7       1.0  0.45300  0.54700  0.70600  1.0000
  Tb  Tb8       1.0  0.54700  0.45300  0.29400  1.0000
