data_image0
_chemical_formula_structural       Ce12Ga8Ni8
_chemical_formula_sum              "Ce12 Ga8 Ni8"
_cell_length_a       5.74723
_cell_length_b       8.19868
_cell_length_c       13.1538
_cell_angle_alpha    90
_cell_angle_beta     90
_cell_angle_gamma    90

_space_group_name_H-M_alt    "P 1"
_space_group_IT_number       1

loop_
  _space_group_symop_operation_xyz
  'x, y, z'

loop_
  _atom_site_type_symbol
  _atom_site_label
  _atom_site_symmetry_multiplicity
  _atom_site_fract_x
  _atom_site_fract_y
  _atom_site_fract_z
  _atom_site_occupancy
  Ce  Ce1       1.0  0.35100  0.25600  0.25000  1.0000
  Ce  Ce2       1.0  0.64900  0.74400  0.75000  1.0000
  Ce  Ce3       1.0  0.35100  0.24400  0.75000  1.0000
  Ce  Ce4       1.0  0.64900  0.75600  0.25000  1.0000
  Ce  Ce5       1.0  0.14700  0.60800  0.09830  1.0000
  Ce  Ce6       1.0  0.85300  0.39200  0.59800  1.0000
  Ce  Ce7       1.0  0.14700  0.89200  0.90200  1.0000
  Ce  Ce8       1.0  0.85300  0.10800  0.40200  1.0000
  Ce  Ce9       1.0  0.85300  0.39200  0.90200  1.0000
  Ce  Ce10      1.0  0.14700  0.60800  0.40200  1.0000
  Ce  Ce11      1.0  0.85300  0.10800  0.09830  1.0000
  Ce  Ce12      1.0  0.14700  0.89200  0.59800  1.0000
  Ga  Ga1       1.0  0.83600  0.40200  0.25000  1.0000
  Ga  Ga2       1.0  0.16400  0.59800  0.75000  1.0000
  Ga  Ga3       1.0  0.83600  0.09760  0.75000  1.0000
  Ga  Ga4       1.0  0.16400  0.90200  0.25000  1.0000
  Ga  Ga5       1.0  0.35800  0.25000  0.00000  1.0000
  Ga  Ga6       1.0  0.64200  0.75000  0.50000  1.0000
  Ga  Ga7       1.0  0.64200  0.75000  0.00000  1.0000
  Ga  Ga8       1.0  0.35800  0.25000  0.50000  1.0000
  Ni  Ni1       1.0  0.61400  0.46800  0.08810  1.0000
  Ni  Ni2       1.0  0.38600  0.53200  0.58800  1.0000
  Ni  Ni3       1.0  0.61400  0.03200  0.91200  1.0000
  Ni  Ni4       1.0  0.38600  0.96800  0.41200  1.0000
  Ni  Ni5       1.0  0.38600  0.53200  0.91200  1.0000
  Ni  Ni6       1.0  0.61400  0.46800  0.41200  1.0000
  Ni  Ni7       1.0  0.38600  0.96800  0.08810  1.0000
  Ni  Ni8       1.0  0.61400  0.03200  0.58800  1.0000
