data_image0
_chemical_formula_structural       Co6Dy4Ge10
_chemical_formula_sum              "Co6 Dy4 Ge10"
_cell_length_a       8.05333
_cell_length_b       8.05776
_cell_length_c       5.6966
_cell_angle_alpha    70.4767
_cell_angle_beta     109.538
_cell_angle_gamma    86.2909

_space_group_name_H-M_alt    "P 1"
_space_group_IT_number       1

loop_
  _space_group_symop_operation_xyz
  'x, y, z'

loop_
  _atom_site_type_symbol
  _atom_site_label
  _atom_site_symmetry_multiplicity
  _atom_site_fract_x
  _atom_site_fract_y
  _atom_site_fract_z
  _atom_site_occupancy
  Co  Co1       1.0  0.99700  0.99700  0.75000  1.0000
  Co  Co2       1.0  0.00285  0.00288  0.25000  1.0000
  Co  Co3       1.0  0.73800  0.54400  0.62000  1.0000
  Co  Co4       1.0  0.45600  0.26200  0.12000  1.0000
  Co  Co5       1.0  0.26200  0.45600  0.38000  1.0000
  Co  Co6       1.0  0.54400  0.73800  0.88000  1.0000
  Dy  Dy1       1.0  0.59200  0.12800  0.73300  1.0000
  Dy  Dy2       1.0  0.12800  0.59200  0.76700  1.0000
  Dy  Dy3       1.0  0.87200  0.40800  0.23300  1.0000
  Dy  Dy4       1.0  0.40800  0.87200  0.26700  1.0000
  Ge  Ge1       1.0  0.49100  0.49100  0.75000  1.0000
  Ge  Ge2       1.0  0.50900  0.50900  0.25000  1.0000
  Ge  Ge3       1.0  0.22600  0.22600  0.75000  1.0000
  Ge  Ge4       1.0  0.77400  0.77400  0.25000  1.0000
  Ge  Ge5       1.0  0.92100  0.26200  0.82700  1.0000
  Ge  Ge6       1.0  0.26200  0.92100  0.67300  1.0000
  Ge  Ge7       1.0  0.21300  0.21300  0.25000  1.0000
  Ge  Ge8       1.0  0.78700  0.78700  0.75000  1.0000
  Ge  Ge9       1.0  0.73800  0.07900  0.32700  1.0000
  Ge  Ge10      1.0  0.07900  0.73800  0.17300  1.0000
