data_image0
_chemical_formula_structural       Ca4S16Tm8
_chemical_formula_sum              "Ca4 S16 Tm8"
_cell_length_a       12.8534
_cell_length_b       3.8652
_cell_length_c       13.0297
_cell_angle_alpha    90
_cell_angle_beta     90
_cell_angle_gamma    90

_space_group_name_H-M_alt    "P 1"
_space_group_IT_number       1

loop_
  _space_group_symop_operation_xyz
  'x, y, z'

loop_
  _atom_site_type_symbol
  _atom_site_label
  _atom_site_symmetry_multiplicity
  _atom_site_fract_x
  _atom_site_fract_y
  _atom_site_fract_z
  _atom_site_occupancy
  Ca  Ca1       1.0  0.36600  0.25000  0.41800  1.0000
  Ca  Ca2       1.0  0.13400  0.75000  0.91800  1.0000
  Ca  Ca3       1.0  0.86600  0.25000  0.08250  1.0000
  Ca  Ca4       1.0  0.63400  0.75000  0.58200  1.0000
  S   S1        1.0  0.47100  0.25000  0.61800  1.0000
  S   S2        1.0  0.02870  0.75000  0.11800  1.0000
  S   S3        1.0  0.97100  0.25000  0.88200  1.0000
  S   S4        1.0  0.52900  0.75000  0.38200  1.0000
  S   S5        1.0  0.25900  0.25000  0.02750  1.0000
  S   S6        1.0  0.24100  0.75000  0.52700  1.0000
  S   S7        1.0  0.75900  0.25000  0.47300  1.0000
  S   S8        1.0  0.74100  0.75000  0.97300  1.0000
  S   S9        1.0  0.03460  0.25000  0.38300  1.0000
  S   S10       1.0  0.46500  0.75000  0.88300  1.0000
  S   S11       1.0  0.53500  0.25000  0.11700  1.0000
  S   S12       1.0  0.96500  0.75000  0.61700  1.0000
  S   S13       1.0  0.21900  0.25000  0.76300  1.0000
  S   S14       1.0  0.28100  0.75000  0.26300  1.0000
  S   S15       1.0  0.71900  0.25000  0.73700  1.0000
  S   S16       1.0  0.78100  0.75000  0.23700  1.0000
  Tm  Tm1       1.0  0.10600  0.25000  0.58500  1.0000
  Tm  Tm2       1.0  0.39400  0.75000  0.08530  1.0000
  Tm  Tm3       1.0  0.60600  0.25000  0.91500  1.0000
  Tm  Tm4       1.0  0.89400  0.75000  0.41500  1.0000
  Tm  Tm5       1.0  0.14500  0.25000  0.20200  1.0000
  Tm  Tm6       1.0  0.35500  0.75000  0.70200  1.0000
  Tm  Tm7       1.0  0.64500  0.25000  0.29800  1.0000
  Tm  Tm8       1.0  0.85500  0.75000  0.79800  1.0000
