data_image0
_chemical_formula_structural       Co6P6S18
_chemical_formula_sum              "Co6 P6 S18"
_cell_length_a       6.01208
_cell_length_b       6.01208
_cell_length_c       18.26
_cell_angle_alpha    90
_cell_angle_beta     90
_cell_angle_gamma    120

_space_group_name_H-M_alt    "P 1"
_space_group_IT_number       1

loop_
  _space_group_symop_operation_xyz
  'x, y, z'

loop_
  _atom_site_type_symbol
  _atom_site_label
  _atom_site_symmetry_multiplicity
  _atom_site_fract_x
  _atom_site_fract_y
  _atom_site_fract_z
  _atom_site_occupancy
  Co  Co1       1.0  0.99900  0.33000  0.19500  1.0000
  Co  Co2       1.0  0.00063  0.67000  0.69500  1.0000
  Co  Co3       1.0  0.67000  0.67000  0.52800  1.0000
  Co  Co4       1.0  0.33000  0.00062  0.86100  1.0000
  Co  Co5       1.0  0.67000  0.99900  0.36100  1.0000
  Co  Co6       1.0  0.33000  0.33000  0.02790  1.0000
  P   P1        1.0  0.34200  0.00498  0.18300  1.0000
  P   P2        1.0  0.65800  0.99500  0.68300  1.0000
  P   P3        1.0  0.99500  0.33700  0.51700  1.0000
  P   P4        1.0  0.66300  0.65800  0.85000  1.0000
  P   P5        1.0  0.33700  0.34200  0.35000  1.0000
  P   P6        1.0  0.00498  0.66300  0.01660  1.0000
  S   S1        1.0  0.34600  0.01240  0.65300  1.0000
  S   S2        1.0  0.65400  0.98800  0.15300  1.0000
  S   S3        1.0  0.98800  0.33400  0.98600  1.0000
  S   S4        1.0  0.66600  0.65400  0.31900  1.0000
  S   S5        1.0  0.33400  0.34600  0.81900  1.0000
  S   S6        1.0  0.01240  0.66600  0.48600  1.0000
  S   S7        1.0  0.00471  0.34100  0.31600  1.0000
  S   S8        1.0  0.99500  0.65900  0.81600  1.0000
  S   S9        1.0  0.65900  0.66400  0.64900  1.0000
  S   S10       1.0  0.33600  0.99500  0.98200  1.0000
  S   S11       1.0  0.66400  0.00470  0.48200  1.0000
  S   S12       1.0  0.34100  0.33600  0.14900  1.0000
  S   S13       1.0  0.32800  0.00000  0.32000  1.0000
  S   S14       1.0  0.67200  0.00019  0.82000  1.0000
  S   S15       1.0  0.00019  0.32800  0.65300  1.0000
  S   S16       1.0  0.67200  0.67200  0.98700  1.0000
  S   S17       1.0  0.32800  0.32800  0.48700  1.0000
  S   S18       1.0  0.00000  0.67200  0.15300  1.0000
