data_image0
_chemical_formula_structural       Cd23Th6
_chemical_formula_sum              "Cd23 Th6"
_cell_length_a       9.71632
_cell_length_b       9.71632
_cell_length_c       9.71632
_cell_angle_alpha    60
_cell_angle_beta     60
_cell_angle_gamma    60

_space_group_name_H-M_alt    "P 1"
_space_group_IT_number       1

loop_
  _space_group_symop_operation_xyz
  'x, y, z'

loop_
  _atom_site_type_symbol
  _atom_site_label
  _atom_site_symmetry_multiplicity
  _atom_site_fract_x
  _atom_site_fract_y
  _atom_site_fract_z
  _atom_site_occupancy
  Cd  Cd1       1.0  0.33100  0.33100  0.33100  1.0000
  Cd  Cd2       1.0  0.33100  0.33100  0.00639  1.0000
  Cd  Cd3       1.0  0.00639  0.33100  0.33100  1.0000
  Cd  Cd4       1.0  0.33100  0.00639  0.33100  1.0000
  Cd  Cd5       1.0  0.66900  0.66900  0.66900  1.0000
  Cd  Cd6       1.0  0.66900  0.66900  0.99400  1.0000
  Cd  Cd7       1.0  0.66900  0.99400  0.66900  1.0000
  Cd  Cd8       1.0  0.99400  0.66900  0.66900  1.0000
  Cd  Cd9       1.0  0.00000  0.00000  0.00000  1.0000
  Cd  Cd10      1.0  0.50000  0.00000  0.00000  1.0000
  Cd  Cd11      1.0  0.00000  0.50000  0.50000  1.0000
  Cd  Cd12      1.0  1.00000  0.50000  0.00000  1.0000
  Cd  Cd13      1.0  1.00000  1.00000  0.50000  1.0000
  Cd  Cd14      1.0  0.50000  0.00000  0.50000  1.0000
  Cd  Cd15      1.0  0.50000  0.50000  0.00000  1.0000
  Cd  Cd16      1.0  0.11900  0.11900  0.11900  1.0000
  Cd  Cd17      1.0  0.11900  0.11900  0.64300  1.0000
  Cd  Cd18      1.0  0.64300  0.11900  0.11900  1.0000
  Cd  Cd19      1.0  0.11900  0.64300  0.11900  1.0000
  Cd  Cd20      1.0  0.88100  0.88100  0.88100  1.0000
  Cd  Cd21      1.0  0.88100  0.88100  0.35700  1.0000
  Cd  Cd22      1.0  0.88100  0.35700  0.88100  1.0000
  Cd  Cd23      1.0  0.35700  0.88100  0.88100  1.0000
  Th  Th1       1.0  0.69200  0.30800  0.30800  1.0000
  Th  Th2       1.0  0.30800  0.69200  0.69200  1.0000
  Th  Th3       1.0  0.30800  0.69200  0.30800  1.0000
  Th  Th4       1.0  0.30800  0.30800  0.69200  1.0000
  Th  Th5       1.0  0.69200  0.30800  0.69200  1.0000
  Th  Th6       1.0  0.69200  0.69200  0.30800  1.0000
