data_image0
_chemical_formula_structural       C4Co8Nb16
_chemical_formula_sum              "C4 Co8 Nb16"
_cell_length_a       8.27005
_cell_length_b       8.27005
_cell_length_c       8.27005
_cell_angle_alpha    60
_cell_angle_beta     60
_cell_angle_gamma    60

_space_group_name_H-M_alt    "P 1"
_space_group_IT_number       1

loop_
  _space_group_symop_operation_xyz
  'x, y, z'

loop_
  _atom_site_type_symbol
  _atom_site_label
  _atom_site_symmetry_multiplicity
  _atom_site_fract_x
  _atom_site_fract_y
  _atom_site_fract_z
  _atom_site_occupancy
  C   C1        1.0  0.50000  0.50000  0.50000  1.0000
  C   C2        1.0  0.50000  0.50000  0.00000  1.0000
  C   C3        1.0  0.00000  0.50000  0.50000  1.0000
  C   C4        1.0  0.50000  0.00000  0.50000  1.0000
  Co  Co1       1.0  0.20500  0.20500  0.20500  1.0000
  Co  Co2       1.0  0.20500  0.20500  0.88500  1.0000
  Co  Co3       1.0  0.88500  0.20500  0.20500  1.0000
  Co  Co4       1.0  0.20500  0.88500  0.20500  1.0000
  Co  Co5       1.0  0.79500  0.79500  0.79500  1.0000
  Co  Co6       1.0  0.79500  0.79500  0.11500  1.0000
  Co  Co7       1.0  0.79500  0.11500  0.79500  1.0000
  Co  Co8       1.0  0.11500  0.79500  0.79500  1.0000
  Nb  Nb1       1.0  0.81200  0.43800  0.43800  1.0000
  Nb  Nb2       1.0  0.43800  0.81200  0.81200  1.0000
  Nb  Nb3       1.0  0.43800  0.81200  0.43800  1.0000
  Nb  Nb4       1.0  0.43800  0.43800  0.81200  1.0000
  Nb  Nb5       1.0  0.81200  0.43800  0.81200  1.0000
  Nb  Nb6       1.0  0.81200  0.81200  0.43800  1.0000
  Nb  Nb7       1.0  0.56200  0.18800  0.56200  1.0000
  Nb  Nb8       1.0  0.18800  0.56200  0.18800  1.0000
  Nb  Nb9       1.0  0.18800  0.56200  0.56200  1.0000
  Nb  Nb10      1.0  0.56200  0.56200  0.18800  1.0000
  Nb  Nb11      1.0  0.56200  0.18800  0.18800  1.0000
  Nb  Nb12      1.0  0.18800  0.18800  0.56200  1.0000
  Nb  Nb13      1.0  0.00000  0.00000  0.00000  1.0000
  Nb  Nb14      1.0  0.00000  0.00000  0.50000  1.0000
  Nb  Nb15      1.0  0.50000  0.00000  0.00000  1.0000
  Nb  Nb16      1.0  0.00000  0.50000  0.00000  1.0000
