data_image0
_chemical_formula_structural       Ce8Mn2S14
_chemical_formula_sum              "Ce8 Mn2 S14"
_cell_length_a       9.94895
_cell_length_b       9.94658
_cell_length_c       7.14819
_cell_angle_alpha    90
_cell_angle_beta     90
_cell_angle_gamma    120.007

_space_group_name_H-M_alt    "P 1"
_space_group_IT_number       1

loop_
  _space_group_symop_operation_xyz
  'x, y, z'

loop_
  _atom_site_type_symbol
  _atom_site_label
  _atom_site_symmetry_multiplicity
  _atom_site_fract_x
  _atom_site_fract_y
  _atom_site_fract_z
  _atom_site_occupancy
  Ce  Ce1       1.0  0.33000  0.66500  0.68700  1.0000
  Ce  Ce2       1.0  0.67000  0.33500  0.18700  1.0000
  Ce  Ce3       1.0  0.17400  0.37700  0.23100  1.0000
  Ce  Ce4       1.0  0.82600  0.62300  0.73100  1.0000
  Ce  Ce5       1.0  0.62300  0.79600  0.23300  1.0000
  Ce  Ce6       1.0  0.20500  0.82800  0.23100  1.0000
  Ce  Ce7       1.0  0.79500  0.17200  0.73100  1.0000
  Ce  Ce8       1.0  0.37700  0.20400  0.73300  1.0000
  Mn  Mn1       1.0  0.99900  0.99900  0.97900  1.0000
  Mn  Mn2       1.0  0.00102  0.00061  0.47900  1.0000
  S   S1        1.0  0.33400  0.66700  0.06730  1.0000
  S   S2        1.0  0.66600  0.33300  0.56700  1.0000
  S   S3        1.0  0.11600  0.24700  0.83800  1.0000
  S   S4        1.0  0.88400  0.75300  0.33800  1.0000
  S   S5        1.0  0.75200  0.86900  0.83900  1.0000
  S   S6        1.0  0.12900  0.88300  0.83800  1.0000
  S   S7        1.0  0.87100  0.11700  0.33800  1.0000
  S   S8        1.0  0.24800  0.13100  0.33900  1.0000
  S   S9        1.0  0.45200  0.52400  0.46900  1.0000
  S   S10       1.0  0.54800  0.47600  0.96900  1.0000
  S   S11       1.0  0.47600  0.92800  0.46900  1.0000
  S   S12       1.0  0.07090  0.54800  0.46500  1.0000
  S   S13       1.0  0.92900  0.45200  0.96500  1.0000
  S   S14       1.0  0.52400  0.07210  0.96900  1.0000
