data_image0
_chemical_formula_structural       Co2La8S14
_chemical_formula_sum              "Co2 La8 S14"
_cell_length_a       9.96794
_cell_length_b       9.95812
_cell_length_c       6.85505
_cell_angle_alpha    90
_cell_angle_beta     90
_cell_angle_gamma    121.066

_space_group_name_H-M_alt    "P 1"
_space_group_IT_number       1

loop_
  _space_group_symop_operation_xyz
  'x, y, z'

loop_
  _atom_site_type_symbol
  _atom_site_label
  _atom_site_symmetry_multiplicity
  _atom_site_fract_x
  _atom_site_fract_y
  _atom_site_fract_z
  _atom_site_occupancy
  Co  Co1       1.0  0.99000  0.00733  0.09470  1.0000
  Co  Co2       1.0  0.00987  0.99300  0.59500  1.0000
  La  La1       1.0  0.17700  0.37500  0.22500  1.0000
  La  La2       1.0  0.82300  0.62500  0.72500  1.0000
  La  La3       1.0  0.62500  0.78700  0.24200  1.0000
  La  La4       1.0  0.21400  0.84200  0.19600  1.0000
  La  La5       1.0  0.78600  0.15800  0.69600  1.0000
  La  La6       1.0  0.37500  0.21300  0.74200  1.0000
  La  La7       1.0  0.27900  0.68400  0.68200  1.0000
  La  La8       1.0  0.72100  0.31600  0.18200  1.0000
  S   S1        1.0  0.34700  0.66400  0.05410  1.0000
  S   S2        1.0  0.65300  0.33600  0.55400  1.0000
  S   S3        1.0  0.42800  0.53200  0.51600  1.0000
  S   S4        1.0  0.57200  0.46800  0.01580  1.0000
  S   S5        1.0  0.48200  0.93900  0.44700  1.0000
  S   S6        1.0  0.04020  0.53900  0.40800  1.0000
  S   S7        1.0  0.96000  0.46100  0.90800  1.0000
  S   S8        1.0  0.51800  0.06100  0.94700  1.0000
  S   S9        1.0  0.08620  0.19000  0.84300  1.0000
  S   S10       1.0  0.91400  0.81000  0.34300  1.0000
  S   S11       1.0  0.80500  0.89100  0.84500  1.0000
  S   S12       1.0  0.13600  0.88000  0.79500  1.0000
  S   S13       1.0  0.86400  0.12000  0.29500  1.0000
  S   S14       1.0  0.19500  0.10900  0.34500  1.0000
