data_image0
_chemical_formula_structural       Nb8Zn16
_chemical_formula_sum              "Nb8 Zn16"
_cell_length_a       5.01698
_cell_length_b       5.01698
_cell_length_c       16.2167
_cell_angle_alpha    89.9948
_cell_angle_beta     90.0067
_cell_angle_gamma    120.001

_space_group_name_H-M_alt    "P 1"
_space_group_IT_number       1

loop_
  _space_group_symop_operation_xyz
  'x, y, z'

loop_
  _atom_site_type_symbol
  _atom_site_label
  _atom_site_symmetry_multiplicity
  _atom_site_fract_x
  _atom_site_fract_y
  _atom_site_fract_z
  _atom_site_occupancy
  Nb  Nb1       1.0  0.33300  0.66700  0.84300  1.0000
  Nb  Nb2       1.0  0.66600  0.33400  0.34300  1.0000
  Nb  Nb3       1.0  0.66700  0.33300  0.15700  1.0000
  Nb  Nb4       1.0  0.33300  0.66600  0.65700  1.0000
  Nb  Nb5       1.0  0.00005  0.00016  0.09120  1.0000
  Nb  Nb6       1.0  0.00000  0.00000  0.59100  1.0000
  Nb  Nb7       1.0  0.00013  0.00000  0.90900  1.0000
  Nb  Nb8       1.0  0.00000  0.00009  0.40900  1.0000
  Zn  Zn1       1.0  0.16000  0.32100  0.25000  1.0000
  Zn  Zn2       1.0  0.84000  0.67900  0.75000  1.0000
  Zn  Zn3       1.0  0.67900  0.84000  0.25000  1.0000
  Zn  Zn4       1.0  0.16100  0.84000  0.25000  1.0000
  Zn  Zn5       1.0  0.83900  0.16000  0.75000  1.0000
  Zn  Zn6       1.0  0.32100  0.16000  0.75000  1.0000
  Zn  Zn7       1.0  0.33300  0.66700  0.12700  1.0000
  Zn  Zn8       1.0  0.66700  0.33300  0.62700  1.0000
  Zn  Zn9       1.0  0.66700  0.33300  0.87300  1.0000
  Zn  Zn10      1.0  0.33300  0.66700  0.37300  1.0000
  Zn  Zn11      1.0  0.50000  0.00008  0.00000  1.0000
  Zn  Zn12      1.0  0.50000  0.00000  0.50000  1.0000
  Zn  Zn13      1.0  0.00006  0.50000  0.00001  1.0000
  Zn  Zn14      1.0  0.50000  0.50000  0.00000  1.0000
  Zn  Zn15      1.0  0.50000  0.50000  0.50000  1.0000
  Zn  Zn16      1.0  0.00000  0.50000  0.50000  1.0000
