data_image0
_chemical_formula_structural       Co8Li20O18
_chemical_formula_sum              "Co8 Li20 O18"
_cell_length_a       9.71719
_cell_length_b       9.71719
_cell_length_c       4.64973
_cell_angle_alpha    90
_cell_angle_beta     90
_cell_angle_gamma    90

_space_group_name_H-M_alt    "P 1"
_space_group_IT_number       1

loop_
  _space_group_symop_operation_xyz
  'x, y, z'

loop_
  _atom_site_type_symbol
  _atom_site_label
  _atom_site_symmetry_multiplicity
  _atom_site_fract_x
  _atom_site_fract_y
  _atom_site_fract_z
  _atom_site_occupancy
  Co  Co1       1.0  0.08890  0.75000  0.01940  1.0000
  Co  Co2       1.0  0.41100  0.75000  0.01940  1.0000
  Co  Co3       1.0  0.58900  0.25000  0.98100  1.0000
  Co  Co4       1.0  0.91100  0.25000  0.98100  1.0000
  Co  Co5       1.0  0.25000  0.91100  0.48100  1.0000
  Co  Co6       1.0  0.25000  0.58900  0.48100  1.0000
  Co  Co7       1.0  0.75000  0.41100  0.51900  1.0000
  Co  Co8       1.0  0.75000  0.08890  0.51900  1.0000
  Li  Li1       1.0  0.75000  0.75000  0.08140  1.0000
  Li  Li2       1.0  0.25000  0.25000  0.91900  1.0000
  Li  Li3       1.0  0.25000  0.25000  0.41900  1.0000
  Li  Li4       1.0  0.75000  0.75000  0.58100  1.0000
  Li  Li5       1.0  0.89500  0.93700  0.04050  1.0000
  Li  Li6       1.0  0.60500  0.56300  0.04050  1.0000
  Li  Li7       1.0  0.39500  0.06320  0.96000  1.0000
  Li  Li8       1.0  0.10500  0.43700  0.96000  1.0000
  Li  Li9       1.0  0.06320  0.10500  0.46000  1.0000
  Li  Li10      1.0  0.43700  0.39500  0.46000  1.0000
  Li  Li11      1.0  0.93700  0.60500  0.54000  1.0000
  Li  Li12      1.0  0.56300  0.89500  0.54000  1.0000
  Li  Li13      1.0  0.10500  0.06320  0.96000  1.0000
  Li  Li14      1.0  0.39500  0.43700  0.96000  1.0000
  Li  Li15      1.0  0.60500  0.93700  0.04050  1.0000
  Li  Li16      1.0  0.89500  0.56300  0.04050  1.0000
  Li  Li17      1.0  0.93700  0.89500  0.54000  1.0000
  Li  Li18      1.0  0.56300  0.60500  0.54000  1.0000
  Li  Li19      1.0  0.06320  0.39500  0.46000  1.0000
  Li  Li20      1.0  0.43700  0.10500  0.46000  1.0000
  O   O1        1.0  0.07630  0.92400  0.25000  1.0000
  O   O2        1.0  0.42400  0.57600  0.25000  1.0000
  O   O3        1.0  0.57600  0.07630  0.75000  1.0000
  O   O4        1.0  0.92400  0.42400  0.75000  1.0000
  O   O5        1.0  0.92400  0.07630  0.75000  1.0000
  O   O6        1.0  0.57600  0.42400  0.75000  1.0000
  O   O7        1.0  0.42400  0.92400  0.25000  1.0000
  O   O8        1.0  0.07630  0.57600  0.25000  1.0000
  O   O9        1.0  0.75000  0.25000  0.25000  1.0000
  O   O10       1.0  0.25000  0.75000  0.75000  1.0000
  O   O11       1.0  0.09240  0.25000  0.17800  1.0000
  O   O12       1.0  0.40800  0.25000  0.17800  1.0000
  O   O13       1.0  0.59200  0.75000  0.82200  1.0000
  O   O14       1.0  0.90800  0.75000  0.82200  1.0000
  O   O15       1.0  0.75000  0.90800  0.32200  1.0000
  O   O16       1.0  0.75000  0.59200  0.32200  1.0000
  O   O17       1.0  0.25000  0.40800  0.67800  1.0000
  O   O18       1.0  0.25000  0.09240  0.67800  1.0000
