data_image0
_chemical_formula_structural       Eu4S16Yb8
_chemical_formula_sum              "Eu4 S16 Yb8"
_cell_length_a       10.9164
_cell_length_b       4.19612
_cell_length_c       14.5463
_cell_angle_alpha    90
_cell_angle_beta     90
_cell_angle_gamma    90

_space_group_name_H-M_alt    "P 1"
_space_group_IT_number       1

loop_
  _space_group_symop_operation_xyz
  'x, y, z'

loop_
  _atom_site_type_symbol
  _atom_site_label
  _atom_site_symmetry_multiplicity
  _atom_site_fract_x
  _atom_site_fract_y
  _atom_site_fract_z
  _atom_site_occupancy
  Eu  Eu1       1.0  0.78700  0.25000  0.69200  1.0000
  Eu  Eu2       1.0  0.71300  0.75000  0.19200  1.0000
  Eu  Eu3       1.0  0.28700  0.25000  0.80800  1.0000
  Eu  Eu4       1.0  0.21300  0.75000  0.30800  1.0000
  S   S1        1.0  0.05050  0.25000  0.71200  1.0000
  S   S2        1.0  0.44900  0.75000  0.21200  1.0000
  S   S3        1.0  0.55100  0.25000  0.78800  1.0000
  S   S4        1.0  0.94900  0.75000  0.28800  1.0000
  S   S5        1.0  0.35100  0.25000  0.42400  1.0000
  S   S6        1.0  0.14900  0.75000  0.92400  1.0000
  S   S7        1.0  0.85100  0.25000  0.07550  1.0000
  S   S8        1.0  0.64900  0.75000  0.57600  1.0000
  S   S9        1.0  0.16300  0.25000  0.46100  1.0000
  S   S10       1.0  0.33700  0.75000  0.96100  1.0000
  S   S11       1.0  0.66300  0.25000  0.03900  1.0000
  S   S12       1.0  0.83700  0.75000  0.53900  1.0000
  S   S13       1.0  0.16800  0.25000  0.16600  1.0000
  S   S14       1.0  0.33200  0.75000  0.66600  1.0000
  S   S15       1.0  0.66800  0.25000  0.33400  1.0000
  S   S16       1.0  0.83200  0.75000  0.83400  1.0000
  Yb  Yb1       1.0  0.46900  0.25000  0.61200  1.0000
  Yb  Yb2       1.0  0.03100  0.75000  0.11200  1.0000
  Yb  Yb3       1.0  0.96900  0.25000  0.88800  1.0000
  Yb  Yb4       1.0  0.53100  0.75000  0.38800  1.0000
  Yb  Yb5       1.0  0.39600  0.25000  0.10400  1.0000
  Yb  Yb6       1.0  0.10400  0.75000  0.60400  1.0000
  Yb  Yb7       1.0  0.89600  0.25000  0.39600  1.0000
  Yb  Yb8       1.0  0.60400  0.75000  0.89600  1.0000
