data_image0
_chemical_formula_structural       Ga16Os7Ti6
_chemical_formula_sum              "Ga16 Os7 Ti6"
_cell_length_a       8.62447
_cell_length_b       8.62447
_cell_length_c       8.62447
_cell_angle_alpha    60
_cell_angle_beta     60
_cell_angle_gamma    60

_space_group_name_H-M_alt    "P 1"
_space_group_IT_number       1

loop_
  _space_group_symop_operation_xyz
  'x, y, z'

loop_
  _atom_site_type_symbol
  _atom_site_label
  _atom_site_symmetry_multiplicity
  _atom_site_fract_x
  _atom_site_fract_y
  _atom_site_fract_z
  _atom_site_occupancy
  Ga  Ga1       1.0  0.35800  0.35800  0.35800  1.0000
  Ga  Ga2       1.0  0.35800  0.35800  0.92600  1.0000
  Ga  Ga3       1.0  0.92600  0.35800  0.35800  1.0000
  Ga  Ga4       1.0  0.35800  0.92600  0.35800  1.0000
  Ga  Ga5       1.0  0.64200  0.64200  0.64200  1.0000
  Ga  Ga6       1.0  0.64200  0.64200  0.07400  1.0000
  Ga  Ga7       1.0  0.64200  0.07400  0.64200  1.0000
  Ga  Ga8       1.0  0.07400  0.64200  0.64200  1.0000
  Ga  Ga9       1.0  0.12600  0.12600  0.12600  1.0000
  Ga  Ga10      1.0  0.12600  0.12600  0.62200  1.0000
  Ga  Ga11      1.0  0.62200  0.12600  0.12600  1.0000
  Ga  Ga12      1.0  0.12600  0.62200  0.12600  1.0000
  Ga  Ga13      1.0  0.87400  0.87400  0.87400  1.0000
  Ga  Ga14      1.0  0.87400  0.87400  0.37800  1.0000
  Ga  Ga15      1.0  0.87400  0.37800  0.87400  1.0000
  Ga  Ga16      1.0  0.37800  0.87400  0.87400  1.0000
  Os  Os1       1.0  0.00000  0.00000  0.00000  1.0000
  Os  Os2       1.0  0.50000  0.00000  0.00000  1.0000
  Os  Os3       1.0  0.00000  0.50000  0.50000  1.0000
  Os  Os4       1.0  1.00000  0.50000  0.00000  1.0000
  Os  Os5       1.0  1.00000  1.00000  0.50000  1.0000
  Os  Os6       1.0  0.50000  0.00000  0.50000  1.0000
  Os  Os7       1.0  0.50000  0.50000  0.00000  1.0000
  Ti  Ti1       1.0  0.73800  0.26200  0.26200  1.0000
  Ti  Ti2       1.0  0.26200  0.73800  0.73800  1.0000
  Ti  Ti3       1.0  0.26200  0.73800  0.26200  1.0000
  Ti  Ti4       1.0  0.26200  0.26200  0.73800  1.0000
  Ti  Ti5       1.0  0.73800  0.26200  0.73800  1.0000
  Ti  Ti6       1.0  0.73800  0.73800  0.26200  1.0000
