data_image0
_chemical_formula_structural       C4Fe12Zr12
_chemical_formula_sum              "C4 Fe12 Zr12"
_cell_length_a       8.4443
_cell_length_b       8.4443
_cell_length_c       8.4443
_cell_angle_alpha    60
_cell_angle_beta     60
_cell_angle_gamma    60

_space_group_name_H-M_alt    "P 1"
_space_group_IT_number       1

loop_
  _space_group_symop_operation_xyz
  'x, y, z'

loop_
  _atom_site_type_symbol
  _atom_site_label
  _atom_site_symmetry_multiplicity
  _atom_site_fract_x
  _atom_site_fract_y
  _atom_site_fract_z
  _atom_site_occupancy
  C   C1        1.0  0.50000  0.50000  0.50000  1.0000
  C   C2        1.0  0.50000  0.50000  0.00000  1.0000
  C   C3        1.0  0.00000  0.50000  0.50000  1.0000
  C   C4        1.0  0.50000  0.00000  0.50000  1.0000
  Fe  Fe1       1.0  0.20000  0.20000  0.20000  1.0000
  Fe  Fe2       1.0  0.20000  0.20000  0.89900  1.0000
  Fe  Fe3       1.0  0.89900  0.20000  0.20000  1.0000
  Fe  Fe4       1.0  0.20000  0.89900  0.20000  1.0000
  Fe  Fe5       1.0  0.80000  0.80000  0.80000  1.0000
  Fe  Fe6       1.0  0.80000  0.80000  0.10100  1.0000
  Fe  Fe7       1.0  0.80000  0.10100  0.80000  1.0000
  Fe  Fe8       1.0  0.10100  0.80000  0.80000  1.0000
  Fe  Fe9       1.0  0.00000  0.00000  0.00000  1.0000
  Fe  Fe10      1.0  0.00000  0.00000  0.50000  1.0000
  Fe  Fe11      1.0  0.50000  0.00000  0.00000  1.0000
  Fe  Fe12      1.0  0.00000  0.50000  0.00000  1.0000
  Zr  Zr1       1.0  0.82300  0.42700  0.42700  1.0000
  Zr  Zr2       1.0  0.42700  0.82300  0.82300  1.0000
  Zr  Zr3       1.0  0.42700  0.82300  0.42700  1.0000
  Zr  Zr4       1.0  0.42700  0.42700  0.82300  1.0000
  Zr  Zr5       1.0  0.82300  0.42700  0.82300  1.0000
  Zr  Zr6       1.0  0.82300  0.82300  0.42700  1.0000
  Zr  Zr7       1.0  0.57300  0.17700  0.57300  1.0000
  Zr  Zr8       1.0  0.17700  0.57300  0.17700  1.0000
  Zr  Zr9       1.0  0.17700  0.57300  0.57300  1.0000
  Zr  Zr10      1.0  0.57300  0.57300  0.17700  1.0000
  Zr  Zr11      1.0  0.57300  0.17700  0.17700  1.0000
  Zr  Zr12      1.0  0.17700  0.17700  0.57300  1.0000
