data_image0
_chemical_formula_structural       Ni36Sc12Si21
_chemical_formula_sum              "Ni36 Sc12 Si21"
_cell_length_a       11.4931
_cell_length_b       11.4931
_cell_length_c       11.4931
_cell_angle_alpha    78.2119
_cell_angle_beta     116.23
_cell_angle_gamma    139.668

_space_group_name_H-M_alt    "P 1"
_space_group_IT_number       1

loop_
  _space_group_symop_operation_xyz
  'x, y, z'

loop_
  _atom_site_type_symbol
  _atom_site_label
  _atom_site_symmetry_multiplicity
  _atom_site_fract_x
  _atom_site_fract_y
  _atom_site_fract_z
  _atom_site_occupancy
  Ni  Ni1       1.0  0.37100  0.63800  0.56300  1.0000
  Ni  Ni2       1.0  0.07460  0.80800  0.43700  1.0000
  Ni  Ni3       1.0  0.62900  0.19200  0.26700  1.0000
  Ni  Ni4       1.0  0.92500  0.36200  0.73300  1.0000
  Ni  Ni5       1.0  0.62900  0.36200  0.43700  1.0000
  Ni  Ni6       1.0  0.92500  0.19200  0.56300  1.0000
  Ni  Ni7       1.0  0.37100  0.80800  0.73300  1.0000
  Ni  Ni8       1.0  0.07460  0.63800  0.26700  1.0000
  Ni  Ni9       1.0  0.38100  0.00000  0.38100  1.0000
  Ni  Ni10      1.0  0.61900  0.00000  0.61900  1.0000
  Ni  Ni11      1.0  0.83300  0.62400  0.79100  1.0000
  Ni  Ni12      1.0  0.83300  0.04150  0.20900  1.0000
  Ni  Ni13      1.0  0.16700  0.95900  0.79100  1.0000
  Ni  Ni14      1.0  0.16700  0.37600  0.20900  1.0000
  Ni  Ni15      1.0  0.00000  0.43100  0.43100  1.0000
  Ni  Ni16      1.0  0.00000  0.56900  0.56900  1.0000
  Ni  Ni17      1.0  0.32500  0.42000  0.74500  1.0000
  Ni  Ni18      1.0  0.67500  0.58000  0.25500  1.0000
  Ni  Ni19      1.0  0.67500  0.42000  0.09570  1.0000
  Ni  Ni20      1.0  0.32500  0.58000  0.90400  1.0000
  Ni  Ni21      1.0  0.51400  0.38800  0.56300  1.0000
  Ni  Ni22      1.0  0.82500  0.95100  0.43700  1.0000
  Ni  Ni23      1.0  0.48600  0.04910  0.87400  1.0000
  Ni  Ni24      1.0  0.17500  0.61200  0.12600  1.0000
  Ni  Ni25      1.0  0.48600  0.61200  0.43700  1.0000
  Ni  Ni26      1.0  0.17500  0.04910  0.56300  1.0000
  Ni  Ni27      1.0  0.51400  0.95100  0.12600  1.0000
  Ni  Ni28      1.0  0.82500  0.38800  0.87400  1.0000
  Ni  Ni29      1.0  0.71300  0.63900  0.92500  1.0000
  Ni  Ni30      1.0  0.71300  0.78800  0.07450  1.0000
  Ni  Ni31      1.0  0.28700  0.21200  0.92500  1.0000
  Ni  Ni32      1.0  0.28700  0.36100  0.07450  1.0000
  Ni  Ni33      1.0  0.09920  0.11200  0.21200  1.0000
  Ni  Ni34      1.0  0.90100  0.88800  0.78800  1.0000
  Ni  Ni35      1.0  0.90100  0.11200  0.01320  1.0000
  Ni  Ni36      1.0  0.09920  0.88800  0.98700  1.0000
  Sc  Sc1       1.0  0.50000  0.12900  0.62900  1.0000
  Sc  Sc2       1.0  0.50000  0.87100  0.37100  1.0000
  Sc  Sc3       1.0  0.50000  0.30800  0.80800  1.0000
  Sc  Sc4       1.0  0.50000  0.69200  0.19200  1.0000
  Sc  Sc5       1.0  0.38500  0.20400  0.18100  1.0000
  Sc  Sc6       1.0  0.02250  0.20400  0.81900  1.0000
  Sc  Sc7       1.0  0.61500  0.79600  0.81900  1.0000
  Sc  Sc8       1.0  0.97700  0.79600  0.18100  1.0000
  Sc  Sc9       1.0  0.18300  0.28500  0.46800  1.0000
  Sc  Sc10      1.0  0.81700  0.71500  0.53200  1.0000
  Sc  Sc11      1.0  0.81700  0.28500  0.10100  1.0000
  Sc  Sc12      1.0  0.18300  0.71500  0.89900  1.0000
  Si  Si1       1.0  0.17300  0.50000  0.67300  1.0000
  Si  Si2       1.0  0.82700  0.50000  0.32700  1.0000
  Si  Si3       1.0  0.00000  0.00000  0.00000  1.0000
  Si  Si4       1.0  0.42700  0.41500  0.32400  1.0000
  Si  Si5       1.0  0.09160  0.10300  0.67600  1.0000
  Si  Si6       1.0  0.57300  0.89700  0.98800  1.0000
  Si  Si7       1.0  0.90800  0.58500  0.01160  1.0000
  Si  Si8       1.0  0.57300  0.58500  0.67600  1.0000
  Si  Si9       1.0  0.90800  0.89700  0.32400  1.0000
  Si  Si10      1.0  0.42700  0.10300  0.01160  1.0000
  Si  Si11      1.0  0.09160  0.41500  0.98800  1.0000
  Si  Si12      1.0  0.28300  0.11700  0.39900  1.0000
  Si  Si13      1.0  0.71700  0.88300  0.60100  1.0000
  Si  Si14      1.0  0.71700  0.11700  0.83400  1.0000
  Si  Si15      1.0  0.28300  0.88300  0.16600  1.0000
  Si  Si16      1.0  0.17700  0.50800  0.33100  1.0000
  Si  Si17      1.0  0.17700  0.84600  0.66900  1.0000
  Si  Si18      1.0  0.82300  0.15400  0.33100  1.0000
  Si  Si19      1.0  0.82300  0.49200  0.66900  1.0000
  Si  Si20      1.0  0.73300  0.23300  0.50000  1.0000
  Si  Si21      1.0  0.26700  0.76700  0.50000  1.0000
