data_image0
_chemical_formula_structural       Al11BaMg17
_chemical_formula_sum              "Al11 Ba1 Mg17"
_cell_length_a       9.52968
_cell_length_b       10.1239
_cell_length_c       9.00005
_cell_angle_alpha    113.105
_cell_angle_beta     110.414
_cell_angle_gamma    108.732

_space_group_name_H-M_alt    "P 1"
_space_group_IT_number       1

loop_
  _space_group_symop_operation_xyz
  'x, y, z'

loop_
  _atom_site_type_symbol
  _atom_site_label
  _atom_site_symmetry_multiplicity
  _atom_site_fract_x
  _atom_site_fract_y
  _atom_site_fract_z
  _atom_site_occupancy
  Al  Al1       1.0  0.68100  0.82500  0.00000  1.0000
  Al  Al2       1.0  0.36500  0.37300  0.19400  1.0000
  Al  Al3       1.0  0.81900  0.17900  0.19500  1.0000
  Al  Al4       1.0  0.28200  0.92500  0.24500  1.0000
  Al  Al5       1.0  0.17900  0.37100  0.38300  1.0000
  Al  Al6       1.0  0.38700  0.24800  0.41500  1.0000
  Al  Al7       1.0  0.97200  0.83300  0.58500  1.0000
  Al  Al8       1.0  0.79600  0.98700  0.61700  1.0000
  Al  Al9       1.0  0.03760  0.68000  0.75500  1.0000
  Al  Al10      1.0  0.62500  0.98400  0.80500  1.0000
  Al  Al11      1.0  0.17200  0.18000  0.80600  1.0000
  Ba  Ba1       1.0  0.88100  0.61200  0.00000  1.0000
  Mg  Mg1       1.0  0.34700  0.02600  0.00000  1.0000
  Mg  Mg2       1.0  0.59400  0.29500  0.00000  1.0000
  Mg  Mg3       1.0  0.01250  0.00425  0.00000  1.0000
  Mg  Mg4       1.0  0.63700  0.65800  0.23500  1.0000
  Mg  Mg5       1.0  0.61200  0.98000  0.28000  1.0000
  Mg  Mg6       1.0  0.98900  0.54800  0.36600  1.0000
  Mg  Mg7       1.0  0.35600  0.69700  0.37600  1.0000
  Mg  Mg8       1.0  0.02290  0.03760  0.37700  1.0000
  Mg  Mg9       1.0  0.69500  0.37200  0.40900  1.0000
  Mg  Mg10      1.0  0.28600  0.96300  0.59100  1.0000
  Mg  Mg11      1.0  0.64600  0.66100  0.62300  1.0000
  Mg  Mg12      1.0  0.98000  0.32100  0.62400  1.0000
  Mg  Mg13      1.0  0.62400  0.18300  0.63400  1.0000
  Mg  Mg14      1.0  0.33300  0.70000  0.72000  1.0000
  Mg  Mg15      1.0  0.40200  0.42200  0.76500  1.0000
  Mg  Mg16      1.0  0.99000  0.31100  0.00000  1.0000
  Mg  Mg17      1.0  0.27900  0.62400  0.00000  1.0000
