data_image0
_chemical_formula_structural       Ga21Ho4Ni10
_chemical_formula_sum              "Ga21 Ho4 Ni10"
_cell_length_a       10.5302
_cell_length_b       10.5302
_cell_length_c       17.2834
_cell_angle_alpha    47.4409
_cell_angle_beta     132.559
_cell_angle_gamma    157.862

_space_group_name_H-M_alt    "P 1"
_space_group_IT_number       1

loop_
  _space_group_symop_operation_xyz
  'x, y, z'

loop_
  _atom_site_type_symbol
  _atom_site_label
  _atom_site_symmetry_multiplicity
  _atom_site_fract_x
  _atom_site_fract_y
  _atom_site_fract_z
  _atom_site_occupancy
  Ga  Ga1       1.0  0.54600  0.45400  0.79500  1.0000
  Ga  Ga2       1.0  0.45400  0.54600  0.20500  1.0000
  Ga  Ga3       1.0  0.58500  0.41500  0.59100  1.0000
  Ga  Ga4       1.0  0.41500  0.58500  0.40900  1.0000
  Ga  Ga5       1.0  0.06820  0.93200  0.69500  1.0000
  Ga  Ga6       1.0  0.93200  0.06820  0.30500  1.0000
  Ga  Ga7       1.0  0.76900  0.23100  0.70500  1.0000
  Ga  Ga8       1.0  0.23100  0.76900  0.29500  1.0000
  Ga  Ga9       1.0  0.32800  0.67200  0.86900  1.0000
  Ga  Ga10      1.0  0.67200  0.32800  0.13100  1.0000
  Ga  Ga11      1.0  0.06460  0.93500  0.94700  1.0000
  Ga  Ga12      1.0  0.93500  0.06460  0.05260  1.0000
  Ga  Ga13      1.0  0.69900  0.30100  0.99800  1.0000
  Ga  Ga14      1.0  0.30100  0.69900  0.00240  1.0000
  Ga  Ga15      1.0  0.69700  0.30300  0.49700  1.0000
  Ga  Ga16      1.0  0.30300  0.69700  0.50300  1.0000
  Ga  Ga17      1.0  0.50000  0.50000  0.00000  1.0000
  Ga  Ga18      1.0  0.10300  0.89700  0.50200  1.0000
  Ga  Ga19      1.0  0.89700  0.10300  0.49800  1.0000
  Ga  Ga20      1.0  0.41200  0.58800  0.79700  1.0000
  Ga  Ga21      1.0  0.58800  0.41200  0.20300  1.0000
  Ho  Ho1       1.0  0.71300  0.28700  0.83300  1.0000
  Ho  Ho2       1.0  0.28700  0.71300  0.16700  1.0000
  Ho  Ho3       1.0  0.90600  0.09430  0.67700  1.0000
  Ho  Ho4       1.0  0.09430  0.90600  0.32300  1.0000
  Ni  Ni1       1.0  0.91700  0.08260  0.89300  1.0000
  Ni  Ni2       1.0  0.08260  0.91700  0.10700  1.0000
  Ni  Ni3       1.0  0.26500  0.73500  0.61200  1.0000
  Ni  Ni4       1.0  0.73500  0.26500  0.38800  1.0000
  Ni  Ni5       1.0  0.13600  0.86400  0.88500  1.0000
  Ni  Ni6       1.0  0.86400  0.13600  0.11500  1.0000
  Ni  Ni7       1.0  0.47200  0.52800  0.60500  1.0000
  Ni  Ni8       1.0  0.52800  0.47200  0.39500  1.0000
  Ni  Ni9       1.0  0.18400  0.81600  0.68600  1.0000
  Ni  Ni10      1.0  0.81600  0.18400  0.31400  1.0000
