data_image0
_chemical_formula_structural       Mn23Nd6
_chemical_formula_sum              "Mn23 Nd6"
_cell_length_a       8.45909
_cell_length_b       8.45909
_cell_length_c       8.45909
_cell_angle_alpha    60
_cell_angle_beta     60
_cell_angle_gamma    60

_space_group_name_H-M_alt    "P 1"
_space_group_IT_number       1

loop_
  _space_group_symop_operation_xyz
  'x, y, z'

loop_
  _atom_site_type_symbol
  _atom_site_label
  _atom_site_symmetry_multiplicity
  _atom_site_fract_x
  _atom_site_fract_y
  _atom_site_fract_z
  _atom_site_occupancy
  Mn  Mn1       1.0  0.00000  0.00000  0.00000  1.0000
  Mn  Mn2       1.0  0.50000  0.00000  0.00000  1.0000
  Mn  Mn3       1.0  0.00000  0.50000  0.50000  1.0000
  Mn  Mn4       1.0  0.00000  0.50000  0.00000  1.0000
  Mn  Mn5       1.0  0.00000  0.00000  0.50000  1.0000
  Mn  Mn6       1.0  0.50000  0.00000  0.50000  1.0000
  Mn  Mn7       1.0  0.50000  0.50000  0.00000  1.0000
  Mn  Mn8       1.0  0.12200  0.12200  0.12200  1.0000
  Mn  Mn9       1.0  0.12200  0.12200  0.63500  1.0000
  Mn  Mn10      1.0  0.63500  0.12200  0.12200  1.0000
  Mn  Mn11      1.0  0.12200  0.63500  0.12200  1.0000
  Mn  Mn12      1.0  0.87800  0.87800  0.87800  1.0000
  Mn  Mn13      1.0  0.87800  0.87800  0.36500  1.0000
  Mn  Mn14      1.0  0.87800  0.36500  0.87800  1.0000
  Mn  Mn15      1.0  0.36500  0.87800  0.87800  1.0000
  Mn  Mn16      1.0  0.32000  0.32000  0.32000  1.0000
  Mn  Mn17      1.0  0.32000  0.32000  0.04110  1.0000
  Mn  Mn18      1.0  0.04110  0.32000  0.32000  1.0000
  Mn  Mn19      1.0  0.32000  0.04110  0.32000  1.0000
  Mn  Mn20      1.0  0.68000  0.68000  0.68000  1.0000
  Mn  Mn21      1.0  0.68000  0.68000  0.95900  1.0000
  Mn  Mn22      1.0  0.68000  0.95900  0.68000  1.0000
  Mn  Mn23      1.0  0.95900  0.68000  0.68000  1.0000
  Nd  Nd1       1.0  0.70200  0.29800  0.29800  1.0000
  Nd  Nd2       1.0  0.29800  0.70200  0.70200  1.0000
  Nd  Nd3       1.0  0.29800  0.70200  0.29800  1.0000
  Nd  Nd4       1.0  0.29800  0.29800  0.70200  1.0000
  Nd  Nd5       1.0  0.70200  0.29800  0.70200  1.0000
  Nd  Nd6       1.0  0.70200  0.70200  0.29800  1.0000
