data_image0
_chemical_formula_structural       Ca4S16Yb8
_chemical_formula_sum              "Ca4 S16 Yb8"
_cell_length_a       14.2012
_cell_length_b       4.05899
_cell_length_c       11.5585
_cell_angle_alpha    90
_cell_angle_beta     90
_cell_angle_gamma    90

_space_group_name_H-M_alt    "P 1"
_space_group_IT_number       1

loop_
  _space_group_symop_operation_xyz
  'x, y, z'

loop_
  _atom_site_type_symbol
  _atom_site_label
  _atom_site_symmetry_multiplicity
  _atom_site_fract_x
  _atom_site_fract_y
  _atom_site_fract_z
  _atom_site_occupancy
  Ca  Ca1       1.0  0.44700  0.25000  0.37400  1.0000
  Ca  Ca2       1.0  0.05280  0.75000  0.87400  1.0000
  Ca  Ca3       1.0  0.94700  0.25000  0.12600  1.0000
  Ca  Ca4       1.0  0.55300  0.75000  0.62600  1.0000
  S   S1        1.0  0.41100  0.25000  0.60700  1.0000
  S   S2        1.0  0.08910  0.75000  0.10700  1.0000
  S   S3        1.0  0.91100  0.25000  0.89300  1.0000
  S   S4        1.0  0.58900  0.75000  0.39300  1.0000
  S   S5        1.0  0.99100  0.25000  0.36200  1.0000
  S   S6        1.0  0.50900  0.75000  0.86200  1.0000
  S   S7        1.0  0.49100  0.25000  0.13800  1.0000
  S   S8        1.0  0.00945  0.75000  0.63800  1.0000
  S   S9        1.0  0.29800  0.25000  0.91600  1.0000
  S   S10       1.0  0.20200  0.75000  0.41600  1.0000
  S   S11       1.0  0.79800  0.25000  0.58400  1.0000
  S   S12       1.0  0.70200  0.75000  0.08380  1.0000
  S   S13       1.0  0.18300  0.25000  0.79900  1.0000
  S   S14       1.0  0.31700  0.75000  0.29900  1.0000
  S   S15       1.0  0.68300  0.25000  0.70100  1.0000
  S   S16       1.0  0.81700  0.75000  0.20100  1.0000
  Yb  Yb1       1.0  0.11000  0.25000  0.55100  1.0000
  Yb  Yb2       1.0  0.39000  0.75000  0.05070  1.0000
  Yb  Yb3       1.0  0.61000  0.25000  0.94900  1.0000
  Yb  Yb4       1.0  0.89000  0.75000  0.44900  1.0000
  Yb  Yb5       1.0  0.16600  0.25000  0.24500  1.0000
  Yb  Yb6       1.0  0.33400  0.75000  0.74500  1.0000
  Yb  Yb7       1.0  0.66600  0.25000  0.25500  1.0000
  Yb  Yb8       1.0  0.83400  0.75000  0.75500  1.0000
