data_image0
_chemical_formula_structural       Bi12Tm20
_chemical_formula_sum              "Bi12 Tm20"
_cell_length_a       11.6892
_cell_length_b       9.31072
_cell_length_c       8.09764
_cell_angle_alpha    90
_cell_angle_beta     90
_cell_angle_gamma    90

_space_group_name_H-M_alt    "P 1"
_space_group_IT_number       1

loop_
  _space_group_symop_operation_xyz
  'x, y, z'

loop_
  _atom_site_type_symbol
  _atom_site_label
  _atom_site_symmetry_multiplicity
  _atom_site_fract_x
  _atom_site_fract_y
  _atom_site_fract_z
  _atom_site_occupancy
  Bi  Bi1       1.0  0.32400  0.00824  0.06250  1.0000
  Bi  Bi2       1.0  0.17600  0.99200  0.56200  1.0000
  Bi  Bi3       1.0  0.82400  0.49200  0.43800  1.0000
  Bi  Bi4       1.0  0.67600  0.50800  0.93800  1.0000
  Bi  Bi5       1.0  0.67600  0.99200  0.93800  1.0000
  Bi  Bi6       1.0  0.82400  0.00824  0.43800  1.0000
  Bi  Bi7       1.0  0.17600  0.50800  0.56200  1.0000
  Bi  Bi8       1.0  0.32400  0.49200  0.06250  1.0000
  Bi  Bi9       1.0  0.47000  0.25000  0.60300  1.0000
  Bi  Bi10      1.0  0.03000  0.75000  0.10300  1.0000
  Bi  Bi11      1.0  0.97000  0.25000  0.89700  1.0000
  Bi  Bi12      1.0  0.53000  0.75000  0.39700  1.0000
  Tm  Tm1       1.0  0.06210  0.06350  0.18900  1.0000
  Tm  Tm2       1.0  0.43800  0.93600  0.68900  1.0000
  Tm  Tm3       1.0  0.56200  0.43600  0.31100  1.0000
  Tm  Tm4       1.0  0.93800  0.56400  0.81100  1.0000
  Tm  Tm5       1.0  0.93800  0.93600  0.81100  1.0000
  Tm  Tm6       1.0  0.56200  0.06350  0.31100  1.0000
  Tm  Tm7       1.0  0.43800  0.56400  0.68900  1.0000
  Tm  Tm8       1.0  0.06210  0.43600  0.18900  1.0000
  Tm  Tm9       1.0  0.22700  0.25000  0.82500  1.0000
  Tm  Tm10      1.0  0.27300  0.75000  0.32500  1.0000
  Tm  Tm11      1.0  0.72700  0.25000  0.67500  1.0000
  Tm  Tm12      1.0  0.77300  0.75000  0.17500  1.0000
  Tm  Tm13      1.0  0.00467  0.25000  0.52000  1.0000
  Tm  Tm14      1.0  0.49500  0.75000  0.02000  1.0000
  Tm  Tm15      1.0  0.50500  0.25000  0.98000  1.0000
  Tm  Tm16      1.0  0.99500  0.75000  0.48000  1.0000
  Tm  Tm17      1.0  0.28800  0.25000  0.33700  1.0000
  Tm  Tm18      1.0  0.21200  0.75000  0.83700  1.0000
  Tm  Tm19      1.0  0.78800  0.25000  0.16300  1.0000
  Tm  Tm20      1.0  0.71200  0.75000  0.66300  1.0000
