data_image0
_chemical_formula_structural       Ce20Ir16
_chemical_formula_sum              "Ce20 Ir16"
_cell_length_a       7.57448
_cell_length_b       15.1067
_cell_length_c       7.78112
_cell_angle_alpha    90
_cell_angle_beta     90
_cell_angle_gamma    90

_space_group_name_H-M_alt    "P 1"
_space_group_IT_number       1

loop_
  _space_group_symop_operation_xyz
  'x, y, z'

loop_
  _atom_site_type_symbol
  _atom_site_label
  _atom_site_symmetry_multiplicity
  _atom_site_fract_x
  _atom_site_fract_y
  _atom_site_fract_z
  _atom_site_occupancy
  Ce  Ce1       1.0  0.32000  0.25000  0.98600  1.0000
  Ce  Ce2       1.0  0.18000  0.75000  0.48600  1.0000
  Ce  Ce3       1.0  0.82000  0.25000  0.51400  1.0000
  Ce  Ce4       1.0  0.68000  0.75000  0.01450  1.0000
  Ce  Ce5       1.0  0.00522  0.09170  0.82100  1.0000
  Ce  Ce6       1.0  0.49500  0.90800  0.32100  1.0000
  Ce  Ce7       1.0  0.50500  0.40800  0.67900  1.0000
  Ce  Ce8       1.0  0.99500  0.59200  0.17900  1.0000
  Ce  Ce9       1.0  0.99500  0.90800  0.17900  1.0000
  Ce  Ce10      1.0  0.50500  0.09170  0.67900  1.0000
  Ce  Ce11      1.0  0.49500  0.59200  0.32100  1.0000
  Ce  Ce12      1.0  0.00522  0.40800  0.82100  1.0000
  Ce  Ce13      1.0  0.15400  0.12200  0.32800  1.0000
  Ce  Ce14      1.0  0.34600  0.87800  0.82800  1.0000
  Ce  Ce15      1.0  0.65400  0.37800  0.17200  1.0000
  Ce  Ce16      1.0  0.84600  0.62200  0.67200  1.0000
  Ce  Ce17      1.0  0.84600  0.87800  0.67200  1.0000
  Ce  Ce18      1.0  0.65400  0.12200  0.17200  1.0000
  Ce  Ce19      1.0  0.34600  0.62200  0.82800  1.0000
  Ce  Ce20      1.0  0.15400  0.37800  0.32800  1.0000
  Ir  Ir1       1.0  0.17900  0.96300  0.53500  1.0000
  Ir  Ir2       1.0  0.32100  0.03710  0.03490  1.0000
  Ir  Ir3       1.0  0.67900  0.53700  0.96500  1.0000
  Ir  Ir4       1.0  0.82100  0.46300  0.46500  1.0000
  Ir  Ir5       1.0  0.82100  0.03710  0.46500  1.0000
  Ir  Ir6       1.0  0.67900  0.96300  0.96500  1.0000
  Ir  Ir7       1.0  0.32100  0.46300  0.03490  1.0000
  Ir  Ir8       1.0  0.17900  0.53700  0.53500  1.0000
  Ir  Ir9       1.0  0.94700  0.25000  0.09140  1.0000
  Ir  Ir10      1.0  0.55300  0.75000  0.59100  1.0000
  Ir  Ir11      1.0  0.44700  0.25000  0.40900  1.0000
  Ir  Ir12      1.0  0.05280  0.75000  0.90900  1.0000
  Ir  Ir13      1.0  0.19700  0.25000  0.64000  1.0000
  Ir  Ir14      1.0  0.30300  0.75000  0.14000  1.0000
  Ir  Ir15      1.0  0.69700  0.25000  0.86000  1.0000
  Ir  Ir16      1.0  0.80300  0.75000  0.36000  1.0000
