data_image0
_chemical_formula_structural       O18Ti10
_chemical_formula_sum              "O18 Ti10"
_cell_length_a       5.50685
_cell_length_b       7.06448
_cell_length_c       8.73547
_cell_angle_alpha    98.3329
_cell_angle_beta     112.121
_cell_angle_gamma    107.924

_space_group_name_H-M_alt    "P 1"
_space_group_IT_number       1

loop_
  _space_group_symop_operation_xyz
  'x, y, z'

loop_
  _atom_site_type_symbol
  _atom_site_label
  _atom_site_symmetry_multiplicity
  _atom_site_fract_x
  _atom_site_fract_y
  _atom_site_fract_z
  _atom_site_occupancy
  O   O1        1.0  0.87500  0.63700  0.98300  1.0000
  O   O2        1.0  0.07270  0.96900  0.86900  1.0000
  O   O3        1.0  0.56500  0.02970  0.79900  1.0000
  O   O4        1.0  0.31700  0.29400  0.75900  1.0000
  O   O5        1.0  0.79500  0.36000  0.68900  1.0000
  O   O6        1.0  0.50400  0.63400  0.65500  1.0000
  O   O7        1.0  0.99200  0.68100  0.56600  1.0000
  O   O8        1.0  0.77000  0.97000  0.52900  1.0000
  O   O9        1.0  0.64300  0.30700  0.09230  1.0000
  O   O10       1.0  0.95400  0.30000  0.43500  1.0000
  O   O11       1.0  0.48600  0.36600  0.34700  1.0000
  O   O12       1.0  0.21400  0.64400  0.31400  1.0000
  O   O13       1.0  0.66900  0.69700  0.25200  1.0000
  O   O14       1.0  0.44700  0.98500  0.21500  1.0000
  O   O15       1.0  0.93500  0.03210  0.12600  1.0000
  O   O16       1.0  0.12300  0.37300  0.02230  1.0000
  O   O17       1.0  0.36700  0.69700  0.91200  1.0000
  O   O18       1.0  0.22500  0.02270  0.46800  1.0000
  Ti  Ti1       1.0  0.17300  0.99200  0.68300  1.0000
  Ti  Ti2       1.0  0.16200  0.49100  0.68600  1.0000
  Ti  Ti3       1.0  0.85500  0.00273  0.31200  1.0000
  Ti  Ti4       1.0  0.86700  0.50600  0.31600  1.0000
  Ti  Ti5       1.0  0.57200  0.16100  0.46600  1.0000
  Ti  Ti6       1.0  0.58400  0.66400  0.46900  1.0000
  Ti  Ti7       1.0  0.27600  0.17500  0.09520  1.0000
  Ti  Ti8       1.0  0.71900  0.83300  0.89000  1.0000
  Ti  Ti9       1.0  0.26700  0.67500  0.09880  1.0000
  Ti  Ti10      1.0  0.72000  0.33400  0.89100  1.0000
