data_image0
_chemical_formula_structural       Mg4Se8
_chemical_formula_sum              "Mg4 Se8"
_cell_length_a       6.48786
_cell_length_b       6.48786
_cell_length_c       6.48786
_cell_angle_alpha    90
_cell_angle_beta     90
_cell_angle_gamma    90

_space_group_name_H-M_alt    "P 1"
_space_group_IT_number       1

loop_
  _space_group_symop_operation_xyz
  'x, y, z'

loop_
  _atom_site_type_symbol
  _atom_site_label
  _atom_site_symmetry_multiplicity
  _atom_site_fract_x
  _atom_site_fract_y
  _atom_site_fract_z
  _atom_site_occupancy
  Mg  Mg1       1.0  0.00000  0.00000  0.00000  1.0000
  Mg  Mg2       1.0  0.50000  0.50000  0.00000  1.0000
  Mg  Mg3       1.0  0.50000  0.00000  0.50000  1.0000
  Mg  Mg4       1.0  0.00000  0.50000  0.50000  1.0000
  Se  Se1       1.0  0.89300  0.39300  0.10700  1.0000
  Se  Se2       1.0  0.60700  0.89300  0.10700  1.0000
  Se  Se3       1.0  0.39300  0.39300  0.39300  1.0000
  Se  Se4       1.0  0.10700  0.89300  0.39300  1.0000
  Se  Se5       1.0  0.89300  0.10700  0.60700  1.0000
  Se  Se6       1.0  0.60700  0.60700  0.60700  1.0000
  Se  Se7       1.0  0.39300  0.10700  0.89300  1.0000
  Se  Se8       1.0  0.10700  0.60700  0.89300  1.0000
