data_image0
_chemical_formula_structural       Ge6Sc2
_chemical_formula_sum              "Ge6 Sc2"
_cell_length_a       5.73463
_cell_length_b       5.73463
_cell_length_c       5.23919
_cell_angle_alpha    90
_cell_angle_beta     90
_cell_angle_gamma    120

_space_group_name_H-M_alt    "P 1"
_space_group_IT_number       1

loop_
  _space_group_symop_operation_xyz
  'x, y, z'

loop_
  _atom_site_type_symbol
  _atom_site_label
  _atom_site_symmetry_multiplicity
  _atom_site_fract_x
  _atom_site_fract_y
  _atom_site_fract_z
  _atom_site_occupancy
  Ge  Ge1       1.0  0.16400  0.32700  0.25000  1.0000
  Ge  Ge2       1.0  0.67300  0.83600  0.25000  1.0000
  Ge  Ge3       1.0  0.16400  0.83600  0.25000  1.0000
  Ge  Ge4       1.0  0.83600  0.67300  0.75000  1.0000
  Ge  Ge5       1.0  0.32700  0.16400  0.75000  1.0000
  Ge  Ge6       1.0  0.83600  0.16400  0.75000  1.0000
  Sc  Sc1       1.0  0.33300  0.66700  0.75000  1.0000
  Sc  Sc2       1.0  0.66700  0.33300  0.25000  1.0000
