data_image0
_chemical_formula_structural       Ga13Mn13
_chemical_formula_sum              "Ga13 Mn13"
_cell_length_a       7.62732
_cell_length_b       7.62732
_cell_length_c       7.62732
_cell_angle_alpha    109.13
_cell_angle_beta     109.13
_cell_angle_gamma    109.13

_space_group_name_H-M_alt    "P 1"
_space_group_IT_number       1

loop_
  _space_group_symop_operation_xyz
  'x, y, z'

loop_
  _atom_site_type_symbol
  _atom_site_label
  _atom_site_symmetry_multiplicity
  _atom_site_fract_x
  _atom_site_fract_y
  _atom_site_fract_z
  _atom_site_occupancy
  Ga  Ga1       1.0  0.11600  0.50000  0.88400  1.0000
  Ga  Ga2       1.0  0.88400  0.11600  0.50000  1.0000
  Ga  Ga3       1.0  0.50000  0.88400  0.11600  1.0000
  Ga  Ga4       1.0  0.88400  0.50000  0.11600  1.0000
  Ga  Ga5       1.0  0.11600  0.88400  0.50000  1.0000
  Ga  Ga6       1.0  0.50000  0.11600  0.88400  1.0000
  Ga  Ga7       1.0  0.81000  0.45900  0.45900  1.0000
  Ga  Ga8       1.0  0.45900  0.81000  0.45900  1.0000
  Ga  Ga9       1.0  0.45900  0.45900  0.81000  1.0000
  Ga  Ga10      1.0  0.54100  0.19000  0.54100  1.0000
  Ga  Ga11      1.0  0.19000  0.54100  0.54100  1.0000
  Ga  Ga12      1.0  0.54100  0.54100  0.19000  1.0000
  Ga  Ga13      1.0  0.00000  0.00000  0.00000  1.0000
  Mn  Mn1       1.0  0.50000  0.50000  0.50000  1.0000
  Mn  Mn2       1.0  0.16200  0.81000  0.81000  1.0000
  Mn  Mn3       1.0  0.81000  0.16200  0.81000  1.0000
  Mn  Mn4       1.0  0.81000  0.81000  0.16200  1.0000
  Mn  Mn5       1.0  0.19000  0.83800  0.19000  1.0000
  Mn  Mn6       1.0  0.83800  0.19000  0.19000  1.0000
  Mn  Mn7       1.0  0.19000  0.19000  0.83800  1.0000
  Mn  Mn8       1.0  0.60000  0.81900  0.81900  1.0000
  Mn  Mn9       1.0  0.81900  0.60000  0.81900  1.0000
  Mn  Mn10      1.0  0.81900  0.81900  0.60000  1.0000
  Mn  Mn11      1.0  0.18100  0.40000  0.18100  1.0000
  Mn  Mn12      1.0  0.40000  0.18100  0.18100  1.0000
  Mn  Mn13      1.0  0.18100  0.18100  0.40000  1.0000
