data_image0
_chemical_formula_structural       Er2Ge6
_chemical_formula_sum              "Er2 Ge6"
_cell_length_a       3.90915
_cell_length_b       4.02146
_cell_length_c       10.5872
_cell_angle_alpha    79.0519
_cell_angle_beta     90
_cell_angle_gamma    90

_space_group_name_H-M_alt    "P 1"
_space_group_IT_number       1

loop_
  _space_group_symop_operation_xyz
  'x, y, z'

loop_
  _atom_site_type_symbol
  _atom_site_label
  _atom_site_symmetry_multiplicity
  _atom_site_fract_x
  _atom_site_fract_y
  _atom_site_fract_z
  _atom_site_occupancy
  Er  Er1       1.0  0.75000  0.41800  0.16500  1.0000
  Er  Er2       1.0  0.25000  0.58200  0.83500  1.0000
  Ge  Ge1       1.0  0.25000  0.96000  0.08030  1.0000
  Ge  Ge2       1.0  0.75000  0.81200  0.37600  1.0000
  Ge  Ge3       1.0  0.25000  0.30800  0.38300  1.0000
  Ge  Ge4       1.0  0.75000  0.69200  0.61700  1.0000
  Ge  Ge5       1.0  0.25000  0.18800  0.62400  1.0000
  Ge  Ge6       1.0  0.75000  0.04010  0.92000  1.0000
