data_image0
_chemical_formula_structural       B4Fe12
_chemical_formula_sum              "B4 Fe12"
_cell_length_a       4.23693
_cell_length_b       6.39979
_cell_length_c       6.39979
_cell_angle_alpha    83.7092
_cell_angle_beta     70.6692
_cell_angle_gamma    70.6692

_space_group_name_H-M_alt    "P 1"
_space_group_IT_number       1

loop_
  _space_group_symop_operation_xyz
  'x, y, z'

loop_
  _atom_site_type_symbol
  _atom_site_label
  _atom_site_symmetry_multiplicity
  _atom_site_fract_x
  _atom_site_fract_y
  _atom_site_fract_z
  _atom_site_occupancy
  B   B1        1.0  0.19700  0.31600  0.26900  1.0000
  B   B2        1.0  0.48800  0.73100  0.31600  1.0000
  B   B3        1.0  0.53400  0.26900  0.68400  1.0000
  B   B4        1.0  0.78200  0.68400  0.73100  1.0000
  Fe  Fe1       1.0  0.33600  0.81200  0.01250  1.0000
  Fe  Fe2       1.0  0.92500  0.60000  0.02170  1.0000
  Fe  Fe3       1.0  0.65200  0.01250  0.18800  1.0000
  Fe  Fe4       1.0  0.63300  0.37100  0.34700  1.0000
  Fe  Fe5       1.0  0.99600  0.65300  0.37100  1.0000
  Fe  Fe6       1.0  0.05310  0.02170  0.40000  1.0000
  Fe  Fe7       1.0  0.47500  0.97800  0.60000  1.0000
  Fe  Fe8       1.0  0.02070  0.34700  0.62900  1.0000
  Fe  Fe9       1.0  0.35000  0.62900  0.65300  1.0000
  Fe  Fe10      1.0  0.85200  0.98800  0.81200  1.0000
  Fe  Fe11      1.0  0.54700  0.40000  0.97800  1.0000
  Fe  Fe12      1.0  0.16000  0.18800  0.98800  1.0000
