data_image0
_chemical_formula_structural       I6P2
_chemical_formula_sum              "I6 P2"
_cell_length_a       7.40849
_cell_length_b       7.41075
_cell_length_c       7.97946
_cell_angle_alpha    90
_cell_angle_beta     90
_cell_angle_gamma    119.977

_space_group_name_H-M_alt    "P 1"
_space_group_IT_number       1

loop_
  _space_group_symop_operation_xyz
  'x, y, z'

loop_
  _atom_site_type_symbol
  _atom_site_label
  _atom_site_symmetry_multiplicity
  _atom_site_fract_x
  _atom_site_fract_y
  _atom_site_fract_z
  _atom_site_occupancy
  I   I1        1.0  0.04080  0.35100  0.00389  1.0000
  I   I2        1.0  0.31000  0.95900  0.00392  1.0000
  I   I3        1.0  0.64900  0.69000  0.00394  1.0000
  I   I4        1.0  0.95900  0.64900  0.50400  1.0000
  I   I5        1.0  0.69000  0.04080  0.50400  1.0000
  I   I6        1.0  0.35100  0.31000  0.50400  1.0000
  P   P1        1.0  0.33300  0.66700  0.13400  1.0000
  P   P2        1.0  0.66700  0.33300  0.63400  1.0000
