data_image0
_chemical_formula_structural       Mg4Pd8
_chemical_formula_sum              "Mg4 Pd8"
_cell_length_a       5.48486
_cell_length_b       4.19324
_cell_length_c       8.07265
_cell_angle_alpha    90
_cell_angle_beta     90
_cell_angle_gamma    90

_space_group_name_H-M_alt    "P 1"
_space_group_IT_number       1

loop_
  _space_group_symop_operation_xyz
  'x, y, z'

loop_
  _atom_site_type_symbol
  _atom_site_label
  _atom_site_symmetry_multiplicity
  _atom_site_fract_x
  _atom_site_fract_y
  _atom_site_fract_z
  _atom_site_occupancy
  Mg  Mg1       1.0  0.32700  0.25000  0.09900  1.0000
  Mg  Mg2       1.0  0.82700  0.25000  0.40100  1.0000
  Mg  Mg3       1.0  0.17300  0.75000  0.59900  1.0000
  Mg  Mg4       1.0  0.67300  0.75000  0.90100  1.0000
  Pd  Pd1       1.0  0.83700  0.25000  0.07040  1.0000
  Pd  Pd2       1.0  0.56100  0.75000  0.23300  1.0000
  Pd  Pd3       1.0  0.06140  0.75000  0.26700  1.0000
  Pd  Pd4       1.0  0.33700  0.25000  0.43000  1.0000
  Pd  Pd5       1.0  0.66300  0.75000  0.57000  1.0000
  Pd  Pd6       1.0  0.93900  0.25000  0.73300  1.0000
  Pd  Pd7       1.0  0.43900  0.25000  0.76700  1.0000
  Pd  Pd8       1.0  0.16300  0.75000  0.93000  1.0000
