data_image0
_chemical_formula_structural       Hg6Sc2
_chemical_formula_sum              "Hg6 Sc2"
_cell_length_a       6.39132
_cell_length_b       6.39144
_cell_length_c       4.83566
_cell_angle_alpha    90
_cell_angle_beta     90
_cell_angle_gamma    119.999

_space_group_name_H-M_alt    "P 1"
_space_group_IT_number       1

loop_
  _space_group_symop_operation_xyz
  'x, y, z'

loop_
  _atom_site_type_symbol
  _atom_site_label
  _atom_site_symmetry_multiplicity
  _atom_site_fract_x
  _atom_site_fract_y
  _atom_site_fract_z
  _atom_site_occupancy
  Hg  Hg1       1.0  0.33900  0.17000  0.25000  1.0000
  Hg  Hg2       1.0  0.83000  0.17000  0.25000  1.0000
  Hg  Hg3       1.0  0.83000  0.66100  0.25000  1.0000
  Hg  Hg4       1.0  0.17000  0.33900  0.75000  1.0000
  Hg  Hg5       1.0  0.17000  0.83000  0.75000  1.0000
  Hg  Hg6       1.0  0.66100  0.83000  0.75000  1.0000
  Sc  Sc1       1.0  0.33300  0.66700  0.25000  1.0000
  Sc  Sc2       1.0  0.66700  0.33300  0.75000  1.0000
