data_image0
_chemical_formula_structural       Hf6Pu2
_chemical_formula_sum              "Hf6 Pu2"
_cell_length_a       6.3961
_cell_length_b       6.3961
_cell_length_c       5.18085
_cell_angle_alpha    90
_cell_angle_beta     90
_cell_angle_gamma    120

_space_group_name_H-M_alt    "P 1"
_space_group_IT_number       1

loop_
  _space_group_symop_operation_xyz
  'x, y, z'

loop_
  _atom_site_type_symbol
  _atom_site_label
  _atom_site_symmetry_multiplicity
  _atom_site_fract_x
  _atom_site_fract_y
  _atom_site_fract_z
  _atom_site_occupancy
  Hf  Hf1       1.0  0.16400  0.32900  0.25000  1.0000
  Hf  Hf2       1.0  0.67100  0.83600  0.25000  1.0000
  Hf  Hf3       1.0  0.16400  0.83600  0.25000  1.0000
  Hf  Hf4       1.0  0.83600  0.67100  0.75000  1.0000
  Hf  Hf5       1.0  0.32900  0.16400  0.75000  1.0000
  Hf  Hf6       1.0  0.83600  0.16400  0.75000  1.0000
  Pu  Pu1       1.0  0.33300  0.66700  0.75000  1.0000
  Pu  Pu2       1.0  0.66700  0.33300  0.25000  1.0000
