data_image0
_chemical_formula_structural       Mg2Sb4
_chemical_formula_sum              "Mg2 Sb4"
_cell_length_a       3.23483
_cell_length_b       6.52813
_cell_length_c       8.15977
_cell_angle_alpha    79.6589
_cell_angle_beta     90
_cell_angle_gamma    104.345

_space_group_name_H-M_alt    "P 1"
_space_group_IT_number       1

loop_
  _space_group_symop_operation_xyz
  'x, y, z'

loop_
  _atom_site_type_symbol
  _atom_site_label
  _atom_site_symmetry_multiplicity
  _atom_site_fract_x
  _atom_site_fract_y
  _atom_site_fract_z
  _atom_site_occupancy
  Mg  Mg1       1.0  0.39500  0.79100  0.68700  1.0000
  Mg  Mg2       1.0  0.66000  0.32000  0.70200  1.0000
  Sb  Sb1       1.0  0.79000  0.58000  0.98300  1.0000
  Sb  Sb2       1.0  0.02610  0.05220  0.98500  1.0000
  Sb  Sb3       1.0  0.02950  0.05890  0.40400  1.0000
  Sb  Sb4       1.0  0.26600  0.53100  0.40600  1.0000
