data_image0
_chemical_formula_structural       Ca6Zn2
_chemical_formula_sum              "Ca6 Zn2"
_cell_length_a       4.09397
_cell_length_b       6.89458
_cell_length_c       10.0616
_cell_angle_alpha    90
_cell_angle_beta     90
_cell_angle_gamma    72.7286

_space_group_name_H-M_alt    "P 1"
_space_group_IT_number       1

loop_
  _space_group_symop_operation_xyz
  'x, y, z'

loop_
  _atom_site_type_symbol
  _atom_site_label
  _atom_site_symmetry_multiplicity
  _atom_site_fract_x
  _atom_site_fract_y
  _atom_site_fract_z
  _atom_site_occupancy
  Ca  Ca1       1.0  0.14200  0.71600  0.06060  1.0000
  Ca  Ca2       1.0  0.43200  0.13700  0.25000  1.0000
  Ca  Ca3       1.0  0.14200  0.71600  0.43900  1.0000
  Ca  Ca4       1.0  0.85800  0.28400  0.56100  1.0000
  Ca  Ca5       1.0  0.56800  0.86300  0.75000  1.0000
  Ca  Ca6       1.0  0.85800  0.28400  0.93900  1.0000
  Zn  Zn1       1.0  0.75300  0.49400  0.25000  1.0000
  Zn  Zn2       1.0  0.24700  0.50600  0.75000  1.0000
