data_image0
_chemical_formula_structural       Pr2Te6
_chemical_formula_sum              "Pr2 Te6"
_cell_length_a       13.7038
_cell_length_b       4.40224
_cell_length_c       4.40025
_cell_angle_alpha    90
_cell_angle_beta     90
_cell_angle_gamma    99.243

_space_group_name_H-M_alt    "P 1"
_space_group_IT_number       1

loop_
  _space_group_symop_operation_xyz
  'x, y, z'

loop_
  _atom_site_type_symbol
  _atom_site_label
  _atom_site_symmetry_multiplicity
  _atom_site_fract_x
  _atom_site_fract_y
  _atom_site_fract_z
  _atom_site_occupancy
  Pr  Pr1       1.0  0.66000  0.75000  0.25000  1.0000
  Pr  Pr2       1.0  0.34000  0.09010  0.75000  1.0000
  Te  Te1       1.0  0.85200  0.34600  0.25000  1.0000
  Te  Te2       1.0  0.41200  0.62600  0.25000  1.0000
  Te  Te3       1.0  0.14800  0.99400  0.25000  1.0000
  Te  Te4       1.0  0.58800  0.21400  0.75000  1.0000
  Te  Te5       1.0  0.14800  0.49400  0.75000  1.0000
  Te  Te6       1.0  0.85200  0.84600  0.75000  1.0000
