data_image0
_chemical_formula_structural       Dy12Ni4
_chemical_formula_sum              "Dy12 Ni4"
_cell_length_a       6.84284
_cell_length_b       9.59014
_cell_length_c       6.25408
_cell_angle_alpha    90
_cell_angle_beta     90
_cell_angle_gamma    90

_space_group_name_H-M_alt    "P 1"
_space_group_IT_number       1

loop_
  _space_group_symop_operation_xyz
  'x, y, z'

loop_
  _atom_site_type_symbol
  _atom_site_label
  _atom_site_symmetry_multiplicity
  _atom_site_fract_x
  _atom_site_fract_y
  _atom_site_fract_z
  _atom_site_occupancy
  Dy  Dy1       1.0  0.46700  0.75000  0.13500  1.0000
  Dy  Dy2       1.0  0.18000  0.06400  0.18000  1.0000
  Dy  Dy3       1.0  0.18000  0.43600  0.18000  1.0000
  Dy  Dy4       1.0  0.68000  0.06400  0.32000  1.0000
  Dy  Dy5       1.0  0.68000  0.43600  0.32000  1.0000
  Dy  Dy6       1.0  0.96700  0.75000  0.36500  1.0000
  Dy  Dy7       1.0  0.03300  0.25000  0.63500  1.0000
  Dy  Dy8       1.0  0.32000  0.56400  0.68000  1.0000
  Dy  Dy9       1.0  0.32000  0.93600  0.68000  1.0000
  Dy  Dy10      1.0  0.82000  0.56400  0.82000  1.0000
  Dy  Dy11      1.0  0.82000  0.93600  0.82000  1.0000
  Dy  Dy12      1.0  0.53300  0.25000  0.86500  1.0000
  Ni  Ni1       1.0  0.89100  0.25000  0.06400  1.0000
  Ni  Ni2       1.0  0.39100  0.25000  0.43600  1.0000
  Ni  Ni3       1.0  0.60900  0.75000  0.56400  1.0000
  Ni  Ni4       1.0  0.10900  0.75000  0.93600  1.0000
