data_image0
_chemical_formula_structural       Ga4Mg2
_chemical_formula_sum              "Ga4 Mg2"
_cell_length_a       4.34812
_cell_length_b       4.34799
_cell_length_c       6.92566
_cell_angle_alpha    90
_cell_angle_beta     90
_cell_angle_gamma    120.001

_space_group_name_H-M_alt    "P 1"
_space_group_IT_number       1

loop_
  _space_group_symop_operation_xyz
  'x, y, z'

loop_
  _atom_site_type_symbol
  _atom_site_label
  _atom_site_symmetry_multiplicity
  _atom_site_fract_x
  _atom_site_fract_y
  _atom_site_fract_z
  _atom_site_occupancy
  Ga  Ga1       1.0  0.33300  0.66700  0.05140  1.0000
  Ga  Ga2       1.0  0.33300  0.66700  0.44900  1.0000
  Ga  Ga3       1.0  0.66700  0.33300  0.55100  1.0000
  Ga  Ga4       1.0  0.66700  0.33300  0.94900  1.0000
  Mg  Mg1       1.0  0.00000  0.00000  0.25000  1.0000
  Mg  Mg2       1.0  0.00001  0.00002  0.75000  1.0000
