data_image0
_chemical_formula_structural       As4Mg2
_chemical_formula_sum              "As4 Mg2"
_cell_length_a       3.29689
_cell_length_b       3.29689
_cell_length_c       14.8055
_cell_angle_alpha    90
_cell_angle_beta     90
_cell_angle_gamma    120

_space_group_name_H-M_alt    "P 1"
_space_group_IT_number       1

loop_
  _space_group_symop_operation_xyz
  'x, y, z'

loop_
  _atom_site_type_symbol
  _atom_site_label
  _atom_site_symmetry_multiplicity
  _atom_site_fract_x
  _atom_site_fract_y
  _atom_site_fract_z
  _atom_site_occupancy
  As  As1       1.0  0.00000  0.00000  0.97900  1.0000
  As  As2       1.0  0.66700  0.33300  0.19700  1.0000
  As  As3       1.0  0.00000  0.00000  0.30300  1.0000
  As  As4       1.0  0.66700  0.33300  0.52100  1.0000
  Mg  Mg1       1.0  0.00000  0.00000  0.65900  1.0000
  Mg  Mg2       1.0  0.66700  0.33300  0.84100  1.0000
