data_image0
_chemical_formula_structural       MgSe5
_chemical_formula_sum              "Mg1 Se5"
_cell_length_a       3.53968
_cell_length_b       9.29867
_cell_length_c       4.73296
_cell_angle_alpha    90
_cell_angle_beta     90
_cell_angle_gamma    79.0278

_space_group_name_H-M_alt    "P 1"
_space_group_IT_number       1

loop_
  _space_group_symop_operation_xyz
  'x, y, z'

loop_
  _atom_site_type_symbol
  _atom_site_label
  _atom_site_symmetry_multiplicity
  _atom_site_fract_x
  _atom_site_fract_y
  _atom_site_fract_z
  _atom_site_occupancy
  Mg  Mg1       1.0  0.78700  0.42600  0.50000  1.0000
  Se  Se1       1.0  0.01300  0.97400  0.00000  1.0000
  Se  Se2       1.0  0.34600  0.30800  0.00000  1.0000
  Se  Se3       1.0  0.60400  0.79100  0.00000  1.0000
  Se  Se4       1.0  0.40000  0.20000  0.50000  1.0000
  Se  Se5       1.0  0.18300  0.63500  0.50000  1.0000
