data_image0
_chemical_formula_structural       Pt4Sc4Si4
_chemical_formula_sum              "Pt4 Sc4 Si4"
_cell_length_a       6.59703
_cell_length_b       4.15696
_cell_length_c       7.32411
_cell_angle_alpha    90
_cell_angle_beta     90
_cell_angle_gamma    90

_space_group_name_H-M_alt    "P 1"
_space_group_IT_number       1

loop_
  _space_group_symop_operation_xyz
  'x, y, z'

loop_
  _atom_site_type_symbol
  _atom_site_label
  _atom_site_symmetry_multiplicity
  _atom_site_fract_x
  _atom_site_fract_y
  _atom_site_fract_z
  _atom_site_occupancy
  Pt  Pt1       1.0  0.20000  0.25000  0.08360  1.0000
  Pt  Pt2       1.0  0.70000  0.25000  0.41600  1.0000
  Pt  Pt3       1.0  0.30000  0.75000  0.58400  1.0000
  Pt  Pt4       1.0  0.80000  0.75000  0.91600  1.0000
  Sc  Sc1       1.0  0.50000  0.75000  0.20000  1.0000
  Sc  Sc2       1.0  0.00006  0.75000  0.30000  1.0000
  Sc  Sc3       1.0  0.00000  0.25000  0.70000  1.0000
  Sc  Sc4       1.0  0.50000  0.25000  0.80000  1.0000
  Si  Si1       1.0  0.80500  0.25000  0.09310  1.0000
  Si  Si2       1.0  0.30500  0.25000  0.40700  1.0000
  Si  Si3       1.0  0.69500  0.75000  0.59300  1.0000
  Si  Si4       1.0  0.19500  0.75000  0.90700  1.0000
