data_image0
_chemical_formula_structural       Ba2BiO6Sb
_chemical_formula_sum              "Ba2 Bi1 O6 Sb1"
_cell_length_a       6.03977
_cell_length_b       6.04369
_cell_length_c       6.06948
_cell_angle_alpha    119.536
_cell_angle_beta     119.838
_cell_angle_gamma    60.0214

_space_group_name_H-M_alt    "P 1"
_space_group_IT_number       1

loop_
  _space_group_symop_operation_xyz
  'x, y, z'

loop_
  _atom_site_type_symbol
  _atom_site_label
  _atom_site_symmetry_multiplicity
  _atom_site_fract_x
  _atom_site_fract_y
  _atom_site_fract_z
  _atom_site_occupancy
  Ba  Ba1       1.0  0.75100  0.75300  0.25400  1.0000
  Ba  Ba2       1.0  0.24900  0.24700  0.74600  1.0000
  Bi  Bi1       1.0  0.00000  0.00000  0.00000  1.0000
  O   O1        1.0  0.26800  0.67600  0.21300  1.0000
  O   O2        1.0  0.29500  0.24000  0.29900  1.0000
  O   O3        1.0  0.76400  0.24000  0.29900  1.0000
  O   O4        1.0  0.23600  0.76000  0.70100  1.0000
  O   O5        1.0  0.70500  0.76000  0.70100  1.0000
  O   O6        1.0  0.73200  0.32400  0.78700  1.0000
  Sb  Sb1       1.0  0.50000  0.50000  0.50000  1.0000
