data_image0
_chemical_formula_structural       Cu4Na4O4
_chemical_formula_sum              "Cu4 Na4 O4"
_cell_length_a       4.6398
_cell_length_b       6.63328
_cell_length_c       6.63328
_cell_angle_alpha    97.0258
_cell_angle_beta     69.5288
_cell_angle_gamma    110.471

_space_group_name_H-M_alt    "P 1"
_space_group_IT_number       1

loop_
  _space_group_symop_operation_xyz
  'x, y, z'

loop_
  _atom_site_type_symbol
  _atom_site_label
  _atom_site_symmetry_multiplicity
  _atom_site_fract_x
  _atom_site_fract_y
  _atom_site_fract_z
  _atom_site_occupancy
  Cu  Cu1       1.0  0.39800  0.50000  0.20400  1.0000
  Cu  Cu2       1.0  0.39800  0.79600  0.50000  1.0000
  Cu  Cu3       1.0  0.10200  0.20400  0.50000  1.0000
  Cu  Cu4       1.0  0.10200  0.50000  0.79600  1.0000
  Na  Na1       1.0  0.07660  0.82600  0.17300  1.0000
  Na  Na2       1.0  0.75000  0.17300  0.17400  1.0000
  Na  Na3       1.0  0.75000  0.82700  0.82600  1.0000
  Na  Na4       1.0  0.42300  0.17400  0.82700  1.0000
  O   O1        1.0  0.54500  0.79400  0.20500  1.0000
  O   O2        1.0  0.25000  0.20500  0.20600  1.0000
  O   O3        1.0  0.25000  0.79500  0.79400  1.0000
  O   O4        1.0  0.95500  0.20600  0.79500  1.0000
