data_image0
_chemical_formula_structural       Ce6Cl2Ga8
_chemical_formula_sum              "Ce6 Cl2 Ga8"
_cell_length_a       8.09338
_cell_length_b       8.09338
_cell_length_c       8.09338
_cell_angle_alpha    91.2034
_cell_angle_beta     119.308
_cell_angle_gamma    119.308

_space_group_name_H-M_alt    "P 1"
_space_group_IT_number       1

loop_
  _space_group_symop_operation_xyz
  'x, y, z'

loop_
  _atom_site_type_symbol
  _atom_site_label
  _atom_site_symmetry_multiplicity
  _atom_site_fract_x
  _atom_site_fract_y
  _atom_site_fract_z
  _atom_site_occupancy
  Ce  Ce1       1.0  0.82200  0.66100  0.16100  1.0000
  Ce  Ce2       1.0  0.00000  0.25000  0.25000  1.0000
  Ce  Ce3       1.0  0.50000  0.16100  0.33900  1.0000
  Ce  Ce4       1.0  0.50000  0.83900  0.66100  1.0000
  Ce  Ce5       1.0  0.00000  0.75000  0.75000  1.0000
  Ce  Ce6       1.0  0.17800  0.33900  0.83900  1.0000
  Cl  Cl1       1.0  0.00000  0.00000  0.00000  1.0000
  Cl  Cl2       1.0  0.00000  0.50000  0.50000  1.0000
  Ga  Ga1       1.0  0.50000  0.84200  0.05470  1.0000
  Ga  Ga2       1.0  0.21300  0.65800  0.15800  1.0000
  Ga  Ga3       1.0  0.50000  0.55500  0.34200  1.0000
  Ga  Ga4       1.0  0.78700  0.94500  0.44500  1.0000
  Ga  Ga5       1.0  0.21300  0.05470  0.55500  1.0000
  Ga  Ga6       1.0  0.50000  0.44500  0.65800  1.0000
  Ga  Ga7       1.0  0.78700  0.34200  0.84200  1.0000
  Ga  Ga8       1.0  0.50000  0.15800  0.94500  1.0000
