data_image0
_chemical_formula_structural       Ge4Rh8
_chemical_formula_sum              "Ge4 Rh8"
_cell_length_a       5.51444
_cell_length_b       7.66484
_cell_length_c       4.05506
_cell_angle_alpha    90
_cell_angle_beta     90
_cell_angle_gamma    90

_space_group_name_H-M_alt    "P 1"
_space_group_IT_number       1

loop_
  _space_group_symop_operation_xyz
  'x, y, z'

loop_
  _atom_site_type_symbol
  _atom_site_label
  _atom_site_symmetry_multiplicity
  _atom_site_fract_x
  _atom_site_fract_y
  _atom_site_fract_z
  _atom_site_occupancy
  Ge  Ge1       1.0  0.71200  0.60400  0.25000  1.0000
  Ge  Ge2       1.0  0.21200  0.89600  0.25000  1.0000
  Ge  Ge3       1.0  0.78800  0.10400  0.75000  1.0000
  Ge  Ge4       1.0  0.28800  0.39600  0.75000  1.0000
  Rh  Rh1       1.0  0.02940  0.20600  0.25000  1.0000
  Rh  Rh2       1.0  0.52900  0.29400  0.25000  1.0000
  Rh  Rh3       1.0  0.16300  0.57000  0.25000  1.0000
  Rh  Rh4       1.0  0.66300  0.93000  0.25000  1.0000
  Rh  Rh5       1.0  0.33700  0.06970  0.75000  1.0000
  Rh  Rh6       1.0  0.83700  0.43000  0.75000  1.0000
  Rh  Rh7       1.0  0.47100  0.70600  0.75000  1.0000
  Rh  Rh8       1.0  0.97100  0.79400  0.75000  1.0000
