data_image0
_chemical_formula_structural       Cl4
_chemical_formula_sum              "Cl4"
_cell_length_a       3.85338
_cell_length_b       3.85338
_cell_length_c       7.93668
_cell_angle_alpha    90
_cell_angle_beta     90
_cell_angle_gamma    68.8894

_space_group_name_H-M_alt    "P 1"
_space_group_IT_number       1

loop_
  _space_group_symop_operation_xyz
  'x, y, z'

loop_
  _atom_site_type_symbol
  _atom_site_label
  _atom_site_symmetry_multiplicity
  _atom_site_fract_x
  _atom_site_fract_y
  _atom_site_fract_z
  _atom_site_occupancy
  Cl  Cl1       1.0  0.12800  0.87200  0.10600  1.0000
  Cl  Cl2       1.0  0.62800  0.37200  0.39400  1.0000
  Cl  Cl3       1.0  0.37200  0.62800  0.60600  1.0000
  Cl  Cl4       1.0  0.87200  0.12800  0.89400  1.0000
