data_image0
_chemical_formula_structural       C4
_chemical_formula_sum              "C4"
_cell_length_a       2.50592
_cell_length_b       2.50588
_cell_length_c       4.16851
_cell_angle_alpha    90
_cell_angle_beta     90
_cell_angle_gamma    120.001

_space_group_name_H-M_alt    "P 1"
_space_group_IT_number       1

loop_
  _space_group_symop_operation_xyz
  'x, y, z'

loop_
  _atom_site_type_symbol
  _atom_site_label
  _atom_site_symmetry_multiplicity
  _atom_site_fract_x
  _atom_site_fract_y
  _atom_site_fract_z
  _atom_site_occupancy
  C   C1        1.0  0.33300  0.66700  0.06280  1.0000
  C   C2        1.0  0.33300  0.66700  0.43700  1.0000
  C   C3        1.0  0.66700  0.33300  0.56300  1.0000
  C   C4        1.0  0.66700  0.33300  0.93700  1.0000
