data_image0
_chemical_formula_structural       Eu4H8
_chemical_formula_sum              "Eu4 H8"
_cell_length_a       5.17456
_cell_length_b       3.94718
_cell_length_c       6.85756
_cell_angle_alpha    90
_cell_angle_beta     90
_cell_angle_gamma    90

_space_group_name_H-M_alt    "P 1"
_space_group_IT_number       1

loop_
  _space_group_symop_operation_xyz
  'x, y, z'

loop_
  _atom_site_type_symbol
  _atom_site_label
  _atom_site_symmetry_multiplicity
  _atom_site_fract_x
  _atom_site_fract_y
  _atom_site_fract_z
  _atom_site_occupancy
  Eu  Eu1       1.0  0.25000  0.25000  0.08400  1.0000
  Eu  Eu2       1.0  0.75000  0.25000  0.41600  1.0000
  Eu  Eu3       1.0  0.25000  0.75000  0.58400  1.0000
  Eu  Eu4       1.0  0.75000  0.75000  0.91600  1.0000
  H   H1        1.0  0.74800  0.25000  0.08330  1.0000
  H   H2        1.0  0.00000  0.75000  0.24900  1.0000
  H   H3        1.0  0.50000  0.75000  0.25100  1.0000
  H   H4        1.0  0.24800  0.25000  0.41700  1.0000
  H   H5        1.0  0.75200  0.75000  0.58300  1.0000
  H   H6        1.0  0.50000  0.25000  0.74900  1.0000
  H   H7        1.0  0.00024  0.25000  0.75100  1.0000
  H   H8        1.0  0.25200  0.75000  0.91700  1.0000
