data_image0
_chemical_formula_structural       H8La8O8
_chemical_formula_sum              "H8 La8 O8"
_cell_length_a       8.0309
_cell_length_b       8.0309
_cell_length_c       5.67353
_cell_angle_alpha    90
_cell_angle_beta     90
_cell_angle_gamma    90

_space_group_name_H-M_alt    "P 1"
_space_group_IT_number       1

loop_
  _space_group_symop_operation_xyz
  'x, y, z'

loop_
  _atom_site_type_symbol
  _atom_site_label
  _atom_site_symmetry_multiplicity
  _atom_site_fract_x
  _atom_site_fract_y
  _atom_site_fract_z
  _atom_site_occupancy
  H   H1        1.0  0.25000  0.01990  0.24500  1.0000
  H   H2        1.0  0.01990  0.25000  0.24500  1.0000
  H   H3        1.0  0.48000  0.25000  0.24500  1.0000
  H   H4        1.0  0.25000  0.48000  0.24500  1.0000
  H   H5        1.0  0.75000  0.98000  0.75500  1.0000
  H   H6        1.0  0.75000  0.52000  0.75500  1.0000
  H   H7        1.0  0.98000  0.75000  0.75500  1.0000
  H   H8        1.0  0.52000  0.75000  0.75500  1.0000
  La  La1       1.0  0.75000  0.25000  0.00000  1.0000
  La  La2       1.0  0.25000  0.75000  0.00000  1.0000
  La  La3       1.0  0.75000  0.75000  0.05440  1.0000
  La  La4       1.0  0.00000  0.00000  0.50000  1.0000
  La  La5       1.0  0.50000  0.00000  0.50000  1.0000
  La  La6       1.0  0.00000  0.50000  0.50000  1.0000
  La  La7       1.0  0.50000  0.50000  0.50000  1.0000
  La  La8       1.0  0.25000  0.25000  0.94600  1.0000
  O   O1        1.0  0.75000  0.01410  0.25800  1.0000
  O   O2        1.0  0.75000  0.48600  0.25800  1.0000
  O   O3        1.0  0.01410  0.75000  0.25800  1.0000
  O   O4        1.0  0.48600  0.75000  0.25800  1.0000
  O   O5        1.0  0.51400  0.25000  0.74200  1.0000
  O   O6        1.0  0.98600  0.25000  0.74200  1.0000
  O   O7        1.0  0.25000  0.51400  0.74200  1.0000
  O   O8        1.0  0.25000  0.98600  0.74200  1.0000
