data_image0
_chemical_formula_structural       H12MgO9Te
_chemical_formula_sum              "H12 Mg1 O9 Te1"
_cell_length_a       5.84675
_cell_length_b       5.84675
_cell_length_c       5.84675
_cell_angle_alpha    98.3937
_cell_angle_beta     98.3937
_cell_angle_gamma    98.3937

_space_group_name_H-M_alt    "P 1"
_space_group_IT_number       1

loop_
  _space_group_symop_operation_xyz
  'x, y, z'

loop_
  _atom_site_type_symbol
  _atom_site_label
  _atom_site_symmetry_multiplicity
  _atom_site_fract_x
  _atom_site_fract_y
  _atom_site_fract_z
  _atom_site_occupancy
  H   H1        1.0  0.53500  0.96100  0.03060  1.0000
  H   H2        1.0  0.42500  0.28600  0.08230  1.0000
  H   H3        1.0  0.62900  0.73600  0.12800  1.0000
  H   H4        1.0  0.81300  0.38800  0.17600  1.0000
  H   H5        1.0  0.08230  0.42500  0.28600  1.0000
  H   H6        1.0  0.17600  0.81300  0.38800  1.0000
  H   H7        1.0  0.28600  0.08230  0.42500  1.0000
  H   H8        1.0  0.96100  0.03060  0.53500  1.0000
  H   H9        1.0  0.73600  0.12800  0.62900  1.0000
  H   H10       1.0  0.12800  0.62900  0.73600  1.0000
  H   H11       1.0  0.38800  0.17600  0.81300  1.0000
  H   H12       1.0  0.03060  0.53500  0.96100  1.0000
  Mg  Mg1       1.0  0.00210  0.00210  0.00210  1.0000
  O   O1        1.0  0.67000  0.87400  0.04740  1.0000
  O   O2        1.0  0.96600  0.34100  0.14000  1.0000
  O   O3        1.0  0.59100  0.50300  0.23700  1.0000
  O   O4        1.0  0.14000  0.96600  0.34100  1.0000
  O   O5        1.0  0.23700  0.59100  0.50300  1.0000
  O   O6        1.0  0.50300  0.23700  0.59100  1.0000
  O   O7        1.0  0.87400  0.04740  0.67000  1.0000
  O   O8        1.0  0.04740  0.67000  0.87400  1.0000
  O   O9        1.0  0.34100  0.14000  0.96600  1.0000
  Te  Te1       1.0  0.55800  0.55800  0.55800  1.0000
