data_image0
_chemical_formula_structural       Li2O4Ti2
_chemical_formula_sum              "Li2 O4 Ti2"
_cell_length_a       4.05385
_cell_length_b       4.05385
_cell_length_c       5.09143
_cell_angle_alpha    113.46
_cell_angle_beta     113.46
_cell_angle_gamma    90

_space_group_name_H-M_alt    "P 1"
_space_group_IT_number       1

loop_
  _space_group_symop_operation_xyz
  'x, y, z'

loop_
  _atom_site_type_symbol
  _atom_site_label
  _atom_site_symmetry_multiplicity
  _atom_site_fract_x
  _atom_site_fract_y
  _atom_site_fract_z
  _atom_site_occupancy
  Li  Li1       1.0  0.62500  0.37500  0.25000  1.0000
  Li  Li2       1.0  0.37500  0.62500  0.75000  1.0000
  O   O1        1.0  0.62500  0.87500  0.24900  1.0000
  O   O2        1.0  0.12500  0.37500  0.25100  1.0000
  O   O3        1.0  0.87500  0.62500  0.74900  1.0000
  O   O4        1.0  0.37500  0.12500  0.75100  1.0000
  Ti  Ti1       1.0  0.12500  0.87500  0.25000  1.0000
  Ti  Ti2       1.0  0.87500  0.12500  0.75000  1.0000
