data_image0
_chemical_formula_structural       Cl2H12O6Sr
_chemical_formula_sum              "Cl2 H12 O6 Sr1"
_cell_length_a       7.84999
_cell_length_b       7.84934
_cell_length_c       3.92047
_cell_angle_alpha    90.0001
_cell_angle_beta     90.0017
_cell_angle_gamma    119.997

_space_group_name_H-M_alt    "P 1"
_space_group_IT_number       1

loop_
  _space_group_symop_operation_xyz
  'x, y, z'

loop_
  _atom_site_type_symbol
  _atom_site_label
  _atom_site_symmetry_multiplicity
  _atom_site_fract_x
  _atom_site_fract_y
  _atom_site_fract_z
  _atom_site_occupancy
  Cl  Cl1       1.0  0.33300  0.66700  0.42700  1.0000
  Cl  Cl2       1.0  0.66700  0.33300  0.57300  1.0000
  H   H1        1.0  0.35200  0.89900  0.09910  1.0000
  H   H2        1.0  0.10100  0.45300  0.09910  1.0000
  H   H3        1.0  0.54700  0.64800  0.09920  1.0000
  H   H4        1.0  0.36300  0.24700  0.48400  1.0000
  H   H5        1.0  0.88500  0.63700  0.48400  1.0000
  H   H6        1.0  0.75300  0.11500  0.48400  1.0000
  H   H7        1.0  0.24700  0.36300  0.51600  1.0000
  H   H8        1.0  0.11500  0.75300  0.51600  1.0000
  H   H9        1.0  0.63700  0.88500  0.51600  1.0000
  H   H10       1.0  0.45300  0.10100  0.90100  1.0000
  H   H11       1.0  0.89900  0.35200  0.90100  1.0000
  H   H12       1.0  0.64800  0.54700  0.90100  1.0000
  O   O1        1.0  0.67200  0.67200  1.00000  1.0000
  O   O2        1.0  0.00000  0.32800  0.00000  1.0000
  O   O3        1.0  0.32800  0.00000  0.00009  1.0000
  O   O4        1.0  0.77200  0.00004  0.50000  1.0000
  O   O5        1.0  0.00000  0.77200  0.50000  1.0000
  O   O6        1.0  0.22800  0.22800  0.50000  1.0000
  Sr  Sr1       1.0  0.00000  0.00000  0.00000  1.0000
