data_image0
_chemical_formula_structural       DyKS2
_chemical_formula_sum              "Dy1 K1 S2"
_cell_length_a       4.04431
_cell_length_b       4.04431
_cell_length_c       7.70551
_cell_angle_alpha    90
_cell_angle_beta     105.214
_cell_angle_gamma    120

_space_group_name_H-M_alt    "P 1"
_space_group_IT_number       1

loop_
  _space_group_symop_operation_xyz
  'x, y, z'

loop_
  _atom_site_type_symbol
  _atom_site_label
  _atom_site_symmetry_multiplicity
  _atom_site_fract_x
  _atom_site_fract_y
  _atom_site_fract_z
  _atom_site_occupancy
  Dy  Dy1       1.0  0.00000  0.00000  0.00000  1.0000
  K   K1        1.0  0.00000  0.50000  0.50000  1.0000
  S   S1        1.0  0.46800  0.73400  0.20200  1.0000
  S   S2        1.0  0.53200  0.26600  0.79800  1.0000
