data_image0
_chemical_formula_structural       S3SbTl3
_chemical_formula_sum              "S3 Sb1 Tl3"
_cell_length_a       6.17017
_cell_length_b       6.17017
_cell_length_c       6.17017
_cell_angle_alpha    104.532
_cell_angle_beta     104.532
_cell_angle_gamma    104.532

_space_group_name_H-M_alt    "P 1"
_space_group_IT_number       1

loop_
  _space_group_symop_operation_xyz
  'x, y, z'

loop_
  _atom_site_type_symbol
  _atom_site_label
  _atom_site_symmetry_multiplicity
  _atom_site_fract_x
  _atom_site_fract_y
  _atom_site_fract_z
  _atom_site_occupancy
  S   S1        1.0  0.41900  0.03290  0.03290  1.0000
  S   S2        1.0  0.03290  0.41900  0.03290  1.0000
  S   S3        1.0  0.03290  0.03290  0.41900  1.0000
  Sb  Sb1       1.0  0.00620  0.00620  0.00620  1.0000
  Tl  Tl1       1.0  0.83200  0.43900  0.43900  1.0000
  Tl  Tl2       1.0  0.43900  0.83200  0.43900  1.0000
  Tl  Tl3       1.0  0.43900  0.43900  0.83200  1.0000
