data_image0
_chemical_formula_structural       Br4OW
_chemical_formula_sum              "Br4 O1 W1"
_cell_length_a       3.8992
_cell_length_b       6.82449
_cell_length_c       6.82449
_cell_angle_alpha    94.6812
_cell_angle_beta     73.4007
_cell_angle_gamma    106.599

_space_group_name_H-M_alt    "P 1"
_space_group_IT_number       1

loop_
  _space_group_symop_operation_xyz
  'x, y, z'

loop_
  _atom_site_type_symbol
  _atom_site_label
  _atom_site_symmetry_multiplicity
  _atom_site_fract_x
  _atom_site_fract_y
  _atom_site_fract_z
  _atom_site_occupancy
  Br  Br1       1.0  0.06410  0.32700  0.18800  1.0000
  Br  Br2       1.0  0.73700  0.81200  0.32700  1.0000
  Br  Br3       1.0  0.25200  0.18800  0.67300  1.0000
  Br  Br4       1.0  0.92500  0.67300  0.81200  1.0000
  O   O1        1.0  0.47900  0.00000  0.00000  1.0000
  W   W1        1.0  0.93500  0.00000  0.00000  1.0000
