data_image0
_chemical_formula_structural       H12MgO9S
_chemical_formula_sum              "H12 Mg1 O9 S1"
_cell_length_a       5.76906
_cell_length_b       5.76906
_cell_length_c       5.76906
_cell_angle_alpha    97.4453
_cell_angle_beta     97.4453
_cell_angle_gamma    97.4453

_space_group_name_H-M_alt    "P 1"
_space_group_IT_number       1

loop_
  _space_group_symop_operation_xyz
  'x, y, z'

loop_
  _atom_site_type_symbol
  _atom_site_label
  _atom_site_symmetry_multiplicity
  _atom_site_fract_x
  _atom_site_fract_y
  _atom_site_fract_z
  _atom_site_occupancy
  H   H1        1.0  0.51800  0.94800  0.01110  1.0000
  H   H2        1.0  0.40300  0.27500  0.06920  1.0000
  H   H3        1.0  0.61000  0.73000  0.13100  1.0000
  H   H4        1.0  0.79400  0.36800  0.18700  1.0000
  H   H5        1.0  0.06920  0.40300  0.27500  1.0000
  H   H6        1.0  0.18700  0.79400  0.36800  1.0000
  H   H7        1.0  0.27500  0.06920  0.40300  1.0000
  H   H8        1.0  0.94800  0.01110  0.51800  1.0000
  H   H9        1.0  0.73000  0.13100  0.61000  1.0000
  H   H10       1.0  0.13100  0.61000  0.73000  1.0000
  H   H11       1.0  0.36800  0.18700  0.79400  1.0000
  H   H12       1.0  0.01110  0.51800  0.94800  1.0000
  Mg  Mg1       1.0  0.98400  0.98400  0.98400  1.0000
  O   O1        1.0  0.65900  0.87200  0.05790  1.0000
  O   O2        1.0  0.94500  0.32600  0.13800  1.0000
  O   O3        1.0  0.56300  0.48700  0.25300  1.0000
  O   O4        1.0  0.13800  0.94500  0.32600  1.0000
  O   O5        1.0  0.25300  0.56300  0.48700  1.0000
  O   O6        1.0  0.48700  0.25300  0.56300  1.0000
  O   O7        1.0  0.87200  0.05790  0.65900  1.0000
  O   O8        1.0  0.05790  0.65900  0.87200  1.0000
  O   O9        1.0  0.32600  0.13800  0.94500  1.0000
  S   S1        1.0  0.51300  0.51300  0.51300  1.0000
