data_image0
_chemical_formula_structural       As2Cl9Cs3
_chemical_formula_sum              "As2 Cl9 Cs3"
_cell_length_a       7.4369
_cell_length_b       7.43706
_cell_length_c       9.03451
_cell_angle_alpha    90
_cell_angle_beta     89.9924
_cell_angle_gamma    120.001

_space_group_name_H-M_alt    "P 1"
_space_group_IT_number       1

loop_
  _space_group_symop_operation_xyz
  'x, y, z'

loop_
  _atom_site_type_symbol
  _atom_site_label
  _atom_site_symmetry_multiplicity
  _atom_site_fract_x
  _atom_site_fract_y
  _atom_site_fract_z
  _atom_site_occupancy
  As  As1       1.0  0.66700  0.33300  0.18300  1.0000
  As  As2       1.0  0.33300  0.66700  0.81700  1.0000
  Cl  Cl1       1.0  0.50500  0.50500  0.00000  1.0000
  Cl  Cl2       1.0  0.49500  0.00000  0.00000  1.0000
  Cl  Cl3       1.0  0.00000  0.49500  0.00000  1.0000
  Cl  Cl4       1.0  0.36000  0.18300  0.32600  1.0000
  Cl  Cl5       1.0  0.82200  0.64000  0.32600  1.0000
  Cl  Cl6       1.0  0.81700  0.17800  0.32600  1.0000
  Cl  Cl7       1.0  0.18300  0.36000  0.67400  1.0000
  Cl  Cl8       1.0  0.17800  0.81700  0.67400  1.0000
  Cl  Cl9       1.0  0.64000  0.82200  0.67400  1.0000
  Cs  Cs1       1.0  0.00000  0.00000  0.00000  1.0000
  Cs  Cs2       1.0  0.33300  0.66700  0.32500  1.0000
  Cs  Cs3       1.0  0.66700  0.33300  0.67500  1.0000
