data_image0
_chemical_formula_structural       CuKNa2O2
_chemical_formula_sum              "Cu1 K1 Na2 O2"
_cell_length_a       4.30354
_cell_length_b       4.30354
_cell_length_c       6.2053
_cell_angle_alpha    110.289
_cell_angle_beta     110.289
_cell_angle_gamma    90

_space_group_name_H-M_alt    "P 1"
_space_group_IT_number       1

loop_
  _space_group_symop_operation_xyz
  'x, y, z'

loop_
  _atom_site_type_symbol
  _atom_site_label
  _atom_site_symmetry_multiplicity
  _atom_site_fract_x
  _atom_site_fract_y
  _atom_site_fract_z
  _atom_site_occupancy
  Cu  Cu1       1.0  0.99700  0.99700  0.99300  1.0000
  K   K1        1.0  0.57000  0.57000  0.13900  1.0000
  Na  Na1       1.0  0.77200  0.27200  0.54500  1.0000
  Na  Na2       1.0  0.27200  0.77200  0.54500  1.0000
  O   O1        1.0  0.16300  0.16300  0.32700  1.0000
  O   O2        1.0  0.83100  0.83100  0.66100  1.0000
