data_image0
_chemical_formula_structural       AlBaGeH
_chemical_formula_sum              "Al1 Ba1 Ge1 H1"
_cell_length_a       4.3668
_cell_length_b       4.3668
_cell_length_c       5.2335
_cell_angle_alpha    90
_cell_angle_beta     89.9999
_cell_angle_gamma    120

_space_group_name_H-M_alt    "P 1"
_space_group_IT_number       1

loop_
  _space_group_symop_operation_xyz
  'x, y, z'

loop_
  _atom_site_type_symbol
  _atom_site_label
  _atom_site_symmetry_multiplicity
  _atom_site_fract_x
  _atom_site_fract_y
  _atom_site_fract_z
  _atom_site_occupancy
  Al  Al1       1.0  0.66700  0.33300  0.53900  1.0000
  Ba  Ba1       1.0  1.00000  1.00000  0.00001  1.0000
  Ge  Ge1       1.0  0.33300  0.66700  0.45500  1.0000
  H   H1        1.0  0.66700  0.33300  0.87100  1.0000
