data_image0
_chemical_formula_structural       F12Hf2K4
_chemical_formula_sum              "F12 Hf2 K4"
_cell_length_a       6.39481
_cell_length_b       6.36821
_cell_length_c       6.7401
_cell_angle_alpha    90.5884
_cell_angle_beta     91.1721
_cell_angle_gamma    59.8617

_space_group_name_H-M_alt    "P 1"
_space_group_IT_number       1

loop_
  _space_group_symop_operation_xyz
  'x, y, z'

loop_
  _atom_site_type_symbol
  _atom_site_label
  _atom_site_symmetry_multiplicity
  _atom_site_fract_x
  _atom_site_fract_y
  _atom_site_fract_z
  _atom_site_occupancy
  F   F1        1.0  0.86600  0.20600  0.04870  1.0000
  F   F2        1.0  0.28300  0.02590  0.22200  1.0000
  F   F3        1.0  0.00522  0.59900  0.22500  1.0000
  F   F4        1.0  0.39600  0.59900  0.27500  1.0000
  F   F5        1.0  0.69100  0.02590  0.27800  1.0000
  F   F6        1.0  0.92800  0.20600  0.45100  1.0000
  F   F7        1.0  0.07160  0.79400  0.54900  1.0000
  F   F8        1.0  0.30900  0.97400  0.72200  1.0000
  F   F9        1.0  0.60400  0.40100  0.72500  1.0000
  F   F10       1.0  0.99500  0.40100  0.77500  1.0000
  F   F11       1.0  0.71700  0.97400  0.77800  1.0000
  F   F12       1.0  0.13400  0.79400  0.95100  1.0000
  Hf  Hf1       1.0  0.05070  0.89900  0.25000  1.0000
  Hf  Hf2       1.0  0.94900  0.10100  0.75000  1.0000
  K   K1        1.0  0.36500  0.31000  0.00000  1.0000
  K   K2        1.0  0.63500  0.69000  0.00024  1.0000
  K   K3        1.0  0.67500  0.69000  0.50000  1.0000
  K   K4        1.0  0.32500  0.31000  0.50000  1.0000
