data_image0
_chemical_formula_structural       Mo6S8Yb
_chemical_formula_sum              "Mo6 S8 Yb1"
_cell_length_a       6.50999
_cell_length_b       6.50999
_cell_length_c       6.50999
_cell_angle_alpha    90.8299
_cell_angle_beta     89.1701
_cell_angle_gamma    90.8299

_space_group_name_H-M_alt    "P 1"
_space_group_IT_number       1

loop_
  _space_group_symop_operation_xyz
  'x, y, z'

loop_
  _atom_site_type_symbol
  _atom_site_label
  _atom_site_symmetry_multiplicity
  _atom_site_fract_x
  _atom_site_fract_y
  _atom_site_fract_z
  _atom_site_occupancy
  Mo  Mo1       1.0  0.56000  0.58100  0.22300  1.0000
  Mo  Mo2       1.0  0.22300  0.44000  0.41900  1.0000
  Mo  Mo3       1.0  0.58100  0.22300  0.44000  1.0000
  Mo  Mo4       1.0  0.41900  0.77700  0.56000  1.0000
  Mo  Mo5       1.0  0.77700  0.56000  0.58100  1.0000
  Mo  Mo6       1.0  0.44000  0.41900  0.77700  1.0000
  S   S1        1.0  0.37600  0.25100  0.12700  1.0000
  S   S2        1.0  0.23900  0.76100  0.23900  1.0000
  S   S3        1.0  0.87300  0.37600  0.25100  1.0000
  S   S4        1.0  0.74900  0.87300  0.37600  1.0000
  S   S5        1.0  0.25100  0.12700  0.62400  1.0000
  S   S6        1.0  0.12700  0.62400  0.74900  1.0000
  S   S7        1.0  0.76100  0.23900  0.76100  1.0000
  S   S8        1.0  0.62400  0.74900  0.87300  1.0000
  Yb  Yb1       1.0  0.00000  0.00000  0.00000  1.0000
