data_image0
_chemical_formula_structural       Ce4Li4O8
_chemical_formula_sum              "Ce4 Li4 O8"
_cell_length_a       5.83472
_cell_length_b       6.22844
_cell_length_c       5.76721
_cell_angle_alpha    90
_cell_angle_beta     102.93
_cell_angle_gamma    90

_space_group_name_H-M_alt    "P 1"
_space_group_IT_number       1

loop_
  _space_group_symop_operation_xyz
  'x, y, z'

loop_
  _atom_site_type_symbol
  _atom_site_label
  _atom_site_symmetry_multiplicity
  _atom_site_fract_x
  _atom_site_fract_y
  _atom_site_fract_z
  _atom_site_occupancy
  Ce  Ce1       1.0  0.80000  0.56800  0.19500  1.0000
  Ce  Ce2       1.0  0.20000  0.06810  0.30500  1.0000
  Ce  Ce3       1.0  0.80000  0.93200  0.69500  1.0000
  Ce  Ce4       1.0  0.20000  0.43200  0.80500  1.0000
  Li  Li1       1.0  0.65300  0.14200  0.16000  1.0000
  Li  Li2       1.0  0.34700  0.64200  0.34000  1.0000
  Li  Li3       1.0  0.65300  0.35800  0.66000  1.0000
  Li  Li4       1.0  0.34700  0.85800  0.84000  1.0000
  O   O1        1.0  0.09010  0.76200  0.01560  1.0000
  O   O2        1.0  0.42900  0.37200  0.21800  1.0000
  O   O3        1.0  0.57100  0.87200  0.28200  1.0000
  O   O4        1.0  0.91000  0.26200  0.48400  1.0000
  O   O5        1.0  0.09010  0.73800  0.51600  1.0000
  O   O6        1.0  0.42900  0.12800  0.71800  1.0000
  O   O7        1.0  0.57100  0.62800  0.78200  1.0000
  O   O8        1.0  0.91000  0.23800  0.98400  1.0000
