data_image0
_chemical_formula_structural       H12MgO9Se
_chemical_formula_sum              "H12 Mg1 O9 Se1"
_cell_length_a       5.81194
_cell_length_b       5.81194
_cell_length_c       5.81194
_cell_angle_alpha    98.2237
_cell_angle_beta     98.2237
_cell_angle_gamma    98.2237

_space_group_name_H-M_alt    "P 1"
_space_group_IT_number       1

loop_
  _space_group_symop_operation_xyz
  'x, y, z'

loop_
  _atom_site_type_symbol
  _atom_site_label
  _atom_site_symmetry_multiplicity
  _atom_site_fract_x
  _atom_site_fract_y
  _atom_site_fract_z
  _atom_site_occupancy
  H   H1        1.0  0.53400  0.95900  0.02990  1.0000
  H   H2        1.0  0.42200  0.28600  0.08420  1.0000
  H   H3        1.0  0.62900  0.74000  0.13800  1.0000
  H   H4        1.0  0.81200  0.38500  0.18600  1.0000
  H   H5        1.0  0.08420  0.42200  0.28600  1.0000
  H   H6        1.0  0.18600  0.81200  0.38500  1.0000
  H   H7        1.0  0.28600  0.08420  0.42200  1.0000
  H   H8        1.0  0.95900  0.02990  0.53400  1.0000
  H   H9        1.0  0.74000  0.13800  0.62900  1.0000
  H   H10       1.0  0.13800  0.62900  0.74000  1.0000
  H   H11       1.0  0.38500  0.18600  0.81200  1.0000
  H   H12       1.0  0.02990  0.53400  0.95900  1.0000
  Mg  Mg1       1.0  0.00000  1.00000  0.00000  1.0000
  O   O1        1.0  0.67200  0.87700  0.05780  1.0000
  O   O2        1.0  0.96400  0.34100  0.14300  1.0000
  O   O3        1.0  0.58700  0.50300  0.25300  1.0000
  O   O4        1.0  0.14300  0.96400  0.34100  1.0000
  O   O5        1.0  0.25300  0.58700  0.50300  1.0000
  O   O6        1.0  0.50300  0.25200  0.58700  1.0000
  O   O7        1.0  0.87700  0.05790  0.67200  1.0000
  O   O8        1.0  0.05790  0.67200  0.87700  1.0000
  O   O9        1.0  0.34100  0.14300  0.96400  1.0000
  Se  Se1       1.0  0.54300  0.54300  0.54300  1.0000
