data_image0
_chemical_formula_structural       F7KSc2
_chemical_formula_sum              "F7 K1 Sc2"
_cell_length_a       3.9954
_cell_length_b       6.12729
_cell_length_c       6.12729
_cell_angle_alpha    63.5239
_cell_angle_beta     90
_cell_angle_gamma    90

_space_group_name_H-M_alt    "P 1"
_space_group_IT_number       1

loop_
  _space_group_symop_operation_xyz
  'x, y, z'

loop_
  _atom_site_type_symbol
  _atom_site_label
  _atom_site_symmetry_multiplicity
  _atom_site_fract_x
  _atom_site_fract_y
  _atom_site_fract_z
  _atom_site_occupancy
  F   F1        1.0  0.50000  0.67000  0.04780  1.0000
  F   F2        1.0  0.00000  0.29700  0.29700  1.0000
  F   F3        1.0  0.50000  0.95200  0.33000  1.0000
  F   F4        1.0  0.50000  0.50000  0.50000  1.0000
  F   F5        1.0  0.50000  0.04780  0.67000  1.0000
  F   F6        1.0  0.00000  0.70300  0.70300  1.0000
  F   F7        1.0  0.50000  0.33000  0.95200  1.0000
  K   K1        1.0  0.00000  0.00000  0.00000  1.0000
  Sc  Sc1       1.0  0.50000  0.30600  0.30600  1.0000
  Sc  Sc2       1.0  0.50000  0.69400  0.69400  1.0000
