data_image0
_chemical_formula_structural       K2Na2O6Ti2
_chemical_formula_sum              "K2 Na2 O6 Ti2"
_cell_length_a       5.46052
_cell_length_b       5.7461
_cell_length_c       6.18604
_cell_angle_alpha    62.326
_cell_angle_beta     93.5301
_cell_angle_gamma    97.6185

_space_group_name_H-M_alt    "P 1"
_space_group_IT_number       1

loop_
  _space_group_symop_operation_xyz
  'x, y, z'

loop_
  _atom_site_type_symbol
  _atom_site_label
  _atom_site_symmetry_multiplicity
  _atom_site_fract_x
  _atom_site_fract_y
  _atom_site_fract_z
  _atom_site_occupancy
  K   K1        1.0  0.75000  0.26300  0.47400  1.0000
  K   K2        1.0  0.25000  0.73700  0.52600  1.0000
  Na  Na1       1.0  0.25000  0.42200  0.15500  1.0000
  Na  Na2       1.0  0.75000  0.57800  0.84500  1.0000
  O   O1        1.0  0.49700  0.19200  0.05150  1.0000
  O   O2        1.0  0.00323  0.75600  0.05150  1.0000
  O   O3        1.0  0.75000  0.78300  0.43400  1.0000
  O   O4        1.0  0.25000  0.21700  0.56600  1.0000
  O   O5        1.0  0.99700  0.24400  0.94900  1.0000
  O   O6        1.0  0.50300  0.80800  0.94900  1.0000
  Ti  Ti1       1.0  0.75000  0.94700  0.10700  1.0000
  Ti  Ti2       1.0  0.25000  0.05340  0.89300  1.0000
