data_image0
_chemical_formula_structural       Li6O6U
_chemical_formula_sum              "Li6 O6 U1"
_cell_length_a       5.41547
_cell_length_b       5.41547
_cell_length_c       5.41547
_cell_angle_alpha    101.056
_cell_angle_beta     101.056
_cell_angle_gamma    101.056

_space_group_name_H-M_alt    "P 1"
_space_group_IT_number       1

loop_
  _space_group_symop_operation_xyz
  'x, y, z'

loop_
  _atom_site_type_symbol
  _atom_site_label
  _atom_site_symmetry_multiplicity
  _atom_site_fract_x
  _atom_site_fract_y
  _atom_site_fract_z
  _atom_site_occupancy
  Li  Li1       1.0  0.34400  0.63400  0.02210  1.0000
  Li  Li2       1.0  0.63400  0.02210  0.34400  1.0000
  Li  Li3       1.0  0.97800  0.65600  0.36600  1.0000
  Li  Li4       1.0  0.02210  0.34400  0.63400  1.0000
  Li  Li5       1.0  0.36600  0.97800  0.65600  1.0000
  Li  Li6       1.0  0.65600  0.36600  0.97800  1.0000
  O   O1        1.0  0.71700  0.73800  0.10200  1.0000
  O   O2        1.0  0.89800  0.28300  0.26200  1.0000
  O   O3        1.0  0.26200  0.89800  0.28300  1.0000
  O   O4        1.0  0.73800  0.10200  0.71700  1.0000
  O   O5        1.0  0.10200  0.71700  0.73800  1.0000
  O   O6        1.0  0.28300  0.26200  0.89800  1.0000
  U   U1        1.0  0.00000  0.00000  0.00000  1.0000
