data_image0
_chemical_formula_structural       I2Se4Tl10
_chemical_formula_sum              "I2 Se4 Tl10"
_cell_length_a       8.71661
_cell_length_b       8.71661
_cell_length_c       9.1603
_cell_angle_alpha    118.41
_cell_angle_beta     118.41
_cell_angle_gamma    90

_space_group_name_H-M_alt    "P 1"
_space_group_IT_number       1

loop_
  _space_group_symop_operation_xyz
  'x, y, z'

loop_
  _atom_site_type_symbol
  _atom_site_label
  _atom_site_symmetry_multiplicity
  _atom_site_fract_x
  _atom_site_fract_y
  _atom_site_fract_z
  _atom_site_occupancy
  I   I1        1.0  0.25000  0.25000  0.50000  1.0000
  I   I2        1.0  0.75000  0.75000  0.50000  1.0000
  Se  Se1       1.0  0.33800  0.16200  0.00000  1.0000
  Se  Se2       1.0  0.83800  0.33800  0.00000  1.0000
  Se  Se3       1.0  0.16200  0.66200  0.00000  1.0000
  Se  Se4       1.0  0.66200  0.83800  0.00000  1.0000
  Tl  Tl1       1.0  0.00000  0.00000  0.00000  1.0000
  Tl  Tl2       1.0  0.50000  0.50000  0.00000  1.0000
  Tl  Tl3       1.0  0.78400  0.28400  0.28200  1.0000
  Tl  Tl4       1.0  0.28400  0.49700  0.28200  1.0000
  Tl  Tl5       1.0  0.99700  0.78400  0.28200  1.0000
  Tl  Tl6       1.0  0.49700  0.99700  0.28200  1.0000
  Tl  Tl7       1.0  0.50300  0.00289  0.71800  1.0000
  Tl  Tl8       1.0  0.00289  0.21600  0.71800  1.0000
  Tl  Tl9       1.0  0.71600  0.50300  0.71800  1.0000
  Tl  Tl10      1.0  0.21600  0.71600  0.71800  1.0000
