data_image0
_chemical_formula_structural       Hf2P4S12
_chemical_formula_sum              "Hf2 P4 S12"
_cell_length_a       6.96068
_cell_length_b       6.96068
_cell_length_c       11.5767
_cell_angle_alpha    100.985
_cell_angle_beta     100.985
_cell_angle_gamma    111.479

_space_group_name_H-M_alt    "P 1"
_space_group_IT_number       1

loop_
  _space_group_symop_operation_xyz
  'x, y, z'

loop_
  _atom_site_type_symbol
  _atom_site_label
  _atom_site_symmetry_multiplicity
  _atom_site_fract_x
  _atom_site_fract_y
  _atom_site_fract_z
  _atom_site_occupancy
  Hf  Hf1       1.0  0.15000  0.15000  0.30000  1.0000
  Hf  Hf2       1.0  0.90000  0.40000  0.80000  1.0000
  P   P1        1.0  0.01460  0.38900  0.12400  1.0000
  P   P2        1.0  0.10900  0.73500  0.12400  1.0000
  P   P3        1.0  0.13900  0.26500  0.62400  1.0000
  P   P4        1.0  0.48500  0.35900  0.62400  1.0000
  S   S1        1.0  0.28700  0.33700  0.14300  1.0000
  S   S2        1.0  0.85600  0.80600  0.14300  1.0000
  S   S3        1.0  0.90000  0.34000  0.26900  1.0000
  S   S4        1.0  0.36900  0.92900  0.26900  1.0000
  S   S5        1.0  0.97400  0.02640  0.46200  1.0000
  S   S6        1.0  0.48800  0.43600  0.46200  1.0000
  S   S7        1.0  0.55600  0.10600  0.64300  1.0000
  S   S8        1.0  0.08710  0.53700  0.64300  1.0000
  S   S9        1.0  0.08970  0.15000  0.76900  1.0000
  S   S10       1.0  0.67900  0.61900  0.76900  1.0000
  S   S11       1.0  0.77600  0.22400  0.96200  1.0000
  S   S12       1.0  0.18600  0.73800  0.96200  1.0000
