data_image0
_chemical_formula_structural       Cu2FeGeS4
_chemical_formula_sum              "Cu2 Fe1 Ge1 S4"
_cell_length_a       5.32486
_cell_length_b       5.32486
_cell_length_c       6.46968
_cell_angle_alpha    114.301
_cell_angle_beta     114.301
_cell_angle_gamma    90

_space_group_name_H-M_alt    "P 1"
_space_group_IT_number       1

loop_
  _space_group_symop_operation_xyz
  'x, y, z'

loop_
  _atom_site_type_symbol
  _atom_site_label
  _atom_site_symmetry_multiplicity
  _atom_site_fract_x
  _atom_site_fract_y
  _atom_site_fract_z
  _atom_site_occupancy
  Cu  Cu1       1.0  0.75000  0.25000  0.50000  1.0000
  Cu  Cu2       1.0  0.25000  0.75000  0.50000  1.0000
  Fe  Fe1       1.0  0.00000  0.00000  0.00000  1.0000
  Ge  Ge1       1.0  0.50000  0.50000  0.00000  1.0000
  S   S1        1.0  0.87600  0.37500  0.25100  1.0000
  S   S2        1.0  0.37500  0.87600  0.25100  1.0000
  S   S3        1.0  0.12400  0.12400  0.74900  1.0000
  S   S4        1.0  0.62500  0.62500  0.74900  1.0000
