data_image0
_chemical_formula_structural       GaMo4Se4Te4
_chemical_formula_sum              "Ga1 Mo4 Se4 Te4"
_cell_length_a       7.60742
_cell_length_b       7.60742
_cell_length_c       7.60742
_cell_angle_alpha    120
_cell_angle_beta     90
_cell_angle_gamma    120

_space_group_name_H-M_alt    "P 1"
_space_group_IT_number       1

loop_
  _space_group_symop_operation_xyz
  'x, y, z'

loop_
  _atom_site_type_symbol
  _atom_site_label
  _atom_site_symmetry_multiplicity
  _atom_site_fract_x
  _atom_site_fract_y
  _atom_site_fract_z
  _atom_site_occupancy
  Ga  Ga1       1.0  0.00000  0.00000  0.00000  1.0000
  Mo  Mo1       1.0  0.59600  0.19200  0.40400  1.0000
  Mo  Mo2       1.0  0.21300  0.80800  0.40400  1.0000
  Mo  Mo3       1.0  0.59600  0.80800  0.40400  1.0000
  Mo  Mo4       1.0  0.59600  0.19200  0.78700  1.0000
  Se  Se1       1.0  0.36900  0.73800  0.10700  1.0000
  Se  Se2       1.0  0.36900  0.26200  0.63100  1.0000
  Se  Se3       1.0  0.89300  0.26200  0.63100  1.0000
  Se  Se4       1.0  0.36900  0.73800  0.63100  1.0000
  Te  Te1       1.0  0.41500  0.27700  0.13800  1.0000
  Te  Te2       1.0  0.86200  0.27700  0.13800  1.0000
  Te  Te3       1.0  0.86200  0.72300  0.13800  1.0000
  Te  Te4       1.0  0.86200  0.72300  0.58500  1.0000
