data_image0
_chemical_formula_structural       HoKS2
_chemical_formula_sum              "Ho1 K1 S2"
_cell_length_a       4.02694
_cell_length_b       4.02694
_cell_length_c       7.71026
_cell_angle_alpha    74.8622
_cell_angle_beta     105.138
_cell_angle_gamma    120

_space_group_name_H-M_alt    "P 1"
_space_group_IT_number       1

loop_
  _space_group_symop_operation_xyz
  'x, y, z'

loop_
  _atom_site_type_symbol
  _atom_site_label
  _atom_site_symmetry_multiplicity
  _atom_site_fract_x
  _atom_site_fract_y
  _atom_site_fract_z
  _atom_site_occupancy
  Ho  Ho1       1.0  0.00000  0.00000  0.00000  1.0000
  K   K1        1.0  0.50000  0.50000  0.50000  1.0000
  S   S1        1.0  0.73400  0.26600  0.20200  1.0000
  S   S2        1.0  0.26600  0.73400  0.79800  1.0000
