data_image0
_chemical_formula_structural       Bi4Li4O8
_chemical_formula_sum              "Bi4 Li4 O8"
_cell_length_a       4.76057
_cell_length_b       5.24169
_cell_length_c       9.7072
_cell_angle_alpha    105.664
_cell_angle_beta     104.194
_cell_angle_gamma    90

_space_group_name_H-M_alt    "P 1"
_space_group_IT_number       1

loop_
  _space_group_symop_operation_xyz
  'x, y, z'

loop_
  _atom_site_type_symbol
  _atom_site_label
  _atom_site_symmetry_multiplicity
  _atom_site_fract_x
  _atom_site_fract_y
  _atom_site_fract_z
  _atom_site_occupancy
  Bi  Bi1       1.0  0.58800  0.33300  0.17700  1.0000
  Bi  Bi2       1.0  0.08840  0.84400  0.17700  1.0000
  Bi  Bi3       1.0  0.91200  0.15600  0.82300  1.0000
  Bi  Bi4       1.0  0.41200  0.66700  0.82300  1.0000
  Li  Li1       1.0  0.49900  0.24900  0.49700  1.0000
  Li  Li2       1.0  0.99900  0.24900  0.49700  1.0000
  Li  Li3       1.0  0.00129  0.75100  0.50300  1.0000
  Li  Li4       1.0  0.50100  0.75100  0.50300  1.0000
  O   O1        1.0  0.08090  0.24400  0.16200  1.0000
  O   O2        1.0  0.58100  0.91800  0.16200  1.0000
  O   O3        1.0  0.20200  0.94900  0.40400  1.0000
  O   O4        1.0  0.70200  0.45500  0.40400  1.0000
  O   O5        1.0  0.79800  0.05100  0.59600  1.0000
  O   O6        1.0  0.29800  0.54500  0.59600  1.0000
  O   O7        1.0  0.41900  0.08230  0.83800  1.0000
  O   O8        1.0  0.91900  0.75600  0.83800  1.0000
