data_image0
_chemical_formula_structural       Ni2Sc6Si6
_chemical_formula_sum              "Ni2 Sc6 Si6"
_cell_length_a       3.97929
_cell_length_b       5.28874
_cell_length_c       12.1901
_cell_angle_alpha    91.3904
_cell_angle_beta     99.3937
_cell_angle_gamma    67.9013

_space_group_name_H-M_alt    "P 1"
_space_group_IT_number       1

loop_
  _space_group_symop_operation_xyz
  'x, y, z'

loop_
  _atom_site_type_symbol
  _atom_site_label
  _atom_site_symmetry_multiplicity
  _atom_site_fract_x
  _atom_site_fract_y
  _atom_site_fract_z
  _atom_site_occupancy
  Ni  Ni1       1.0  0.15900  0.08410  0.40300  1.0000
  Ni  Ni2       1.0  0.84100  0.91600  0.59700  1.0000
  Sc  Sc1       1.0  0.68000  0.71900  0.07870  1.0000
  Sc  Sc2       1.0  0.48400  0.25800  0.22600  1.0000
  Sc  Sc3       1.0  0.85300  0.67200  0.37900  1.0000
  Sc  Sc4       1.0  0.14700  0.32800  0.62100  1.0000
  Sc  Sc5       1.0  0.51600  0.74200  0.77400  1.0000
  Sc  Sc6       1.0  0.32000  0.28100  0.92100  1.0000
  Si  Si1       1.0  0.95800  0.16000  0.07580  1.0000
  Si  Si2       1.0  0.19800  0.84000  0.23600  1.0000
  Si  Si3       1.0  0.58700  0.28000  0.45400  1.0000
  Si  Si4       1.0  0.41300  0.72000  0.54600  1.0000
  Si  Si5       1.0  0.80200  0.16000  0.76400  1.0000
  Si  Si6       1.0  0.04210  0.84000  0.92400  1.0000
