data_image0
_chemical_formula_structural       F4H2Rb2
_chemical_formula_sum              "F4 H2 Rb2"
_cell_length_a       5.31383
_cell_length_b       5.31383
_cell_length_c       5.31383
_cell_angle_alpha    98.914
_cell_angle_beta     114.994
_cell_angle_gamma    114.994

_space_group_name_H-M_alt    "P 1"
_space_group_IT_number       1

loop_
  _space_group_symop_operation_xyz
  'x, y, z'

loop_
  _atom_site_type_symbol
  _atom_site_label
  _atom_site_symmetry_multiplicity
  _atom_site_fract_x
  _atom_site_fract_y
  _atom_site_fract_z
  _atom_site_occupancy
  F   F1        1.0  0.50000  0.35800  0.14200  1.0000
  F   F2        1.0  0.21700  0.85800  0.35800  1.0000
  F   F3        1.0  0.78300  0.14200  0.64200  1.0000
  F   F4        1.0  0.50000  0.64200  0.85800  1.0000
  H   H1        1.0  0.50000  0.50000  0.00000  1.0000
  H   H2        1.0  0.50000  1.00000  0.50000  1.0000
  Rb  Rb1       1.0  0.00000  0.25000  0.25000  1.0000
  Rb  Rb2       1.0  0.00000  0.75000  0.75000  1.0000
