data_image0
_chemical_formula_structural       LiSe2Y
_chemical_formula_sum              "Li1 Se2 Y1"
_cell_length_a       4.05713
_cell_length_b       4.05713
_cell_length_c       6.87468
_cell_angle_alpha    90
_cell_angle_beta     107.162
_cell_angle_gamma    60

_space_group_name_H-M_alt    "P 1"
_space_group_IT_number       1

loop_
  _space_group_symop_operation_xyz
  'x, y, z'

loop_
  _atom_site_type_symbol
  _atom_site_label
  _atom_site_symmetry_multiplicity
  _atom_site_fract_x
  _atom_site_fract_y
  _atom_site_fract_z
  _atom_site_occupancy
  Li  Li1       1.0  0.00000  0.50000  0.50000  1.0000
  Se  Se1       1.0  0.50300  0.24800  0.25500  1.0000
  Se  Se2       1.0  0.49700  0.75200  0.74500  1.0000
  Y   Y1        1.0  0.00000  0.00000  0.00000  1.0000
