data_image0
_chemical_formula_structural       H8O4
_chemical_formula_sum              "H8 O4"
_cell_length_a       4.00921
_cell_length_b       4.18065
_cell_length_c       5.97083
_cell_angle_alpha    90
_cell_angle_beta     90
_cell_angle_gamma    61.3475

_space_group_name_H-M_alt    "P 1"
_space_group_IT_number       1

loop_
  _space_group_symop_operation_xyz
  'x, y, z'

loop_
  _atom_site_type_symbol
  _atom_site_label
  _atom_site_symmetry_multiplicity
  _atom_site_fract_x
  _atom_site_fract_y
  _atom_site_fract_z
  _atom_site_occupancy
  H   H1        1.0  0.15000  0.70100  0.00000  1.0000
  H   H2        1.0  0.74100  0.45400  0.23600  1.0000
  H   H3        1.0  0.14300  0.00000  0.25000  1.0000
  H   H4        1.0  0.19500  0.54600  0.26400  1.0000
  H   H5        1.0  0.85000  0.29900  0.50000  1.0000
  H   H6        1.0  0.25900  0.54600  0.73600  1.0000
  H   H7        1.0  0.85700  0.00000  0.75000  1.0000
  H   H8        1.0  0.80500  0.45400  0.76400  1.0000
  O   O1        1.0  0.29400  0.69200  0.17900  1.0000
  O   O2        1.0  0.98600  0.30800  0.32100  1.0000
  O   O3        1.0  0.70600  0.30800  0.67900  1.0000
  O   O4        1.0  0.01420  0.69200  0.82100  1.0000
