data_image0
_chemical_formula_structural       H6O4Rb2
_chemical_formula_sum              "H6 O4 Rb2"
_cell_length_a       4.11663
_cell_length_b       5.83756
_cell_length_c       5.74319
_cell_angle_alpha    90
_cell_angle_beta     90
_cell_angle_gamma    69.3536

_space_group_name_H-M_alt    "P 1"
_space_group_IT_number       1

loop_
  _space_group_symop_operation_xyz
  'x, y, z'

loop_
  _atom_site_type_symbol
  _atom_site_label
  _atom_site_symmetry_multiplicity
  _atom_site_fract_x
  _atom_site_fract_y
  _atom_site_fract_z
  _atom_site_occupancy
  H   H1        1.0  0.50800  0.98300  0.03160  1.0000
  H   H2        1.0  0.09160  0.21500  0.29900  1.0000
  H   H3        1.0  0.69300  0.21500  0.29900  1.0000
  H   H4        1.0  0.49200  0.01700  0.53200  1.0000
  H   H5        1.0  0.30700  0.78500  0.79900  1.0000
  H   H6        1.0  0.90800  0.78500  0.79900  1.0000
  O   O1        1.0  0.84100  0.31800  0.24900  1.0000
  O   O2        1.0  0.46700  0.06560  0.36700  1.0000
  O   O3        1.0  0.15900  0.68200  0.74900  1.0000
  O   O4        1.0  0.53300  0.93400  0.86700  1.0000
  Rb  Rb1       1.0  0.15400  0.69200  0.26000  1.0000
  Rb  Rb2       1.0  0.84600  0.30800  0.76000  1.0000
