data_image0
_chemical_formula_structural       Ge2K6Se6
_chemical_formula_sum              "Ge2 K6 Se6"
_cell_length_a       7.95759
_cell_length_b       7.95759
_cell_length_c       8.56213
_cell_angle_alpha    105.037
_cell_angle_beta     105.037
_cell_angle_gamma    109.674

_space_group_name_H-M_alt    "P 1"
_space_group_IT_number       1

loop_
  _space_group_symop_operation_xyz
  'x, y, z'

loop_
  _atom_site_type_symbol
  _atom_site_label
  _atom_site_symmetry_multiplicity
  _atom_site_fract_x
  _atom_site_fract_y
  _atom_site_fract_z
  _atom_site_occupancy
  Ge  Ge1       1.0  0.11700  0.11700  0.15200  1.0000
  Ge  Ge2       1.0  0.88300  0.88300  0.84800  1.0000
  K   K1        1.0  0.50000  0.00000  0.00000  1.0000
  K   K2        1.0  0.00000  0.50000  0.00000  1.0000
  K   K3        1.0  0.78700  0.78700  0.31600  1.0000
  K   K4        1.0  0.66300  0.33700  0.50000  1.0000
  K   K5        1.0  0.33700  0.66300  0.50000  1.0000
  K   K6        1.0  0.21300  0.21300  0.68400  1.0000
  Se  Se1       1.0  0.37000  0.37000  0.13300  1.0000
  Se  Se2       1.0  0.94800  0.24900  0.30200  1.0000
  Se  Se3       1.0  0.24900  0.94800  0.30200  1.0000
  Se  Se4       1.0  0.75100  0.05220  0.69800  1.0000
  Se  Se5       1.0  0.05220  0.75100  0.69800  1.0000
  Se  Se6       1.0  0.63000  0.63000  0.86700  1.0000
