data_image0
_chemical_formula_structural       Cl8Nd4
_chemical_formula_sum              "Cl8 Nd4"
_cell_length_a       9.77834
_cell_length_b       8.03754
_cell_length_c       3.63731
_cell_angle_alpha    90
_cell_angle_beta     90
_cell_angle_gamma    90

_space_group_name_H-M_alt    "P 1"
_space_group_IT_number       1

loop_
  _space_group_symop_operation_xyz
  'x, y, z'

loop_
  _atom_site_type_symbol
  _atom_site_label
  _atom_site_symmetry_multiplicity
  _atom_site_fract_x
  _atom_site_fract_y
  _atom_site_fract_z
  _atom_site_occupancy
  Cl  Cl1       1.0  0.85500  0.03960  0.25000  1.0000
  Cl  Cl2       1.0  0.39500  0.11700  0.25000  1.0000
  Cl  Cl3       1.0  0.64500  0.54000  0.25000  1.0000
  Cl  Cl4       1.0  0.10500  0.61700  0.25000  1.0000
  Cl  Cl5       1.0  0.89500  0.38300  0.75000  1.0000
  Cl  Cl6       1.0  0.35500  0.46000  0.75000  1.0000
  Cl  Cl7       1.0  0.60500  0.88300  0.75000  1.0000
  Cl  Cl8       1.0  0.14500  0.96000  0.75000  1.0000
  Nd  Nd1       1.0  0.10200  0.24300  0.25000  1.0000
  Nd  Nd2       1.0  0.39800  0.74300  0.25000  1.0000
  Nd  Nd3       1.0  0.60200  0.25700  0.75000  1.0000
  Nd  Nd4       1.0  0.89800  0.75700  0.75000  1.0000
