data_image0
_chemical_formula_structural       IrK4O4
_chemical_formula_sum              "Ir1 K4 O4"
_cell_length_a       5.5333
_cell_length_b       5.5333
_cell_length_c       6.07838
_cell_angle_alpha    102.237
_cell_angle_beta     102.237
_cell_angle_gamma    69.4832

_space_group_name_H-M_alt    "P 1"
_space_group_IT_number       1

loop_
  _space_group_symop_operation_xyz
  'x, y, z'

loop_
  _atom_site_type_symbol
  _atom_site_label
  _atom_site_symmetry_multiplicity
  _atom_site_fract_x
  _atom_site_fract_y
  _atom_site_fract_z
  _atom_site_occupancy
  Ir  Ir1       1.0  0.00000  0.00000  0.00000  1.0000
  K   K1        1.0  0.37800  0.37800  0.14400  1.0000
  K   K2        1.0  0.80900  0.80900  0.41100  1.0000
  K   K3        1.0  0.19100  0.19100  0.58900  1.0000
  K   K4        1.0  0.62200  0.62200  0.85600  1.0000
  O   O1        1.0  0.89400  0.32500  0.20300  1.0000
  O   O2        1.0  0.32500  0.89400  0.20300  1.0000
  O   O3        1.0  0.67500  0.10600  0.79700  1.0000
  O   O4        1.0  0.10600  0.67500  0.79700  1.0000
