data_image0
_chemical_formula_structural       Li4O8Y4
_chemical_formula_sum              "Li4 O8 Y4"
_cell_length_a       6.05577
_cell_length_b       6.24896
_cell_length_c       6.09661
_cell_angle_alpha    90
_cell_angle_beta     117.815
_cell_angle_gamma    90

_space_group_name_H-M_alt    "P 1"
_space_group_IT_number       1

loop_
  _space_group_symop_operation_xyz
  'x, y, z'

loop_
  _atom_site_type_symbol
  _atom_site_label
  _atom_site_symmetry_multiplicity
  _atom_site_fract_x
  _atom_site_fract_y
  _atom_site_fract_z
  _atom_site_occupancy
  Li  Li1       1.0  0.74000  0.36600  0.98400  1.0000
  Li  Li2       1.0  0.26000  0.63400  0.01600  1.0000
  Li  Li3       1.0  0.74000  0.13400  0.48400  1.0000
  Li  Li4       1.0  0.26000  0.86600  0.51600  1.0000
  O   O1        1.0  0.00824  0.14600  0.19800  1.0000
  O   O2        1.0  0.53600  0.88600  0.23600  1.0000
  O   O3        1.0  0.46400  0.38600  0.26400  1.0000
  O   O4        1.0  0.99200  0.64600  0.30200  1.0000
  O   O5        1.0  0.00824  0.35400  0.69800  1.0000
  O   O6        1.0  0.53600  0.61400  0.73600  1.0000
  O   O7        1.0  0.46400  0.11400  0.76400  1.0000
  O   O8        1.0  0.99200  0.85400  0.80200  1.0000
  Y   Y1        1.0  0.24600  0.12600  0.99400  1.0000
  Y   Y2        1.0  0.75400  0.87400  0.00588  1.0000
  Y   Y3        1.0  0.24600  0.37400  0.49400  1.0000
  Y   Y4        1.0  0.75400  0.62600  0.50600  1.0000
