data_image0
_chemical_formula_structural       H12K4O8
_chemical_formula_sum              "H12 K4 O8"
_cell_length_a       5.7533
_cell_length_b       5.60208
_cell_length_c       7.77588
_cell_angle_alpha    90
_cell_angle_beta     109.699
_cell_angle_gamma    90

_space_group_name_H-M_alt    "P 1"
_space_group_IT_number       1

loop_
  _space_group_symop_operation_xyz
  'x, y, z'

loop_
  _atom_site_type_symbol
  _atom_site_label
  _atom_site_symmetry_multiplicity
  _atom_site_fract_x
  _atom_site_fract_y
  _atom_site_fract_z
  _atom_site_occupancy
  H   H1        1.0  0.77000  0.20300  0.04400  1.0000
  H   H2        1.0  0.23100  0.70700  0.15500  1.0000
  H   H3        1.0  0.98700  0.97100  0.24700  1.0000
  H   H4        1.0  0.01290  0.47100  0.25300  1.0000
  H   H5        1.0  0.76900  0.20700  0.34500  1.0000
  H   H6        1.0  0.23000  0.70300  0.45600  1.0000
  H   H7        1.0  0.77000  0.29700  0.54400  1.0000
  H   H8        1.0  0.23100  0.79300  0.65500  1.0000
  H   H9        1.0  0.98700  0.52900  0.74700  1.0000
  H   H10       1.0  0.01290  0.02920  0.75300  1.0000
  H   H11       1.0  0.76900  0.29300  0.84500  1.0000
  H   H12       1.0  0.23000  0.79700  0.95600  1.0000
  K   K1        1.0  0.30100  0.25400  0.07660  1.0000
  K   K2        1.0  0.69900  0.75400  0.42300  1.0000
  K   K3        1.0  0.30100  0.24600  0.57700  1.0000
  K   K4        1.0  0.69900  0.74600  0.92300  1.0000
  O   O1        1.0  0.34800  0.75400  0.08540  1.0000
  O   O2        1.0  0.94300  0.14100  0.23800  1.0000
  O   O3        1.0  0.05720  0.64100  0.26200  1.0000
  O   O4        1.0  0.65200  0.25400  0.41500  1.0000
  O   O5        1.0  0.34800  0.74600  0.58500  1.0000
  O   O6        1.0  0.94300  0.35900  0.73800  1.0000
  O   O7        1.0  0.05720  0.85900  0.76200  1.0000
  O   O8        1.0  0.65200  0.24600  0.91500  1.0000
