data_image0
_chemical_formula_structural       Ge4N6Na2
_chemical_formula_sum              "Ge4 N6 Na2"
_cell_length_a       5.13983
_cell_length_b       5.73093
_cell_length_c       5.73093
_cell_angle_alpha    60.736
_cell_angle_beta     90
_cell_angle_gamma    90

_space_group_name_H-M_alt    "P 1"
_space_group_IT_number       1

loop_
  _space_group_symop_operation_xyz
  'x, y, z'

loop_
  _atom_site_type_symbol
  _atom_site_label
  _atom_site_symmetry_multiplicity
  _atom_site_fract_x
  _atom_site_fract_y
  _atom_site_fract_z
  _atom_site_occupancy
  Ge  Ge1       1.0  0.02460  0.32500  0.01080  1.0000
  Ge  Ge2       1.0  0.52500  0.01080  0.32500  1.0000
  Ge  Ge3       1.0  0.02460  0.98900  0.67500  1.0000
  Ge  Ge4       1.0  0.52500  0.67500  0.98900  1.0000
  N   N1        1.0  0.38100  0.34100  0.07500  1.0000
  N   N2        1.0  0.45300  0.74000  0.26000  1.0000
  N   N3        1.0  0.88100  0.07500  0.34100  1.0000
  N   N4        1.0  0.38100  0.92500  0.65900  1.0000
  N   N5        1.0  0.95300  0.26000  0.74000  1.0000
  N   N6        1.0  0.88100  0.65900  0.92500  1.0000
  Na  Na1       1.0  0.99500  0.66200  0.33800  1.0000
  Na  Na2       1.0  0.49500  0.33800  0.66200  1.0000
