data_image0
_chemical_formula_structural       As2Na2Ni2O8
_chemical_formula_sum              "As2 Na2 Ni2 O8"
_cell_length_a       4.93321
_cell_length_b       4.93321
_cell_length_c       9.21638
_cell_angle_alpha    105.523
_cell_angle_beta     74.4765
_cell_angle_gamma    120

_space_group_name_H-M_alt    "P 1"
_space_group_IT_number       1

loop_
  _space_group_symop_operation_xyz
  'x, y, z'

loop_
  _atom_site_type_symbol
  _atom_site_label
  _atom_site_symmetry_multiplicity
  _atom_site_fract_x
  _atom_site_fract_y
  _atom_site_fract_z
  _atom_site_occupancy
  As  As1       1.0  0.27900  0.72100  0.16200  1.0000
  As  As2       1.0  0.14500  0.85500  0.56400  1.0000
  Na  Na1       1.0  0.99900  0.00081  0.00243  1.0000
  Na  Na2       1.0  0.42600  0.57400  0.72300  1.0000
  Ni  Ni1       1.0  0.54800  0.45200  0.35600  1.0000
  Ni  Ni2       1.0  0.87700  0.12300  0.37000  1.0000
  O   O1        1.0  0.59700  0.07100  0.22500  1.0000
  O   O2        1.0  0.24900  0.40300  0.22500  1.0000
  O   O3        1.0  0.92900  0.75100  0.22500  1.0000
  O   O4        1.0  0.17500  0.17200  0.50200  1.0000
  O   O5        1.0  0.82800  0.50400  0.50200  1.0000
  O   O6        1.0  0.49600  0.82500  0.50200  1.0000
  O   O7        1.0  0.08160  0.91800  0.75500  1.0000
  O   O8        1.0  0.34300  0.65700  0.97100  1.0000
