data_image0
_chemical_formula_structural       Cu4K4S4
_chemical_formula_sum              "Cu4 K4 S4"
_cell_length_a       10.6817
_cell_length_b       6.22696
_cell_length_c       5.33496
_cell_angle_alpha    90
_cell_angle_beta     90
_cell_angle_gamma    90

_space_group_name_H-M_alt    "P 1"
_space_group_IT_number       1

loop_
  _space_group_symop_operation_xyz
  'x, y, z'

loop_
  _atom_site_type_symbol
  _atom_site_label
  _atom_site_symmetry_multiplicity
  _atom_site_fract_x
  _atom_site_fract_y
  _atom_site_fract_z
  _atom_site_occupancy
  Cu  Cu1       1.0  0.00043  0.00108  0.00144  1.0000
  Cu  Cu2       1.0  0.50000  0.49900  0.00144  1.0000
  Cu  Cu3       1.0  0.00000  0.99900  0.50100  1.0000
  Cu  Cu4       1.0  0.50000  0.50100  0.50100  1.0000
  K   K1        1.0  0.84600  0.52400  0.24900  1.0000
  K   K2        1.0  0.34600  0.97600  0.24900  1.0000
  K   K3        1.0  0.65400  0.02420  0.74900  1.0000
  K   K4        1.0  0.15400  0.47600  0.74900  1.0000
  S   S1        1.0  0.08950  0.22500  0.25300  1.0000
  S   S2        1.0  0.59000  0.27500  0.25300  1.0000
  S   S3        1.0  0.41000  0.72500  0.75300  1.0000
  S   S4        1.0  0.91000  0.77500  0.75300  1.0000
