data_image0
_chemical_formula_structural       Er8Eu4S16
_chemical_formula_sum              "Er8 Eu4 S16"
_cell_length_a       14.1356
_cell_length_b       11.7967
_cell_length_c       3.93405
_cell_angle_alpha    90
_cell_angle_beta     90
_cell_angle_gamma    90

_space_group_name_H-M_alt    "P 1"
_space_group_IT_number       1

loop_
  _space_group_symop_operation_xyz
  'x, y, z'

loop_
  _atom_site_type_symbol
  _atom_site_label
  _atom_site_symmetry_multiplicity
  _atom_site_fract_x
  _atom_site_fract_y
  _atom_site_fract_z
  _atom_site_occupancy
  Er  Er1       1.0  0.10000  0.41900  0.25000  1.0000
  Er  Er2       1.0  0.60000  0.08130  0.75000  1.0000
  Er  Er3       1.0  0.40000  0.91900  0.25000  1.0000
  Er  Er4       1.0  0.90000  0.58100  0.75000  1.0000
  Er  Er5       1.0  0.61000  0.43100  0.25000  1.0000
  Er  Er6       1.0  0.11000  0.06860  0.75000  1.0000
  Er  Er7       1.0  0.89000  0.93100  0.25000  1.0000
  Er  Er8       1.0  0.39000  0.56900  0.75000  1.0000
  Eu  Eu1       1.0  0.66300  0.75800  0.25000  1.0000
  Eu  Eu2       1.0  0.16300  0.74200  0.75000  1.0000
  Eu  Eu3       1.0  0.83700  0.25800  0.25000  1.0000
  Eu  Eu4       1.0  0.33700  0.24200  0.75000  1.0000
  S   S1        1.0  0.42000  0.41200  0.25000  1.0000
  S   S2        1.0  0.92000  0.08770  0.75000  1.0000
  S   S3        1.0  0.07980  0.91200  0.25000  1.0000
  S   S4        1.0  0.58000  0.58800  0.75000  1.0000
  S   S5        1.0  0.71500  0.02260  0.25000  1.0000
  S   S6        1.0  0.21500  0.47700  0.75000  1.0000
  S   S7        1.0  0.78500  0.52300  0.25000  1.0000
  S   S8        1.0  0.28500  0.97700  0.75000  1.0000
  S   S9        1.0  0.47200  0.13300  0.25000  1.0000
  S   S10       1.0  0.97200  0.36700  0.75000  1.0000
  S   S11       1.0  0.02850  0.63300  0.25000  1.0000
  S   S12       1.0  0.52800  0.86700  0.75000  1.0000
  S   S13       1.0  0.17800  0.20800  0.25000  1.0000
  S   S14       1.0  0.67800  0.29200  0.75000  1.0000
  S   S15       1.0  0.32200  0.70800  0.25000  1.0000
  S   S16       1.0  0.82200  0.79200  0.75000  1.0000
