data_image0
_chemical_formula_structural       ErLiSe2
_chemical_formula_sum              "Er1 Li1 Se2"
_cell_length_a       4.02029
_cell_length_b       4.0203
_cell_length_c       6.87738
_cell_angle_alpha    106.995
_cell_angle_beta     90
_cell_angle_gamma    60

_space_group_name_H-M_alt    "P 1"
_space_group_IT_number       1

loop_
  _space_group_symop_operation_xyz
  'x, y, z'

loop_
  _atom_site_type_symbol
  _atom_site_label
  _atom_site_symmetry_multiplicity
  _atom_site_fract_x
  _atom_site_fract_y
  _atom_site_fract_z
  _atom_site_occupancy
  Er  Er1       1.0  0.00000  0.00000  0.00000  1.0000
  Li  Li1       1.0  0.50000  0.00000  0.50000  1.0000
  Se  Se1       1.0  0.24900  0.50100  0.25200  1.0000
  Se  Se2       1.0  0.75100  0.49900  0.74800  1.0000
