data_image0
_chemical_formula_structural       Cs2F4H2
_chemical_formula_sum              "Cs2 F4 H2"
_cell_length_a       5.63448
_cell_length_b       5.63448
_cell_length_c       5.63448
_cell_angle_alpha    116.152
_cell_angle_beta     96.8057
_cell_angle_gamma    116.152

_space_group_name_H-M_alt    "P 1"
_space_group_IT_number       1

loop_
  _space_group_symop_operation_xyz
  'x, y, z'

loop_
  _atom_site_type_symbol
  _atom_site_label
  _atom_site_symmetry_multiplicity
  _atom_site_fract_x
  _atom_site_fract_y
  _atom_site_fract_z
  _atom_site_occupancy
  Cs  Cs1       1.0  0.25000  0.00000  0.25000  1.0000
  Cs  Cs2       1.0  0.75000  0.00000  0.75000  1.0000
  F   F1        1.0  0.63600  0.77100  0.13600  1.0000
  F   F2        1.0  0.13600  0.50000  0.36400  1.0000
  F   F3        1.0  0.86400  0.50000  0.63600  1.0000
  F   F4        1.0  0.36400  0.22900  0.86400  1.0000
  H   H1        1.0  0.50000  0.50000  0.00000  1.0000
  H   H2        1.0  0.00000  0.50000  0.50000  1.0000
