data_image0
_chemical_formula_structural       S6Sn2Tl4
_chemical_formula_sum              "S6 Sn2 Tl4"
_cell_length_a       3.90335
_cell_length_b       7.49838
_cell_length_c       11.9384
_cell_angle_alpha    93.3701
_cell_angle_beta     99.4089
_cell_angle_gamma    90

_space_group_name_H-M_alt    "P 1"
_space_group_IT_number       1

loop_
  _space_group_symop_operation_xyz
  'x, y, z'

loop_
  _atom_site_type_symbol
  _atom_site_label
  _atom_site_symmetry_multiplicity
  _atom_site_fract_x
  _atom_site_fract_y
  _atom_site_fract_z
  _atom_site_occupancy
  S   S1        1.0  0.08710  0.01350  0.17400  1.0000
  S   S2        1.0  0.08960  0.52800  0.17900  1.0000
  S   S3        1.0  0.71400  0.28500  0.42900  1.0000
  S   S4        1.0  0.28600  0.71500  0.57100  1.0000
  S   S5        1.0  0.91000  0.47200  0.82100  1.0000
  S   S6        1.0  0.91300  0.98600  0.82600  1.0000
  Sn  Sn1       1.0  0.14900  0.28000  0.29700  1.0000
  Sn  Sn2       1.0  0.85100  0.72000  0.70300  1.0000
  Tl  Tl1       1.0  0.50800  0.25300  0.01620  1.0000
  Tl  Tl2       1.0  0.66100  0.78600  0.32200  1.0000
  Tl  Tl3       1.0  0.33900  0.21400  0.67800  1.0000
  Tl  Tl4       1.0  0.49200  0.74700  0.98400  1.0000
