data_image0
_chemical_formula_structural       Ge2K6S6
_chemical_formula_sum              "Ge2 K6 S6"
_cell_length_a       7.60948
_cell_length_b       7.60948
_cell_length_c       8.31453
_cell_angle_alpha    104.813
_cell_angle_beta     104.813
_cell_angle_gamma    109.892

_space_group_name_H-M_alt    "P 1"
_space_group_IT_number       1

loop_
  _space_group_symop_operation_xyz
  'x, y, z'

loop_
  _atom_site_type_symbol
  _atom_site_label
  _atom_site_symmetry_multiplicity
  _atom_site_fract_x
  _atom_site_fract_y
  _atom_site_fract_z
  _atom_site_occupancy
  Ge  Ge1       1.0  0.11800  0.11800  0.15600  1.0000
  Ge  Ge2       1.0  0.88200  0.88200  0.84400  1.0000
  K   K1        1.0  0.50000  0.00000  0.00000  1.0000
  K   K2        1.0  0.00000  0.50000  0.00000  1.0000
  K   K3        1.0  0.78300  0.78300  0.31400  1.0000
  K   K4        1.0  0.66800  0.33200  0.50000  1.0000
  K   K5        1.0  0.33200  0.66800  0.50000  1.0000
  K   K6        1.0  0.21700  0.21700  0.68600  1.0000
  S   S1        1.0  0.37000  0.37000  0.14400  1.0000
  S   S2        1.0  0.94800  0.24300  0.29800  1.0000
  S   S3        1.0  0.24300  0.94800  0.29800  1.0000
  S   S4        1.0  0.75700  0.05180  0.70200  1.0000
  S   S5        1.0  0.05180  0.75700  0.70200  1.0000
  S   S6        1.0  0.63000  0.63000  0.85600  1.0000
