data_image0
_chemical_formula_structural       KPrS2
_chemical_formula_sum              "K1 Pr1 S2"
_cell_length_a       4.21789
_cell_length_b       4.21789
_cell_length_c       7.78756
_cell_angle_alpha    90
_cell_angle_beta     105.712
_cell_angle_gamma    120

_space_group_name_H-M_alt    "P 1"
_space_group_IT_number       1

loop_
  _space_group_symop_operation_xyz
  'x, y, z'

loop_
  _atom_site_type_symbol
  _atom_site_label
  _atom_site_symmetry_multiplicity
  _atom_site_fract_x
  _atom_site_fract_y
  _atom_site_fract_z
  _atom_site_occupancy
  K   K1        1.0  0.00000  0.50000  0.50000  1.0000
  Pr  Pr1       1.0  0.00000  0.00000  0.00000  1.0000
  S   S1        1.0  0.47300  0.73600  0.20900  1.0000
  S   S2        1.0  0.52700  0.26400  0.79100  1.0000
