data_image0
_chemical_formula_structural       Eu2Pd4Sb4
_chemical_formula_sum              "Eu2 Pd4 Sb4"
_cell_length_a       4.64248
_cell_length_b       4.64248
_cell_length_c       10.6783
_cell_angle_alpha    90
_cell_angle_beta     90
_cell_angle_gamma    90

_space_group_name_H-M_alt    "P 1"
_space_group_IT_number       1

loop_
  _space_group_symop_operation_xyz
  'x, y, z'

loop_
  _atom_site_type_symbol
  _atom_site_label
  _atom_site_symmetry_multiplicity
  _atom_site_fract_x
  _atom_site_fract_y
  _atom_site_fract_z
  _atom_site_occupancy
  Eu  Eu1       1.0  0.25000  0.25000  0.24100  1.0000
  Eu  Eu2       1.0  0.75000  0.75000  0.75900  1.0000
  Pd  Pd1       1.0  0.75000  0.25000  0.00000  1.0000
  Pd  Pd2       1.0  0.25000  0.75000  0.00000  1.0000
  Pd  Pd3       1.0  0.75000  0.75000  0.37000  1.0000
  Pd  Pd4       1.0  0.25000  0.25000  0.63000  1.0000
  Sb  Sb1       1.0  0.75000  0.75000  0.12700  1.0000
  Sb  Sb2       1.0  0.75000  0.25000  0.50000  1.0000
  Sb  Sb3       1.0  0.25000  0.75000  0.50000  1.0000
  Sb  Sb4       1.0  0.25000  0.25000  0.87300  1.0000
