data_image0
_chemical_formula_structural       ErNaSe2
_chemical_formula_sum              "Er1 Na1 Se2"
_cell_length_a       4.0978
_cell_length_b       4.0978
_cell_length_c       7.32471
_cell_angle_alpha    106.244
_cell_angle_beta     90
_cell_angle_gamma    60

_space_group_name_H-M_alt    "P 1"
_space_group_IT_number       1

loop_
  _space_group_symop_operation_xyz
  'x, y, z'

loop_
  _atom_site_type_symbol
  _atom_site_label
  _atom_site_symmetry_multiplicity
  _atom_site_fract_x
  _atom_site_fract_y
  _atom_site_fract_z
  _atom_site_occupancy
  Er  Er1       1.0  0.00000  0.00000  0.00000  1.0000
  Na  Na1       1.0  0.50000  0.00000  0.50000  1.0000
  Se  Se1       1.0  0.25700  0.48700  0.23000  1.0000
  Se  Se2       1.0  0.74300  0.51300  0.77000  1.0000
