data_image0
_chemical_formula_structural       B8Er2Rh8
_chemical_formula_sum              "B8 Er2 Rh8"
_cell_length_a       5.32476
_cell_length_b       5.32476
_cell_length_c       7.44036
_cell_angle_alpha    90
_cell_angle_beta     90
_cell_angle_gamma    90

_space_group_name_H-M_alt    "P 1"
_space_group_IT_number       1

loop_
  _space_group_symop_operation_xyz
  'x, y, z'

loop_
  _atom_site_type_symbol
  _atom_site_label
  _atom_site_symmetry_multiplicity
  _atom_site_fract_x
  _atom_site_fract_y
  _atom_site_fract_z
  _atom_site_occupancy
  B   B1        1.0  0.25000  0.08140  0.10200  1.0000
  B   B2        1.0  0.25000  0.41900  0.10200  1.0000
  B   B3        1.0  0.58100  0.75000  0.39800  1.0000
  B   B4        1.0  0.91900  0.75000  0.39800  1.0000
  B   B5        1.0  0.08140  0.25000  0.60200  1.0000
  B   B6        1.0  0.41900  0.25000  0.60200  1.0000
  B   B7        1.0  0.75000  0.58100  0.89800  1.0000
  B   B8        1.0  0.75000  0.91900  0.89800  1.0000
  Er  Er1       1.0  0.75000  0.25000  0.25000  1.0000
  Er  Er2       1.0  0.25000  0.75000  0.75000  1.0000
  Rh  Rh1       1.0  0.00141  0.75000  0.10400  1.0000
  Rh  Rh2       1.0  0.49900  0.75000  0.10400  1.0000
  Rh  Rh3       1.0  0.25000  0.50100  0.39600  1.0000
  Rh  Rh4       1.0  0.25000  0.99900  0.39600  1.0000
  Rh  Rh5       1.0  0.75000  0.00141  0.60400  1.0000
  Rh  Rh6       1.0  0.75000  0.49900  0.60400  1.0000
  Rh  Rh7       1.0  0.50100  0.25000  0.89600  1.0000
  Rh  Rh8       1.0  0.99900  0.25000  0.89600  1.0000
