data_image0
_chemical_formula_structural       Mg2Si10Sr11
_chemical_formula_sum              "Mg2 Si10 Sr11"
_cell_length_a       4.74128
_cell_length_b       10.1374
_cell_length_c       14.5932
_cell_angle_alpha    104.105
_cell_angle_beta     99.349
_cell_angle_gamma    103.524

_space_group_name_H-M_alt    "P 1"
_space_group_IT_number       1

loop_
  _space_group_symop_operation_xyz
  'x, y, z'

loop_
  _atom_site_type_symbol
  _atom_site_label
  _atom_site_symmetry_multiplicity
  _atom_site_fract_x
  _atom_site_fract_y
  _atom_site_fract_z
  _atom_site_occupancy
  Mg  Mg1       1.0  0.30300  0.52200  0.08300  1.0000
  Mg  Mg2       1.0  0.69700  0.47800  0.91700  1.0000
  Si  Si1       1.0  0.71300  0.35600  0.07010  1.0000
  Si  Si2       1.0  0.62500  0.01410  0.23700  1.0000
  Si  Si3       1.0  0.51300  0.77300  0.25300  1.0000
  Si  Si4       1.0  0.46200  0.50700  0.41600  1.0000
  Si  Si5       1.0  0.59000  0.75900  0.42100  1.0000
  Si  Si6       1.0  0.41000  0.24100  0.57900  1.0000
  Si  Si7       1.0  0.53800  0.49300  0.58400  1.0000
  Si  Si8       1.0  0.48700  0.22700  0.74700  1.0000
  Si  Si9       1.0  0.37500  0.98600  0.76300  1.0000
  Si  Si10      1.0  0.28700  0.64400  0.93000  1.0000
  Sr  Sr1       1.0  0.50000  0.00000  0.00000  1.0000
  Sr  Sr2       1.0  0.94700  0.79100  0.10300  1.0000
  Sr  Sr3       1.0  0.21200  0.23000  0.19500  1.0000
  Sr  Sr4       1.0  0.92700  0.57000  0.28300  1.0000
  Sr  Sr5       1.0  0.17200  0.96600  0.37800  1.0000
  Sr  Sr6       1.0  0.87000  0.29800  0.44100  1.0000
  Sr  Sr7       1.0  0.13000  0.70200  0.55900  1.0000
  Sr  Sr8       1.0  0.82800  0.03410  0.62200  1.0000
  Sr  Sr9       1.0  0.07340  0.43000  0.71700  1.0000
  Sr  Sr10      1.0  0.78800  0.77000  0.80500  1.0000
  Sr  Sr11      1.0  0.05290  0.20900  0.89700  1.0000
