data_image0
_chemical_formula_structural       Al4Se8Sr2
_chemical_formula_sum              "Al4 Se8 Sr2"
_cell_length_a       6.34645
_cell_length_b       6.34645
_cell_length_c       11.1095
_cell_angle_alpha    90
_cell_angle_beta     90
_cell_angle_gamma    120.939

_space_group_name_H-M_alt    "P 1"
_space_group_IT_number       1

loop_
  _space_group_symop_operation_xyz
  'x, y, z'

loop_
  _atom_site_type_symbol
  _atom_site_label
  _atom_site_symmetry_multiplicity
  _atom_site_fract_x
  _atom_site_fract_y
  _atom_site_fract_z
  _atom_site_occupancy
  Al  Al1       1.0  0.75900  0.23800  0.00000  1.0000
  Al  Al2       1.0  0.24100  0.76200  0.00000  1.0000
  Al  Al3       1.0  0.76200  0.24100  0.50000  1.0000
  Al  Al4       1.0  0.23800  0.75900  0.50000  1.0000
  Se  Se1       1.0  0.18300  0.35000  0.00000  1.0000
  Se  Se2       1.0  0.81700  0.65000  0.00000  1.0000
  Se  Se3       1.0  0.50000  0.00000  0.16600  1.0000
  Se  Se4       1.0  0.00000  0.50000  0.33400  1.0000
  Se  Se5       1.0  0.35000  0.18300  0.50000  1.0000
  Se  Se6       1.0  0.65000  0.81700  0.50000  1.0000
  Se  Se7       1.0  0.00000  0.50000  0.66600  1.0000
  Se  Se8       1.0  0.50000  0.00000  0.83400  1.0000
  Sr  Sr1       1.0  0.50000  0.50000  0.25000  1.0000
  Sr  Sr2       1.0  0.50000  0.50000  0.75000  1.0000
