data_image0
_chemical_formula_structural       I14Re6Te14
_chemical_formula_sum              "I14 Re6 Te14"
_cell_length_a       10.8584
_cell_length_b       12.2067
_cell_length_c       10.7848
_cell_angle_alpha    104.293
_cell_angle_beta     118.41
_cell_angle_gamma    87.4169

_space_group_name_H-M_alt    "P 1"
_space_group_IT_number       1

loop_
  _space_group_symop_operation_xyz
  'x, y, z'

loop_
  _atom_site_type_symbol
  _atom_site_label
  _atom_site_symmetry_multiplicity
  _atom_site_fract_x
  _atom_site_fract_y
  _atom_site_fract_z
  _atom_site_occupancy
  I   I1        1.0  0.46000  0.38400  0.30000  1.0000
  I   I2        1.0  0.82100  0.59900  0.13600  1.0000
  I   I3        1.0  0.17900  0.40100  0.86400  1.0000
  I   I4        1.0  0.54000  0.61600  0.70000  1.0000
  I   I5        1.0  0.88400  0.37800  0.39300  1.0000
  I   I6        1.0  0.11600  0.62200  0.60700  1.0000
  I   I7        1.0  0.30500  0.35000  0.57200  1.0000
  I   I8        1.0  0.69500  0.65000  0.42800  1.0000
  I   I9        1.0  0.67400  0.04690  0.35800  1.0000
  I   I10       1.0  0.32600  0.95300  0.64200  1.0000
  I   I11       1.0  0.58000  0.35400  0.96500  1.0000
  I   I12       1.0  0.42000  0.64600  0.03470  1.0000
  I   I13       1.0  0.76800  0.38700  0.71000  1.0000
  I   I14       1.0  0.23200  0.61300  0.29000  1.0000
  Re  Re1       1.0  0.15900  0.09310  0.16300  1.0000
  Re  Re2       1.0  0.84100  0.90700  0.83700  1.0000
  Re  Re3       1.0  0.87700  0.08950  0.05830  1.0000
  Re  Re4       1.0  0.12300  0.91100  0.94200  1.0000
  Re  Re5       1.0  0.98800  0.09930  0.88300  1.0000
  Re  Re6       1.0  0.01170  0.90100  0.11700  1.0000
  Te  Te1       1.0  0.02520  0.28200  0.10400  1.0000
  Te  Te2       1.0  0.97500  0.71800  0.89600  1.0000
  Te  Te3       1.0  0.27100  0.10400  0.98700  1.0000
  Te  Te4       1.0  0.72900  0.89600  0.01300  1.0000
  Te  Te5       1.0  0.04860  0.08380  0.33900  1.0000
  Te  Te6       1.0  0.95100  0.91600  0.66100  1.0000
  Te  Te7       1.0  0.70600  0.09640  0.77800  1.0000
  Te  Te8       1.0  0.29400  0.90400  0.22200  1.0000
  Te  Te9       1.0  0.96000  0.22700  0.70200  1.0000
  Te  Te10      1.0  0.04020  0.77300  0.29800  1.0000
  Te  Te11      1.0  0.39700  0.20600  0.38900  1.0000
  Te  Te12      1.0  0.60300  0.79400  0.61100  1.0000
  Te  Te13      1.0  0.70500  0.20400  0.14800  1.0000
  Te  Te14      1.0  0.29500  0.79600  0.85200  1.0000
