data_image0
_chemical_formula_structural       Na5O6Os
_chemical_formula_sum              "Na5 O6 Os1"
_cell_length_a       5.54915
_cell_length_b       5.59654
_cell_length_c       5.59654
_cell_angle_alpha    119.509
_cell_angle_beta     100.342
_cell_angle_gamma    100.342

_space_group_name_H-M_alt    "P 1"
_space_group_IT_number       1

loop_
  _space_group_symop_operation_xyz
  'x, y, z'

loop_
  _atom_site_type_symbol
  _atom_site_label
  _atom_site_symmetry_multiplicity
  _atom_site_fract_x
  _atom_site_fract_y
  _atom_site_fract_z
  _atom_site_occupancy
  Na  Na1       1.0  0.50000  0.82400  0.17600  1.0000
  Na  Na2       1.0  0.00000  0.66700  0.33300  1.0000
  Na  Na3       1.0  0.50000  0.50000  0.50000  1.0000
  Na  Na4       1.0  0.00000  0.33300  0.66700  1.0000
  Na  Na5       1.0  0.50000  0.17600  0.82400  1.0000
  O   O1        1.0  0.21800  0.35500  0.07210  1.0000
  O   O2        1.0  0.79200  0.20500  0.20500  1.0000
  O   O3        1.0  0.21800  0.07210  0.35500  1.0000
  O   O4        1.0  0.78200  0.92800  0.64500  1.0000
  O   O5        1.0  0.20800  0.79500  0.79500  1.0000
  O   O6        1.0  0.78200  0.64500  0.92800  1.0000
  Os  Os1       1.0  0.00000  0.00000  0.00000  1.0000
