data_image0
_chemical_formula_structural       Cl10Nb2OTe4
_chemical_formula_sum              "Cl10 Nb2 O1 Te4"
_cell_length_a       6.85295
_cell_length_b       8.6783
_cell_length_c       9.18753
_cell_angle_alpha    81.0772
_cell_angle_beta     88.6431
_cell_angle_gamma    74.161

_space_group_name_H-M_alt    "P 1"
_space_group_IT_number       1

loop_
  _space_group_symop_operation_xyz
  'x, y, z'

loop_
  _atom_site_type_symbol
  _atom_site_label
  _atom_site_symmetry_multiplicity
  _atom_site_fract_x
  _atom_site_fract_y
  _atom_site_fract_z
  _atom_site_occupancy
  Cl  Cl1       1.0  0.61300  0.51800  0.17000  1.0000
  Cl  Cl2       1.0  0.45700  0.17200  0.18600  1.0000
  Cl  Cl3       1.0  0.14500  0.52500  0.28400  1.0000
  Cl  Cl4       1.0  0.81800  0.19500  0.42400  1.0000
  Cl  Cl5       1.0  0.66100  0.79700  0.45600  1.0000
  Cl  Cl6       1.0  0.33900  0.20300  0.54400  1.0000
  Cl  Cl7       1.0  0.18200  0.80500  0.57600  1.0000
  Cl  Cl8       1.0  0.85500  0.47500  0.71600  1.0000
  Cl  Cl9       1.0  0.54300  0.82800  0.81400  1.0000
  Cl  Cl10      1.0  0.38700  0.48200  0.83000  1.0000
  Nb  Nb1       1.0  0.48600  0.35700  0.36400  1.0000
  Nb  Nb2       1.0  0.51400  0.64300  0.63600  1.0000
  O   O1        1.0  0.50000  0.50000  0.50000  1.0000
  Te  Te1       1.0  0.91700  0.80400  0.01140  1.0000
  Te  Te2       1.0  0.18700  0.90100  0.16300  1.0000
  Te  Te3       1.0  0.81300  0.09890  0.83700  1.0000
  Te  Te4       1.0  0.08290  0.19600  0.98900  1.0000
