data_image0
_chemical_formula_structural       Br8O4
_chemical_formula_sum              "Br8 O4"
_cell_length_a       3.92324
_cell_length_b       6.77801
_cell_length_c       10.3066
_cell_angle_alpha    90
_cell_angle_beta     90
_cell_angle_gamma    90

_space_group_name_H-M_alt    "P 1"
_space_group_IT_number       1

loop_
  _space_group_symop_operation_xyz
  'x, y, z'

loop_
  _atom_site_type_symbol
  _atom_site_label
  _atom_site_symmetry_multiplicity
  _atom_site_fract_x
  _atom_site_fract_y
  _atom_site_fract_z
  _atom_site_occupancy
  Br  Br1       1.0  0.13300  0.82100  0.99000  1.0000
  Br  Br2       1.0  0.86700  0.32100  0.01010  1.0000
  Br  Br3       1.0  0.08920  0.49700  0.22400  1.0000
  Br  Br4       1.0  0.58900  0.99700  0.27600  1.0000
  Br  Br5       1.0  0.36700  0.82100  0.49000  1.0000
  Br  Br6       1.0  0.63300  0.32100  0.51000  1.0000
  Br  Br7       1.0  0.41100  0.49700  0.72400  1.0000
  Br  Br8       1.0  0.91100  0.99700  0.77600  1.0000
  O   O1        1.0  0.34000  0.70400  0.14600  1.0000
  O   O2        1.0  0.84000  0.20400  0.35400  1.0000
  O   O3        1.0  0.16000  0.70400  0.64600  1.0000
  O   O4        1.0  0.66000  0.20400  0.85400  1.0000
