data_image0
_chemical_formula_structural       Cs2O4Y2
_chemical_formula_sum              "Cs2 O4 Y2"
_cell_length_a       3.51252
_cell_length_b       3.51252
_cell_length_c       13.4376
_cell_angle_alpha    89.9995
_cell_angle_beta     90.0004
_cell_angle_gamma    120.011

_space_group_name_H-M_alt    "P 1"
_space_group_IT_number       1

loop_
  _space_group_symop_operation_xyz
  'x, y, z'

loop_
  _atom_site_type_symbol
  _atom_site_label
  _atom_site_symmetry_multiplicity
  _atom_site_fract_x
  _atom_site_fract_y
  _atom_site_fract_z
  _atom_site_occupancy
  Cs  Cs1       1.0  0.66700  0.33300  0.50000  1.0000
  Cs  Cs2       1.0  0.00000  0.00000  1.00000  1.0000
  O   O1        1.0  0.00000  0.00000  0.33400  1.0000
  O   O2        1.0  0.00002  0.00001  0.66600  1.0000
  O   O3        1.0  0.66700  0.33300  0.16600  1.0000
  O   O4        1.0  0.66700  0.33300  0.83400  1.0000
  Y   Y1        1.0  0.33300  0.66700  0.25000  1.0000
  Y   Y2        1.0  0.33300  0.66700  0.75000  1.0000
