data_image0
_chemical_formula_structural       H4N8P4
_chemical_formula_sum              "H4 N8 P4"
_cell_length_a       4.61255
_cell_length_b       4.62216
_cell_length_c       7.0387
_cell_angle_alpha    90
_cell_angle_beta     90
_cell_angle_gamma    90

_space_group_name_H-M_alt    "P 1"
_space_group_IT_number       1

loop_
  _space_group_symop_operation_xyz
  'x, y, z'

loop_
  _atom_site_type_symbol
  _atom_site_label
  _atom_site_symmetry_multiplicity
  _atom_site_fract_x
  _atom_site_fract_y
  _atom_site_fract_z
  _atom_site_occupancy
  H   H1        1.0  0.63400  0.55900  0.19000  1.0000
  H   H2        1.0  0.36600  0.05860  0.31000  1.0000
  H   H3        1.0  0.86600  0.44100  0.69000  1.0000
  H   H4        1.0  0.13400  0.94100  0.81000  1.0000
  N   N1        1.0  0.78400  0.08870  0.99200  1.0000
  N   N2        1.0  0.28400  0.41100  0.00823  1.0000
  N   N3        1.0  0.84200  0.51900  0.23600  1.0000
  N   N4        1.0  0.15800  0.01890  0.26400  1.0000
  N   N5        1.0  0.71600  0.91100  0.49200  1.0000
  N   N6        1.0  0.21600  0.58900  0.50800  1.0000
  N   N7        1.0  0.65800  0.48100  0.73600  1.0000
  N   N8        1.0  0.34200  0.98100  0.76400  1.0000
  P   P1        1.0  0.01760  0.26200  0.11500  1.0000
  P   P2        1.0  0.98200  0.76200  0.38500  1.0000
  P   P3        1.0  0.48200  0.73800  0.61500  1.0000
  P   P4        1.0  0.51800  0.23800  0.88500  1.0000
