data_image0
_chemical_formula_structural       Fe4P4Ta4
_chemical_formula_sum              "Fe4 P4 Ta4"
_cell_length_a       6.10776
_cell_length_b       3.58279
_cell_length_c       6.93443
_cell_angle_alpha    90
_cell_angle_beta     90
_cell_angle_gamma    90

_space_group_name_H-M_alt    "P 1"
_space_group_IT_number       1

loop_
  _space_group_symop_operation_xyz
  'x, y, z'

loop_
  _atom_site_type_symbol
  _atom_site_label
  _atom_site_symmetry_multiplicity
  _atom_site_fract_x
  _atom_site_fract_y
  _atom_site_fract_z
  _atom_site_occupancy
  Fe  Fe1       1.0  0.35800  0.75000  0.06340  1.0000
  Fe  Fe2       1.0  0.85800  0.75000  0.43700  1.0000
  Fe  Fe3       1.0  0.14200  0.25000  0.56300  1.0000
  Fe  Fe4       1.0  0.64200  0.25000  0.93700  1.0000
  P   P1        1.0  0.72300  0.75000  0.11900  1.0000
  P   P2        1.0  0.22300  0.75000  0.38100  1.0000
  P   P3        1.0  0.77700  0.25000  0.61900  1.0000
  P   P4        1.0  0.27700  0.25000  0.88100  1.0000
  Ta  Ta1       1.0  0.02200  0.25000  0.17600  1.0000
  Ta  Ta2       1.0  0.52200  0.25000  0.32400  1.0000
  Ta  Ta3       1.0  0.47800  0.75000  0.67600  1.0000
  Ta  Ta4       1.0  0.97800  0.75000  0.82400  1.0000
