data_image0
_chemical_formula_structural       Cl32Li4Nb12
_chemical_formula_sum              "Cl32 Li4 Nb12"
_cell_length_a       9.21592
_cell_length_b       9.21592
_cell_length_c       13.4623
_cell_angle_alpha    90
_cell_angle_beta     90
_cell_angle_gamma    91.864

_space_group_name_H-M_alt    "P 1"
_space_group_IT_number       1

loop_
  _space_group_symop_operation_xyz
  'x, y, z'

loop_
  _atom_site_type_symbol
  _atom_site_label
  _atom_site_symmetry_multiplicity
  _atom_site_fract_x
  _atom_site_fract_y
  _atom_site_fract_z
  _atom_site_occupancy
  Cl  Cl1       1.0  0.13300  0.13300  0.00000  1.0000
  Cl  Cl2       1.0  0.86700  0.86700  0.00000  1.0000
  Cl  Cl3       1.0  0.75800  0.24200  0.04060  1.0000
  Cl  Cl4       1.0  0.16200  0.45800  0.10800  1.0000
  Cl  Cl5       1.0  0.54200  0.83800  0.10800  1.0000
  Cl  Cl6       1.0  0.42100  0.20000  0.14400  1.0000
  Cl  Cl7       1.0  0.80000  0.57900  0.14400  1.0000
  Cl  Cl8       1.0  0.20600  0.79400  0.20700  1.0000
  Cl  Cl9       1.0  0.95900  0.04150  0.24500  1.0000
  Cl  Cl10      1.0  0.45900  0.54100  0.25500  1.0000
  Cl  Cl11      1.0  0.70600  0.29400  0.29300  1.0000
  Cl  Cl12      1.0  0.30000  0.07870  0.35600  1.0000
  Cl  Cl13      1.0  0.92100  0.70000  0.35600  1.0000
  Cl  Cl14      1.0  0.04190  0.33800  0.39200  1.0000
  Cl  Cl15      1.0  0.66200  0.95800  0.39200  1.0000
  Cl  Cl16      1.0  0.25800  0.74200  0.45900  1.0000
  Cl  Cl17      1.0  0.36700  0.36700  0.50000  1.0000
  Cl  Cl18      1.0  0.63300  0.63300  0.50000  1.0000
  Cl  Cl19      1.0  0.74200  0.25800  0.54100  1.0000
  Cl  Cl20      1.0  0.33800  0.04190  0.60800  1.0000
  Cl  Cl21      1.0  0.95800  0.66200  0.60800  1.0000
  Cl  Cl22      1.0  0.07870  0.30000  0.64400  1.0000
  Cl  Cl23      1.0  0.70000  0.92100  0.64400  1.0000
  Cl  Cl24      1.0  0.29400  0.70600  0.70700  1.0000
  Cl  Cl25      1.0  0.54100  0.45900  0.74500  1.0000
  Cl  Cl26      1.0  0.04150  0.95900  0.75500  1.0000
  Cl  Cl27      1.0  0.79400  0.20600  0.79300  1.0000
  Cl  Cl28      1.0  0.20000  0.42100  0.85600  1.0000
  Cl  Cl29      1.0  0.57900  0.80000  0.85600  1.0000
  Cl  Cl30      1.0  0.45800  0.16200  0.89200  1.0000
  Cl  Cl31      1.0  0.83800  0.54200  0.89200  1.0000
  Cl  Cl32      1.0  0.24200  0.75800  0.95900  1.0000
  Li  Li1       1.0  0.08050  0.91900  0.08790  1.0000
  Li  Li2       1.0  0.58100  0.41900  0.41200  1.0000
  Li  Li3       1.0  0.41900  0.58100  0.58800  1.0000
  Li  Li4       1.0  0.91900  0.08050  0.91200  1.0000
  Nb  Nb1       1.0  0.33800  0.33800  0.00000  1.0000
  Nb  Nb2       1.0  0.66200  0.66200  0.00000  1.0000
  Nb  Nb3       1.0  0.37400  0.62600  0.09040  1.0000
  Nb  Nb4       1.0  0.59100  0.40900  0.12300  1.0000
  Nb  Nb5       1.0  0.09140  0.90900  0.37700  1.0000
  Nb  Nb6       1.0  0.87400  0.12600  0.41000  1.0000
  Nb  Nb7       1.0  0.16200  0.16200  0.50000  1.0000
  Nb  Nb8       1.0  0.83800  0.83800  0.50000  1.0000
  Nb  Nb9       1.0  0.12600  0.87400  0.59000  1.0000
  Nb  Nb10      1.0  0.90900  0.09140  0.62300  1.0000
  Nb  Nb11      1.0  0.40900  0.59100  0.87700  1.0000
  Nb  Nb12      1.0  0.62600  0.37400  0.91000  1.0000
