data_image0
_chemical_formula_structural       Cs4CuO7Si2
_chemical_formula_sum              "Cs4 Cu1 O7 Si2"
_cell_length_a       6.48974
_cell_length_b       7.41873
_cell_length_c       7.45737
_cell_angle_alpha    114.86
_cell_angle_beta     101.078
_cell_angle_gamma    109.001

_space_group_name_H-M_alt    "P 1"
_space_group_IT_number       1

loop_
  _space_group_symop_operation_xyz
  'x, y, z'

loop_
  _atom_site_type_symbol
  _atom_site_label
  _atom_site_symmetry_multiplicity
  _atom_site_fract_x
  _atom_site_fract_y
  _atom_site_fract_z
  _atom_site_occupancy
  Cs  Cs1       1.0  0.94000  0.46100  0.22500  1.0000
  Cs  Cs2       1.0  0.67000  0.90000  0.27100  1.0000
  Cs  Cs3       1.0  0.33000  0.10000  0.72900  1.0000
  Cs  Cs4       1.0  0.05960  0.53900  0.77500  1.0000
  Cu  Cu1       1.0  0.50000  0.50000  0.50000  1.0000
  O   O1        1.0  0.00000  0.00000  0.00000  1.0000
  O   O2        1.0  0.47200  0.24500  0.23600  1.0000
  O   O3        1.0  0.20000  0.87100  0.23800  1.0000
  O   O4        1.0  0.18700  0.27100  0.42900  1.0000
  O   O5        1.0  0.81300  0.72900  0.57100  1.0000
  O   O6        1.0  0.80000  0.12900  0.76200  1.0000
  O   O7        1.0  0.52800  0.75500  0.76400  1.0000
  Si  Si1       1.0  0.21600  0.08540  0.22400  1.0000
  Si  Si2       1.0  0.78400  0.91500  0.77600  1.0000
