data_image0
_chemical_formula_structural       LaLi3Sb2
_chemical_formula_sum              "La1 Li3 Sb2"
_cell_length_a       4.61225
_cell_length_b       4.61222
_cell_length_c       7.39191
_cell_angle_alpha    89.9999
_cell_angle_beta     90
_cell_angle_gamma    120

_space_group_name_H-M_alt    "P 1"
_space_group_IT_number       1

loop_
  _space_group_symop_operation_xyz
  'x, y, z'

loop_
  _atom_site_type_symbol
  _atom_site_label
  _atom_site_symmetry_multiplicity
  _atom_site_fract_x
  _atom_site_fract_y
  _atom_site_fract_z
  _atom_site_occupancy
  La  La1       1.0  0.00000  0.00000  0.00000  1.0000
  Li  Li1       1.0  0.66700  0.33300  0.35500  1.0000
  Li  Li2       1.0  0.00000  0.00000  0.50000  1.0000
  Li  Li3       1.0  0.33300  0.66700  0.64500  1.0000
  Sb  Sb1       1.0  0.33300  0.66700  0.25900  1.0000
  Sb  Sb2       1.0  0.66700  0.33300  0.74100  1.0000
