data_image0
_chemical_formula_structural       Ba4F20Mg6
_chemical_formula_sum              "Ba4 F20 Mg6"
_cell_length_a       5.86524
_cell_length_b       7.67413
_cell_length_c       9.59148
_cell_angle_alpha    110.918
_cell_angle_beta     107.803
_cell_angle_gamma    90

_space_group_name_H-M_alt    "P 1"
_space_group_IT_number       1

loop_
  _space_group_symop_operation_xyz
  'x, y, z'

loop_
  _atom_site_type_symbol
  _atom_site_label
  _atom_site_symmetry_multiplicity
  _atom_site_fract_x
  _atom_site_fract_y
  _atom_site_fract_z
  _atom_site_occupancy
  Ba  Ba1       1.0  0.61400  0.71900  0.22800  1.0000
  Ba  Ba2       1.0  0.71800  0.31400  0.43700  1.0000
  Ba  Ba3       1.0  0.28200  0.68600  0.56300  1.0000
  Ba  Ba4       1.0  0.38600  0.28100  0.77200  1.0000
  F   F1        1.0  0.22200  0.50000  0.00000  1.0000
  F   F2        1.0  0.77800  0.50000  0.00000  1.0000
  F   F3        1.0  0.51900  0.18600  0.03800  1.0000
  F   F4        1.0  0.02120  0.18200  0.04250  1.0000
  F   F5        1.0  0.36600  0.02620  0.22100  1.0000
  F   F6        1.0  0.85500  0.02620  0.22100  1.0000
  F   F7        1.0  0.13200  0.74300  0.26500  1.0000
  F   F8        1.0  0.38700  0.47100  0.29600  1.0000
  F   F9        1.0  0.90900  0.47100  0.29600  1.0000
  F   F10       1.0  0.23500  0.28400  0.47100  1.0000
  F   F11       1.0  0.00000  0.00000  0.50000  1.0000
  F   F12       1.0  0.50000  0.00000  0.50000  1.0000
  F   F13       1.0  0.76500  0.71600  0.52900  1.0000
  F   F14       1.0  0.09070  0.52900  0.70400  1.0000
  F   F15       1.0  0.61300  0.52900  0.70400  1.0000
  F   F16       1.0  0.86800  0.25700  0.73500  1.0000
  F   F17       1.0  0.14500  0.97400  0.77900  1.0000
  F   F18       1.0  0.63400  0.97400  0.77900  1.0000
  F   F19       1.0  0.97900  0.81800  0.95800  1.0000
  F   F20       1.0  0.48100  0.81400  0.96200  1.0000
  Mg  Mg1       1.0  0.25500  0.00000  0.00000  1.0000
  Mg  Mg2       1.0  0.74500  0.00000  0.00000  1.0000
  Mg  Mg3       1.0  0.07380  0.45300  0.14800  1.0000
  Mg  Mg4       1.0  0.17700  0.01650  0.35300  1.0000
  Mg  Mg5       1.0  0.82300  0.98400  0.64700  1.0000
  Mg  Mg6       1.0  0.92600  0.54700  0.85200  1.0000
