data_image0
_chemical_formula_structural       Cl4H2K6O12Pd2S4
_chemical_formula_sum              "Cl4 H2 K6 O12 Pd2 S4"
_cell_length_a       6.94106
_cell_length_b       9.13246
_cell_length_c       9.13246
_cell_angle_alpha    68.9407
_cell_angle_beta     90
_cell_angle_gamma    90

_space_group_name_H-M_alt    "P 1"
_space_group_IT_number       1

loop_
  _space_group_symop_operation_xyz
  'x, y, z'

loop_
  _atom_site_type_symbol
  _atom_site_label
  _atom_site_symmetry_multiplicity
  _atom_site_fract_x
  _atom_site_fract_y
  _atom_site_fract_z
  _atom_site_occupancy
  Cl  Cl1       1.0  0.40300  0.77000  0.00320  1.0000
  Cl  Cl2       1.0  0.40300  0.99700  0.23000  1.0000
  Cl  Cl3       1.0  0.90300  0.00320  0.77000  1.0000
  Cl  Cl4       1.0  0.90300  0.23000  0.99700  1.0000
  H   H1        1.0  0.02040  0.50800  0.49200  1.0000
  H   H2        1.0  0.52000  0.49200  0.50800  1.0000
  K   K1        1.0  0.77300  0.87900  0.12100  1.0000
  K   K2        1.0  0.59600  0.41800  0.13600  1.0000
  K   K3        1.0  0.09550  0.13600  0.41800  1.0000
  K   K4        1.0  0.59600  0.86400  0.58200  1.0000
  K   K5        1.0  0.09550  0.58200  0.86400  1.0000
  K   K6        1.0  0.27300  0.12100  0.87900  1.0000
  O   O1        1.0  0.91800  0.59800  0.14300  1.0000
  O   O2        1.0  0.20500  0.43400  0.18200  1.0000
  O   O3        1.0  0.91800  0.85700  0.40200  1.0000
  O   O4        1.0  0.02570  0.43300  0.40800  1.0000
  O   O5        1.0  0.52600  0.40800  0.43300  1.0000
  O   O6        1.0  0.70500  0.18200  0.43400  1.0000
  O   O7        1.0  0.20500  0.81800  0.56600  1.0000
  O   O8        1.0  0.02570  0.59200  0.56700  1.0000
  O   O9        1.0  0.52600  0.56700  0.59200  1.0000
  O   O10       1.0  0.41800  0.14300  0.59800  1.0000
  O   O11       1.0  0.70500  0.56600  0.81800  1.0000
  O   O12       1.0  0.41800  0.40200  0.85700  1.0000
  Pd  Pd1       1.0  0.25300  0.75300  0.24700  1.0000
  Pd  Pd2       1.0  0.75300  0.24700  0.75300  1.0000
  S   S1        1.0  0.09200  0.53700  0.24200  1.0000
  S   S2        1.0  0.09200  0.75800  0.46300  1.0000
  S   S3        1.0  0.59200  0.24200  0.53700  1.0000
  S   S4        1.0  0.59200  0.46300  0.75800  1.0000
