data_image0
_chemical_formula_structural       S8U4
_chemical_formula_sum              "S8 U4"
_cell_length_a       8.46975
_cell_length_b       7.05184
_cell_length_c       4.01903
_cell_angle_alpha    90
_cell_angle_beta     90
_cell_angle_gamma    90

_space_group_name_H-M_alt    "P 1"
_space_group_IT_number       1

loop_
  _space_group_symop_operation_xyz
  'x, y, z'

loop_
  _atom_site_type_symbol
  _atom_site_label
  _atom_site_symmetry_multiplicity
  _atom_site_fract_x
  _atom_site_fract_y
  _atom_site_fract_z
  _atom_site_occupancy
  S   S1        1.0  0.43100  0.36000  0.25000  1.0000
  S   S2        1.0  0.83300  0.46900  0.25000  1.0000
  S   S3        1.0  0.06950  0.86000  0.25000  1.0000
  S   S4        1.0  0.66700  0.96900  0.25000  1.0000
  S   S5        1.0  0.33300  0.03050  0.75000  1.0000
  S   S6        1.0  0.93100  0.14000  0.75000  1.0000
  S   S7        1.0  0.16700  0.53100  0.75000  1.0000
  S   S8        1.0  0.56900  0.64000  0.75000  1.0000
  U   U1        1.0  0.12400  0.25000  0.25000  1.0000
  U   U2        1.0  0.37600  0.75000  0.25000  1.0000
  U   U3        1.0  0.62400  0.25000  0.75000  1.0000
  U   U4        1.0  0.87600  0.75000  0.75000  1.0000
