data_image0
_chemical_formula_structural       Ba4Si2Te8
_chemical_formula_sum              "Ba4 Si2 Te8"
_cell_length_a       9.77191
_cell_length_b       7.67435
_cell_length_c       7.60427
_cell_angle_alpha    90
_cell_angle_beta     108.75
_cell_angle_gamma    90

_space_group_name_H-M_alt    "P 1"
_space_group_IT_number       1

loop_
  _space_group_symop_operation_xyz
  'x, y, z'

loop_
  _atom_site_type_symbol
  _atom_site_label
  _atom_site_symmetry_multiplicity
  _atom_site_fract_x
  _atom_site_fract_y
  _atom_site_fract_z
  _atom_site_occupancy
  Ba  Ba1       1.0  0.54900  0.25000  0.21800  1.0000
  Ba  Ba2       1.0  0.07460  0.25000  0.27600  1.0000
  Ba  Ba3       1.0  0.92500  0.75000  0.72400  1.0000
  Ba  Ba4       1.0  0.45100  0.75000  0.78200  1.0000
  Si  Si1       1.0  0.29200  0.75000  0.20900  1.0000
  Si  Si2       1.0  0.70800  0.25000  0.79100  1.0000
  Te  Te1       1.0  0.77000  0.50700  0.00848  1.0000
  Te  Te2       1.0  0.77000  0.99300  0.00848  1.0000
  Te  Te3       1.0  0.56200  0.75000  0.37200  1.0000
  Te  Te4       1.0  0.12900  0.75000  0.40800  1.0000
  Te  Te5       1.0  0.87100  0.25000  0.59200  1.0000
  Te  Te6       1.0  0.43800  0.25000  0.62800  1.0000
  Te  Te7       1.0  0.23000  0.00710  0.99200  1.0000
  Te  Te8       1.0  0.23000  0.49300  0.99200  1.0000
