data_image0
_chemical_formula_structural       Br6Cs2Cu4
_chemical_formula_sum              "Br6 Cs2 Cu4"
_cell_length_a       5.7212
_cell_length_b       8.0429
_cell_length_c       8.0429
_cell_angle_alpha    76.2883
_cell_angle_beta     90
_cell_angle_gamma    90

_space_group_name_H-M_alt    "P 1"
_space_group_IT_number       1

loop_
  _space_group_symop_operation_xyz
  'x, y, z'

loop_
  _atom_site_type_symbol
  _atom_site_label
  _atom_site_symmetry_multiplicity
  _atom_site_fract_x
  _atom_site_fract_y
  _atom_site_fract_z
  _atom_site_occupancy
  Br  Br1       1.0  0.25000  0.11700  0.11700  1.0000
  Br  Br2       1.0  0.25000  0.59900  0.16300  1.0000
  Br  Br3       1.0  0.75000  0.83700  0.40100  1.0000
  Br  Br4       1.0  0.25000  0.16300  0.59900  1.0000
  Br  Br5       1.0  0.75000  0.40100  0.83700  1.0000
  Br  Br6       1.0  0.75000  0.88300  0.88300  1.0000
  Cs  Cs1       1.0  0.75000  0.32200  0.32200  1.0000
  Cs  Cs2       1.0  0.25000  0.67800  0.67800  1.0000
  Cu  Cu1       1.0  0.00000  0.84700  0.15300  1.0000
  Cu  Cu2       1.0  0.50000  0.84700  0.15300  1.0000
  Cu  Cu3       1.0  0.00000  0.15300  0.84700  1.0000
  Cu  Cu4       1.0  0.50000  0.15300  0.84700  1.0000
