data_image0
_chemical_formula_structural       H16K4N8Zn2
_chemical_formula_sum              "H16 K4 N8 Zn2"
_cell_length_a       6.64283
_cell_length_b       7.35551
_cell_length_c       7.85291
_cell_angle_alpha    71.6832
_cell_angle_beta     83.8915
_cell_angle_gamma    63.9438

_space_group_name_H-M_alt    "P 1"
_space_group_IT_number       1

loop_
  _space_group_symop_operation_xyz
  'x, y, z'

loop_
  _atom_site_type_symbol
  _atom_site_label
  _atom_site_symmetry_multiplicity
  _atom_site_fract_x
  _atom_site_fract_y
  _atom_site_fract_z
  _atom_site_occupancy
  H   H1        1.0  0.49900  0.10800  0.04240  1.0000
  H   H2        1.0  0.28600  0.89600  0.07280  1.0000
  H   H3        1.0  0.10700  0.18300  0.08370  1.0000
  H   H4        1.0  0.10900  0.15400  0.29500  1.0000
  H   H5        1.0  0.11900  0.76400  0.35700  1.0000
  H   H6        1.0  0.46900  0.15000  0.46300  1.0000
  H   H7        1.0  0.31600  0.84500  0.46700  1.0000
  H   H8        1.0  0.91200  0.73700  0.46800  1.0000
  H   H9        1.0  0.08810  0.26300  0.53200  1.0000
  H   H10       1.0  0.68400  0.15500  0.53300  1.0000
  H   H11       1.0  0.53100  0.85000  0.53700  1.0000
  H   H12       1.0  0.88100  0.23600  0.64300  1.0000
  H   H13       1.0  0.89100  0.84600  0.70500  1.0000
  H   H14       1.0  0.89300  0.81700  0.91600  1.0000
  H   H15       1.0  0.71400  0.10400  0.92700  1.0000
  H   H16       1.0  0.50100  0.89200  0.95800  1.0000
  K   K1        1.0  0.25100  0.49700  0.13800  1.0000
  K   K2        1.0  0.69900  0.57000  0.31200  1.0000
  K   K3        1.0  0.30100  0.43000  0.68800  1.0000
  K   K4        1.0  0.74900  0.50300  0.86200  1.0000
  N   N1        1.0  0.60000  0.18700  0.00593  1.0000
  N   N2        1.0  0.00456  0.23600  0.18200  1.0000
  N   N3        1.0  0.96400  0.77200  0.33900  1.0000
  N   N4        1.0  0.57400  0.22400  0.42400  1.0000
  N   N5        1.0  0.42600  0.77600  0.57600  1.0000
  N   N6        1.0  0.03580  0.22800  0.66100  1.0000
  N   N7        1.0  0.99500  0.76400  0.81800  1.0000
  N   N8        1.0  0.40000  0.81300  0.99400  1.0000
  Zn  Zn1       1.0  0.78400  0.09650  0.23600  1.0000
  Zn  Zn2       1.0  0.21600  0.90400  0.76400  1.0000
