data_image0
_chemical_formula_structural       Fe4Ga4S10
_chemical_formula_sum              "Fe4 Ga4 S10"
_cell_length_a       3.58959
_cell_length_b       3.58964
_cell_length_c       30.213
_cell_angle_alpha    90
_cell_angle_beta     90
_cell_angle_gamma    120

_space_group_name_H-M_alt    "P 1"
_space_group_IT_number       1

loop_
  _space_group_symop_operation_xyz
  'x, y, z'

loop_
  _atom_site_type_symbol
  _atom_site_label
  _atom_site_symmetry_multiplicity
  _atom_site_fract_x
  _atom_site_fract_y
  _atom_site_fract_z
  _atom_site_occupancy
  Fe  Fe1       1.0  0.00001  0.00001  0.20300  1.0000
  Fe  Fe2       1.0  0.00001  0.00001  0.29700  1.0000
  Fe  Fe3       1.0  0.00000  0.00000  0.70300  1.0000
  Fe  Fe4       1.0  0.00000  0.00000  0.79700  1.0000
  Ga  Ga1       1.0  0.66700  0.33300  0.08780  1.0000
  Ga  Ga2       1.0  0.66700  0.33300  0.41200  1.0000
  Ga  Ga3       1.0  0.33300  0.66700  0.58800  1.0000
  Ga  Ga4       1.0  0.33300  0.66700  0.91200  1.0000
  S   S1        1.0  0.33300  0.66700  0.05250  1.0000
  S   S2        1.0  0.66700  0.33300  0.16200  1.0000
  S   S3        1.0  0.33300  0.66700  0.25000  1.0000
  S   S4        1.0  0.66700  0.33300  0.33800  1.0000
  S   S5        1.0  0.33300  0.66700  0.44700  1.0000
  S   S6        1.0  0.66700  0.33300  0.55300  1.0000
  S   S7        1.0  0.33300  0.66700  0.66200  1.0000
  S   S8        1.0  0.66700  0.33300  0.75000  1.0000
  S   S9        1.0  0.33300  0.66700  0.83800  1.0000
  S   S10       1.0  0.66700  0.33300  0.94700  1.0000
