data_image0
_chemical_formula_structural       Na8O6Sn2
_chemical_formula_sum              "Na8 O6 Sn2"
_cell_length_a       5.79059
_cell_length_b       5.85796
_cell_length_c       8.73917
_cell_angle_alpha    96.4715
_cell_angle_beta     70.6523
_cell_angle_gamma    109.889

_space_group_name_H-M_alt    "P 1"
_space_group_IT_number       1

loop_
  _space_group_symop_operation_xyz
  'x, y, z'

loop_
  _atom_site_type_symbol
  _atom_site_label
  _atom_site_symmetry_multiplicity
  _atom_site_fract_x
  _atom_site_fract_y
  _atom_site_fract_z
  _atom_site_occupancy
  Na  Na1       1.0  0.47700  0.24900  0.06810  1.0000
  Na  Na2       1.0  0.94900  0.72100  0.08840  1.0000
  Na  Na3       1.0  0.39600  0.69500  0.28700  1.0000
  Na  Na4       1.0  0.24300  0.25300  0.49200  1.0000
  Na  Na5       1.0  0.73500  0.75300  0.50800  1.0000
  Na  Na6       1.0  0.68300  0.19500  0.71300  1.0000
  Na  Na7       1.0  0.03690  0.22100  0.91200  1.0000
  Na  Na8       1.0  0.54500  0.74900  0.93200  1.0000
  O   O1        1.0  0.17400  0.46000  0.12600  1.0000
  O   O2        1.0  0.69000  0.00913  0.13400  1.0000
  O   O3        1.0  0.62800  0.47300  0.32400  1.0000
  O   O4        1.0  0.95200  0.97300  0.67600  1.0000
  O   O5        1.0  0.82300  0.50900  0.86600  1.0000
  O   O6        1.0  0.30000  0.96000  0.87400  1.0000
  Sn  Sn1       1.0  0.84600  0.24800  0.29000  1.0000
  Sn  Sn2       1.0  0.13600  0.74800  0.71000  1.0000
