data_image0
_chemical_formula_structural       Cs4S6Ti2
_chemical_formula_sum              "Cs4 S6 Ti2"
_cell_length_a       6.56475
_cell_length_b       7.81099
_cell_length_c       7.81099
_cell_angle_alpha    71.2576
_cell_angle_beta     90
_cell_angle_gamma    90

_space_group_name_H-M_alt    "P 1"
_space_group_IT_number       1

loop_
  _space_group_symop_operation_xyz
  'x, y, z'

loop_
  _atom_site_type_symbol
  _atom_site_label
  _atom_site_symmetry_multiplicity
  _atom_site_fract_x
  _atom_site_fract_y
  _atom_site_fract_z
  _atom_site_occupancy
  Cs  Cs1       1.0  0.74400  0.68300  0.00564  1.0000
  Cs  Cs2       1.0  0.74400  0.99400  0.31700  1.0000
  Cs  Cs3       1.0  0.24400  0.00564  0.68300  1.0000
  Cs  Cs4       1.0  0.24400  0.31700  0.99400  1.0000
  S   S1        1.0  0.24200  0.82400  0.17600  1.0000
  S   S2        1.0  0.49500  0.37300  0.37200  1.0000
  S   S3        1.0  0.99500  0.37200  0.37300  1.0000
  S   S4        1.0  0.49500  0.62800  0.62700  1.0000
  S   S5        1.0  0.99500  0.62700  0.62800  1.0000
  S   S6        1.0  0.74200  0.17600  0.82400  1.0000
  Ti  Ti1       1.0  0.24400  0.57800  0.42200  1.0000
  Ti  Ti2       1.0  0.74400  0.42200  0.57800  1.0000
