data_image0
_chemical_formula_structural       B2O6U
_chemical_formula_sum              "B2 O6 U1"
_cell_length_a       4.19708
_cell_length_b       5.51137
_cell_length_c       5.51456
_cell_angle_alpha    106.437
_cell_angle_beta     112.367
_cell_angle_gamma    90

_space_group_name_H-M_alt    "P 1"
_space_group_IT_number       1

loop_
  _space_group_symop_operation_xyz
  'x, y, z'

loop_
  _atom_site_type_symbol
  _atom_site_label
  _atom_site_symmetry_multiplicity
  _atom_site_fract_x
  _atom_site_fract_y
  _atom_site_fract_z
  _atom_site_occupancy
  B   B1        1.0  0.83900  0.39800  0.40000  1.0000
  B   B2        1.0  0.43900  0.60200  0.60000  1.0000
  O   O1        1.0  0.62500  0.20600  0.19100  1.0000
  O   O2        1.0  0.15500  0.81300  0.22900  1.0000
  O   O3        1.0  0.18400  0.40100  0.42800  1.0000
  O   O4        1.0  0.75600  0.59900  0.57200  1.0000
  O   O5        1.0  0.92600  0.18700  0.77100  1.0000
  O   O6        1.0  0.43400  0.79400  0.80900  1.0000
  U   U1        1.0  0.04320  0.00000  0.00000  1.0000
