data_image0
_chemical_formula_structural       Ba4Se8Si2
_chemical_formula_sum              "Ba4 Se8 Si2"
_cell_length_a       9.31888
_cell_length_b       7.0866
_cell_length_c       7.01018
_cell_angle_alpha    90
_cell_angle_beta     108.781
_cell_angle_gamma    90

_space_group_name_H-M_alt    "P 1"
_space_group_IT_number       1

loop_
  _space_group_symop_operation_xyz
  'x, y, z'

loop_
  _atom_site_type_symbol
  _atom_site_label
  _atom_site_symmetry_multiplicity
  _atom_site_fract_x
  _atom_site_fract_y
  _atom_site_fract_z
  _atom_site_occupancy
  Ba  Ba1       1.0  0.54300  0.25000  0.21200  1.0000
  Ba  Ba2       1.0  0.07700  0.25000  0.28700  1.0000
  Ba  Ba3       1.0  0.92300  0.75000  0.71300  1.0000
  Ba  Ba4       1.0  0.45700  0.75000  0.78800  1.0000
  Se  Se1       1.0  0.77500  0.50500  0.00775  1.0000
  Se  Se2       1.0  0.77500  0.99500  0.00775  1.0000
  Se  Se3       1.0  0.54500  0.75000  0.35400  1.0000
  Se  Se4       1.0  0.14200  0.75000  0.41200  1.0000
  Se  Se5       1.0  0.85800  0.25000  0.58800  1.0000
  Se  Se6       1.0  0.45500  0.25000  0.64600  1.0000
  Se  Se7       1.0  0.22500  0.00473  0.99200  1.0000
  Se  Se8       1.0  0.22500  0.49500  0.99200  1.0000
  Si  Si1       1.0  0.28600  0.75000  0.20200  1.0000
  Si  Si2       1.0  0.71400  0.25000  0.79800  1.0000
