data_image0
_chemical_formula_structural       C2Na2Pt
_chemical_formula_sum              "C2 Na2 Pt1"
_cell_length_a       4.50297
_cell_length_b       4.50297
_cell_length_c       5.22578
_cell_angle_alpha    90
_cell_angle_beta     90
_cell_angle_gamma    120

_space_group_name_H-M_alt    "P 1"
_space_group_IT_number       1

loop_
  _space_group_symop_operation_xyz
  'x, y, z'

loop_
  _atom_site_type_symbol
  _atom_site_label
  _atom_site_symmetry_multiplicity
  _atom_site_fract_x
  _atom_site_fract_y
  _atom_site_fract_z
  _atom_site_occupancy
  C   C1        1.0  0.00000  0.00000  0.37800  1.0000
  C   C2        1.0  0.00000  0.00000  0.62200  1.0000
  Na  Na1       1.0  0.33300  0.66700  0.27200  1.0000
  Na  Na2       1.0  0.66700  0.33300  0.72800  1.0000
  Pt  Pt1       1.0  0.00000  0.00000  0.00000  1.0000
