data_image0
_chemical_formula_structural       Ag4Cs4O4
_chemical_formula_sum              "Ag4 Cs4 O4"
_cell_length_a       6.17399
_cell_length_b       7.88636
_cell_length_c       7.88636
_cell_angle_alpha    98.8137
_cell_angle_beta     66.9562
_cell_angle_gamma    113.044

_space_group_name_H-M_alt    "P 1"
_space_group_IT_number       1

loop_
  _space_group_symop_operation_xyz
  'x, y, z'

loop_
  _atom_site_type_symbol
  _atom_site_label
  _atom_site_symmetry_multiplicity
  _atom_site_fract_x
  _atom_site_fract_y
  _atom_site_fract_z
  _atom_site_occupancy
  Ag  Ag1       1.0  0.14300  0.28600  0.00000  1.0000
  Ag  Ag2       1.0  0.85700  0.71400  0.00000  1.0000
  Ag  Ag3       1.0  0.85700  0.00000  0.28600  1.0000
  Ag  Ag4       1.0  0.14300  0.00000  0.71400  1.0000
  Cs  Cs1       1.0  0.19600  0.69600  0.30400  1.0000
  Cs  Cs2       1.0  0.50000  0.30400  0.30400  1.0000
  Cs  Cs3       1.0  0.50000  0.69600  0.69600  1.0000
  Cs  Cs4       1.0  0.80400  0.30400  0.69600  1.0000
  O   O1        1.0  0.71400  0.71400  0.28600  1.0000
  O   O2        1.0  0.00000  0.28600  0.28600  1.0000
  O   O3        1.0  0.28600  0.28600  0.71400  1.0000
  O   O4        1.0  0.00000  0.71400  0.71400  1.0000
