data_image0
_chemical_formula_structural       Ba2F8Mg2
_chemical_formula_sum              "Ba2 F8 Mg2"
_cell_length_a       7.15243
_cell_length_b       4.06631
_cell_length_c       5.63154
_cell_angle_alpha    90
_cell_angle_beta     90
_cell_angle_gamma    106.515

_space_group_name_H-M_alt    "P 1"
_space_group_IT_number       1

loop_
  _space_group_symop_operation_xyz
  'x, y, z'

loop_
  _atom_site_type_symbol
  _atom_site_label
  _atom_site_symmetry_multiplicity
  _atom_site_fract_x
  _atom_site_fract_y
  _atom_site_fract_z
  _atom_site_occupancy
  Ba  Ba1       1.0  0.27200  0.13600  0.25000  1.0000
  Ba  Ba2       1.0  0.72800  0.86400  0.75000  1.0000
  F   F1        1.0  0.00000  0.50000  0.00000  1.0000
  F   F2        1.0  0.61800  0.30900  0.00602  1.0000
  F   F3        1.0  0.83300  0.91600  0.25000  1.0000
  F   F4        1.0  0.61800  0.30900  0.49400  1.0000
  F   F5        1.0  0.00000  0.50000  0.50000  1.0000
  F   F6        1.0  0.38200  0.69100  0.50600  1.0000
  F   F7        1.0  0.16700  0.08370  0.75000  1.0000
  F   F8        1.0  0.38200  0.69100  0.99400  1.0000
  Mg  Mg1       1.0  0.80900  0.40400  0.25000  1.0000
  Mg  Mg2       1.0  0.19100  0.59600  0.75000  1.0000
