data_image0
_chemical_formula_structural       Cl4Cs2Yb
_chemical_formula_sum              "Cl4 Cs2 Yb1"
_cell_length_a       5.37761
_cell_length_b       5.37761
_cell_length_c       9.4188
_cell_angle_alpha    106.587
_cell_angle_beta     106.587
_cell_angle_gamma    90

_space_group_name_H-M_alt    "P 1"
_space_group_IT_number       1

loop_
  _space_group_symop_operation_xyz
  'x, y, z'

loop_
  _atom_site_type_symbol
  _atom_site_label
  _atom_site_symmetry_multiplicity
  _atom_site_fract_x
  _atom_site_fract_y
  _atom_site_fract_z
  _atom_site_occupancy
  Cl  Cl1       1.0  0.50000  0.00000  0.00000  1.0000
  Cl  Cl2       1.0  0.00000  0.50000  0.00000  1.0000
  Cl  Cl3       1.0  0.15700  0.15700  0.31300  1.0000
  Cl  Cl4       1.0  0.84300  0.84300  0.68700  1.0000
  Cs  Cs1       1.0  0.64400  0.64400  0.28800  1.0000
  Cs  Cs2       1.0  0.35600  0.35600  0.71200  1.0000
  Yb  Yb1       1.0  0.00000  0.00000  0.00000  1.0000
