data_image0
_chemical_formula_structural       Ag4Na4O4
_chemical_formula_sum              "Ag4 Na4 O4"
_cell_length_a       4.60031
_cell_length_b       7.09
_cell_length_c       7.09
_cell_angle_alpha    96.0416
_cell_angle_beta     71.0694
_cell_angle_gamma    108.931

_space_group_name_H-M_alt    "P 1"
_space_group_IT_number       1

loop_
  _space_group_symop_operation_xyz
  'x, y, z'

loop_
  _atom_site_type_symbol
  _atom_site_label
  _atom_site_symmetry_multiplicity
  _atom_site_fract_x
  _atom_site_fract_y
  _atom_site_fract_z
  _atom_site_occupancy
  Ag  Ag1       1.0  0.15900  0.31700  0.00000  1.0000
  Ag  Ag2       1.0  0.84100  0.68300  0.00000  1.0000
  Ag  Ag3       1.0  0.84100  0.00000  0.31700  1.0000
  Ag  Ag4       1.0  0.15900  0.00000  0.68300  1.0000
  Na  Na1       1.0  0.50000  0.33900  0.33900  1.0000
  Na  Na2       1.0  0.16100  0.66100  0.33900  1.0000
  Na  Na3       1.0  0.83900  0.33900  0.66100  1.0000
  Na  Na4       1.0  0.50000  0.66100  0.66100  1.0000
  O   O1        1.0  0.00000  0.31100  0.31100  1.0000
  O   O2        1.0  0.68900  0.68900  0.31100  1.0000
  O   O3        1.0  0.31100  0.31100  0.68900  1.0000
  O   O4        1.0  0.00000  0.68900  0.68900  1.0000
