data_image0
_chemical_formula_structural       Nb4Ni4P4
_chemical_formula_sum              "Nb4 Ni4 P4"
_cell_length_a       6.12249
_cell_length_b       3.59106
_cell_length_c       7.11598
_cell_angle_alpha    90
_cell_angle_beta     90
_cell_angle_gamma    90

_space_group_name_H-M_alt    "P 1"
_space_group_IT_number       1

loop_
  _space_group_symop_operation_xyz
  'x, y, z'

loop_
  _atom_site_type_symbol
  _atom_site_label
  _atom_site_symmetry_multiplicity
  _atom_site_fract_x
  _atom_site_fract_y
  _atom_site_fract_z
  _atom_site_occupancy
  Nb  Nb1       1.0  0.02280  0.25000  0.16700  1.0000
  Nb  Nb2       1.0  0.52300  0.25000  0.33300  1.0000
  Nb  Nb3       1.0  0.47700  0.75000  0.66700  1.0000
  Nb  Nb4       1.0  0.97700  0.75000  0.83300  1.0000
  Ni  Ni1       1.0  0.35200  0.75000  0.06610  1.0000
  Ni  Ni2       1.0  0.85200  0.75000  0.43400  1.0000
  Ni  Ni3       1.0  0.14800  0.25000  0.56600  1.0000
  Ni  Ni4       1.0  0.64800  0.25000  0.93400  1.0000
  P   P1        1.0  0.71900  0.75000  0.12300  1.0000
  P   P2        1.0  0.21900  0.75000  0.37700  1.0000
  P   P3        1.0  0.78100  0.25000  0.62300  1.0000
  P   P4        1.0  0.28100  0.25000  0.87700  1.0000
