data_image0
_chemical_formula_structural       H12O10Sr2Zn2
_chemical_formula_sum              "H12 O10 Sr2 Zn2"
_cell_length_a       6.12922
_cell_length_b       6.19901
_cell_length_c       7.62496
_cell_angle_alpha    90.9606
_cell_angle_beta     113.242
_cell_angle_gamma    108.621

_space_group_name_H-M_alt    "P 1"
_space_group_IT_number       1

loop_
  _space_group_symop_operation_xyz
  'x, y, z'

loop_
  _atom_site_type_symbol
  _atom_site_label
  _atom_site_symmetry_multiplicity
  _atom_site_fract_x
  _atom_site_fract_y
  _atom_site_fract_z
  _atom_site_occupancy
  H   H1        1.0  0.12700  0.37900  0.04820  1.0000
  H   H2        1.0  0.81400  0.04220  0.06640  1.0000
  H   H3        1.0  0.18700  0.05790  0.18400  1.0000
  H   H4        1.0  0.83900  0.97900  0.28200  1.0000
  H   H5        1.0  0.11600  0.81100  0.42900  1.0000
  H   H6        1.0  0.19300  0.18900  0.46500  1.0000
  H   H7        1.0  0.80700  0.81100  0.53500  1.0000
  H   H8        1.0  0.88400  0.18900  0.57100  1.0000
  H   H9        1.0  0.16100  0.02070  0.71800  1.0000
  H   H10       1.0  0.81300  0.94200  0.81600  1.0000
  H   H11       1.0  0.18600  0.95800  0.93400  1.0000
  H   H12       1.0  0.87300  0.62100  0.95200  1.0000
  O   O1        1.0  0.28400  0.50000  0.06440  1.0000
  O   O2        1.0  0.31600  0.02560  0.15200  1.0000
  O   O3        1.0  0.91000  0.10500  0.21400  1.0000
  O   O4        1.0  0.72500  0.78800  0.39300  1.0000
  O   O5        1.0  0.16200  0.67600  0.41500  1.0000
  O   O6        1.0  0.83800  0.32400  0.58500  1.0000
  O   O7        1.0  0.27500  0.21200  0.60700  1.0000
  O   O8        1.0  0.09030  0.89500  0.78600  1.0000
  O   O9        1.0  0.68400  0.97400  0.84800  1.0000
  O   O10       1.0  0.71600  0.50000  0.93600  1.0000
  Sr  Sr1       1.0  0.69100  0.40200  0.24400  1.0000
  Sr  Sr2       1.0  0.30900  0.59800  0.75600  1.0000
  Zn  Zn1       1.0  0.36500  0.75300  0.26900  1.0000
  Zn  Zn2       1.0  0.63500  0.24700  0.73100  1.0000
