data_image0
_chemical_formula_structural       Br6H12MgO6Zn2
_chemical_formula_sum              "Br6 H12 Mg1 O6 Zn2"
_cell_length_a       7.78422
_cell_length_b       8.23898
_cell_length_c       8.23898
_cell_angle_alpha    104.865
_cell_angle_beta     61.8097
_cell_angle_gamma    118.19

_space_group_name_H-M_alt    "P 1"
_space_group_IT_number       1

loop_
  _space_group_symop_operation_xyz
  'x, y, z'

loop_
  _atom_site_type_symbol
  _atom_site_label
  _atom_site_symmetry_multiplicity
  _atom_site_fract_x
  _atom_site_fract_y
  _atom_site_fract_z
  _atom_site_occupancy
  Br  Br1       1.0  0.29400  0.60300  0.01420  1.0000
  Br  Br2       1.0  0.29400  0.98600  0.39700  1.0000
  Br  Br3       1.0  0.24000  0.50000  0.50000  1.0000
  Br  Br4       1.0  0.76000  0.50000  0.50000  1.0000
  Br  Br5       1.0  0.70600  0.01420  0.60300  1.0000
  Br  Br6       1.0  0.70600  0.39700  0.98600  1.0000
  H   H1        1.0  0.33200  0.24000  0.09230  1.0000
  H   H2        1.0  0.81600  0.24000  0.09230  1.0000
  H   H3        1.0  0.75100  0.67000  0.16900  1.0000
  H   H4        1.0  0.18400  0.09230  0.24000  1.0000
  H   H5        1.0  0.66800  0.09230  0.24000  1.0000
  H   H6        1.0  0.75100  0.83100  0.33000  1.0000
  H   H7        1.0  0.24900  0.16900  0.67000  1.0000
  H   H8        1.0  0.33200  0.90800  0.76000  1.0000
  H   H9        1.0  0.81600  0.90800  0.76000  1.0000
  H   H10       1.0  0.24900  0.33000  0.83100  1.0000
  H   H11       1.0  0.18400  0.76000  0.90800  1.0000
  H   H12       1.0  0.66800  0.76000  0.90800  1.0000
  Mg  Mg1       1.0  0.00000  0.00000  0.00000  1.0000
  O   O1        1.0  0.18300  0.15000  0.15000  1.0000
  O   O2        1.0  0.81700  0.15000  0.15000  1.0000
  O   O3        1.0  0.80400  0.80400  0.19600  1.0000
  O   O4        1.0  0.19600  0.19600  0.80400  1.0000
  O   O5        1.0  0.18300  0.85000  0.85000  1.0000
  O   O6        1.0  0.81700  0.85000  0.85000  1.0000
  Zn  Zn1       1.0  0.15600  0.65600  0.34400  1.0000
  Zn  Zn2       1.0  0.84400  0.34400  0.65600  1.0000
