data_image0
_chemical_formula_structural       B2F8H6N2
_chemical_formula_sum              "B2 F8 H6 N2"
_cell_length_a       5.02526
_cell_length_b       4.92401
_cell_length_c       6.23721
_cell_angle_alpha    104.685
_cell_angle_beta     108.89
_cell_angle_gamma    94.9954

_space_group_name_H-M_alt    "P 1"
_space_group_IT_number       1

loop_
  _space_group_symop_operation_xyz
  'x, y, z'

loop_
  _atom_site_type_symbol
  _atom_site_label
  _atom_site_symmetry_multiplicity
  _atom_site_fract_x
  _atom_site_fract_y
  _atom_site_fract_z
  _atom_site_occupancy
  B   B1        1.0  0.65400  0.74500  0.32800  1.0000
  B   B2        1.0  0.34600  0.25500  0.67200  1.0000
  F   F1        1.0  0.60700  0.94800  0.20100  1.0000
  F   F2        1.0  0.82700  0.56500  0.25000  1.0000
  F   F3        1.0  0.38300  0.58200  0.28100  1.0000
  F   F4        1.0  0.21900  0.11600  0.43100  1.0000
  F   F5        1.0  0.78100  0.88400  0.56900  1.0000
  F   F6        1.0  0.61700  0.41800  0.71900  1.0000
  F   F7        1.0  0.17300  0.43500  0.75000  1.0000
  F   F8        1.0  0.39300  0.05170  0.79900  1.0000
  H   H1        1.0  0.80800  0.14800  0.08890  1.0000
  H   H2        1.0  0.15000  0.28800  0.13800  1.0000
  H   H3        1.0  0.10000  0.81800  0.14400  1.0000
  H   H4        1.0  0.90000  0.18200  0.85600  1.0000
  H   H5        1.0  0.85000  0.71200  0.86200  1.0000
  H   H6        1.0  0.19200  0.85200  0.91100  1.0000
  N   N1        1.0  0.96800  0.14000  0.01820  1.0000
  N   N2        1.0  0.03190  0.86000  0.98200  1.0000
