data_image0
_chemical_formula_structural       N3O6Tl3
_chemical_formula_sum              "N3 O6 Tl3"
_cell_length_a       5.46532
_cell_length_b       5.46532
_cell_length_c       7.28336
_cell_angle_alpha    90
_cell_angle_beta     90
_cell_angle_gamma    120

_space_group_name_H-M_alt    "P 1"
_space_group_IT_number       1

loop_
  _space_group_symop_operation_xyz
  'x, y, z'

loop_
  _atom_site_type_symbol
  _atom_site_label
  _atom_site_symmetry_multiplicity
  _atom_site_fract_x
  _atom_site_fract_y
  _atom_site_fract_z
  _atom_site_occupancy
  N   N1        1.0  0.00000  0.69400  0.16700  1.0000
  N   N2        1.0  0.30600  0.30600  0.50000  1.0000
  N   N3        1.0  0.69400  0.00000  0.83300  1.0000
  O   O1        1.0  0.87500  0.50600  0.04440  1.0000
  O   O2        1.0  0.12500  0.63100  0.28900  1.0000
  O   O3        1.0  0.49400  0.36900  0.37800  1.0000
  O   O4        1.0  0.36900  0.49400  0.62200  1.0000
  O   O5        1.0  0.63100  0.12500  0.71100  1.0000
  O   O6        1.0  0.50600  0.87500  0.95600  1.0000
  Tl  Tl1       1.0  0.29000  0.29000  0.00000  1.0000
  Tl  Tl2       1.0  0.71000  0.00000  0.33300  1.0000
  Tl  Tl3       1.0  0.00000  0.71000  0.66700  1.0000
