data_image0
_chemical_formula_structural       Cl2F8N2O2
_chemical_formula_sum              "Cl2 F8 N2 O2"
_cell_length_a       5.77086
_cell_length_b       5.77086
_cell_length_c       6.45298
_cell_angle_alpha    116.561
_cell_angle_beta     116.561
_cell_angle_gamma    90

_space_group_name_H-M_alt    "P 1"
_space_group_IT_number       1

loop_
  _space_group_symop_operation_xyz
  'x, y, z'

loop_
  _atom_site_type_symbol
  _atom_site_label
  _atom_site_symmetry_multiplicity
  _atom_site_fract_x
  _atom_site_fract_y
  _atom_site_fract_z
  _atom_site_occupancy
  Cl  Cl1       1.0  0.50200  0.00209  0.00419  1.0000
  Cl  Cl2       1.0  0.00209  0.50200  0.00419  1.0000
  F   F1        1.0  0.47200  0.27600  0.24700  1.0000
  F   F2        1.0  0.97200  0.47200  0.24700  1.0000
  F   F3        1.0  0.27600  0.77600  0.24700  1.0000
  F   F4        1.0  0.77600  0.97200  0.24700  1.0000
  F   F5        1.0  0.20700  0.03380  0.74000  1.0000
  F   F6        1.0  0.70700  0.20700  0.74000  1.0000
  F   F7        1.0  0.03380  0.53400  0.74000  1.0000
  F   F8        1.0  0.53400  0.70700  0.74000  1.0000
  N   N1        1.0  0.33100  0.33100  0.66200  1.0000
  N   N2        1.0  0.83100  0.83100  0.66200  1.0000
  O   O1        1.0  0.22000  0.22000  0.44000  1.0000
  O   O2        1.0  0.72000  0.72000  0.44000  1.0000
