data_image0
_chemical_formula_structural       F18Mg6Rb6
_chemical_formula_sum              "F18 Mg6 Rb6"
_cell_length_a       5.75113
_cell_length_b       5.75113
_cell_length_c       14.0506
_cell_angle_alpha    90
_cell_angle_beta     90
_cell_angle_gamma    120

_space_group_name_H-M_alt    "P 1"
_space_group_IT_number       1

loop_
  _space_group_symop_operation_xyz
  'x, y, z'

loop_
  _atom_site_type_symbol
  _atom_site_label
  _atom_site_symmetry_multiplicity
  _atom_site_fract_x
  _atom_site_fract_y
  _atom_site_fract_z
  _atom_site_occupancy
  F   F1        1.0  0.33200  0.16600  0.07980  1.0000
  F   F2        1.0  0.83400  0.16600  0.07980  1.0000
  F   F3        1.0  0.83400  0.66800  0.07980  1.0000
  F   F4        1.0  0.51800  0.03570  0.25000  1.0000
  F   F5        1.0  0.51800  0.48200  0.25000  1.0000
  F   F6        1.0  0.96400  0.48200  0.25000  1.0000
  F   F7        1.0  0.83400  0.66800  0.42000  1.0000
  F   F8        1.0  0.33200  0.16600  0.42000  1.0000
  F   F9        1.0  0.83400  0.16600  0.42000  1.0000
  F   F10       1.0  0.16600  0.83400  0.58000  1.0000
  F   F11       1.0  0.66800  0.83400  0.58000  1.0000
  F   F12       1.0  0.16600  0.33200  0.58000  1.0000
  F   F13       1.0  0.03570  0.51800  0.75000  1.0000
  F   F14       1.0  0.48200  0.51800  0.75000  1.0000
  F   F15       1.0  0.48200  0.96400  0.75000  1.0000
  F   F16       1.0  0.16600  0.33200  0.92000  1.0000
  F   F17       1.0  0.16600  0.83400  0.92000  1.0000
  F   F18       1.0  0.66800  0.83400  0.92000  1.0000
  Mg  Mg1       1.0  0.00000  0.00000  0.00000  1.0000
  Mg  Mg2       1.0  0.66700  0.33300  0.15300  1.0000
  Mg  Mg3       1.0  0.66700  0.33300  0.34700  1.0000
  Mg  Mg4       1.0  0.00000  0.00000  0.50000  1.0000
  Mg  Mg5       1.0  0.33300  0.66700  0.65300  1.0000
  Mg  Mg6       1.0  0.33300  0.66700  0.84700  1.0000
  Rb  Rb1       1.0  0.33300  0.66700  0.09710  1.0000
  Rb  Rb2       1.0  0.00000  0.00000  0.25000  1.0000
  Rb  Rb3       1.0  0.33300  0.66700  0.40300  1.0000
  Rb  Rb4       1.0  0.66700  0.33300  0.59700  1.0000
  Rb  Rb5       1.0  0.00000  0.00000  0.75000  1.0000
  Rb  Rb6       1.0  0.66700  0.33300  0.90300  1.0000
