data_image0
_chemical_formula_structural       Ag2BaS2
_chemical_formula_sum              "Ag2 Ba1 S2"
_cell_length_a       4.42327
_cell_length_b       4.42329
_cell_length_c       7.26151
_cell_angle_alpha    90
_cell_angle_beta     90.0006
_cell_angle_gamma    120

_space_group_name_H-M_alt    "P 1"
_space_group_IT_number       1

loop_
  _space_group_symop_operation_xyz
  'x, y, z'

loop_
  _atom_site_type_symbol
  _atom_site_label
  _atom_site_symmetry_multiplicity
  _atom_site_fract_x
  _atom_site_fract_y
  _atom_site_fract_z
  _atom_site_occupancy
  Ag  Ag1       1.0  0.66700  0.33300  0.37700  1.0000
  Ag  Ag2       1.0  0.33300  0.66700  0.62300  1.0000
  Ba  Ba1       1.0  0.00000  0.00000  0.00000  1.0000
  S   S1        1.0  0.33300  0.66700  0.25300  1.0000
  S   S2        1.0  0.66700  0.33300  0.74700  1.0000
