data_image0
_chemical_formula_structural       Cu4Nd4S8
_chemical_formula_sum              "Cu4 Nd4 S8"
_cell_length_a       6.52486
_cell_length_b       7.19577
_cell_length_c       6.82782
_cell_angle_alpha    90
_cell_angle_beta     97.8855
_cell_angle_gamma    90

_space_group_name_H-M_alt    "P 1"
_space_group_IT_number       1

loop_
  _space_group_symop_operation_xyz
  'x, y, z'

loop_
  _atom_site_type_symbol
  _atom_site_label
  _atom_site_symmetry_multiplicity
  _atom_site_fract_x
  _atom_site_fract_y
  _atom_site_fract_z
  _atom_site_occupancy
  Cu  Cu1       1.0  0.08000  0.15900  0.05630  1.0000
  Cu  Cu2       1.0  0.92000  0.65900  0.44400  1.0000
  Cu  Cu3       1.0  0.08000  0.34100  0.55600  1.0000
  Cu  Cu4       1.0  0.92000  0.84100  0.94400  1.0000
  Nd  Nd1       1.0  0.30800  0.55000  0.19900  1.0000
  Nd  Nd2       1.0  0.69200  0.05040  0.30100  1.0000
  Nd  Nd3       1.0  0.30800  0.95000  0.69900  1.0000
  Nd  Nd4       1.0  0.69200  0.45000  0.80100  1.0000
  S   S1        1.0  0.58400  0.77400  0.99900  1.0000
  S   S2        1.0  0.41600  0.22600  0.00089  1.0000
  S   S3        1.0  0.91100  0.38500  0.22200  1.0000
  S   S4        1.0  0.08890  0.88500  0.27800  1.0000
  S   S5        1.0  0.58400  0.72600  0.49900  1.0000
  S   S6        1.0  0.41600  0.27400  0.50100  1.0000
  S   S7        1.0  0.91100  0.11500  0.72200  1.0000
  S   S8        1.0  0.08890  0.61500  0.77800  1.0000
