data_image0
_chemical_formula_structural       C2Re4Si2Tb2
_chemical_formula_sum              "C2 Re4 Si2 Tb2"
_cell_length_a       3.96439
_cell_length_b       5.80412
_cell_length_c       7.27983
_cell_angle_alpha    90
_cell_angle_beta     90
_cell_angle_gamma    70.0308

_space_group_name_H-M_alt    "P 1"
_space_group_IT_number       1

loop_
  _space_group_symop_operation_xyz
  'x, y, z'

loop_
  _atom_site_type_symbol
  _atom_site_label
  _atom_site_symmetry_multiplicity
  _atom_site_fract_x
  _atom_site_fract_y
  _atom_site_fract_z
  _atom_site_occupancy
  C   C1        1.0  0.50000  0.00000  0.00000  1.0000
  C   C2        1.0  0.50000  0.00000  0.50000  1.0000
  Re  Re1       1.0  0.67400  0.65200  0.06170  1.0000
  Re  Re2       1.0  0.67400  0.65200  0.43800  1.0000
  Re  Re3       1.0  0.32600  0.34800  0.56200  1.0000
  Re  Re4       1.0  0.32600  0.34800  0.93800  1.0000
  Si  Si1       1.0  0.23400  0.53100  0.25000  1.0000
  Si  Si2       1.0  0.76600  0.46900  0.75000  1.0000
  Tb  Tb1       1.0  0.95700  0.08550  0.25000  1.0000
  Tb  Tb2       1.0  0.04270  0.91500  0.75000  1.0000
