data_image0
_chemical_formula_structural       AgF6Ti
_chemical_formula_sum              "Ag1 F6 Ti1"
_cell_length_a       4.88862
_cell_length_b       4.89088
_cell_length_c       5.37672
_cell_angle_alpha    116.233
_cell_angle_beta     90.3841
_cell_angle_gamma    118.508

_space_group_name_H-M_alt    "P 1"
_space_group_IT_number       1

loop_
  _space_group_symop_operation_xyz
  'x, y, z'

loop_
  _atom_site_type_symbol
  _atom_site_label
  _atom_site_symmetry_multiplicity
  _atom_site_fract_x
  _atom_site_fract_y
  _atom_site_fract_z
  _atom_site_occupancy
  Ag  Ag1       1.0  0.00000  0.00000  0.00000  1.0000
  F   F1        1.0  0.09550  0.81400  0.25800  1.0000
  F   F2        1.0  0.72500  0.17700  0.26700  1.0000
  F   F3        1.0  0.47100  0.56700  0.27600  1.0000
  F   F4        1.0  0.52900  0.43300  0.72400  1.0000
  F   F5        1.0  0.27500  0.82300  0.73300  1.0000
  F   F6        1.0  0.90400  0.18600  0.74200  1.0000
  Ti  Ti1       1.0  0.50000  0.00000  0.50000  1.0000
