data_image0
_chemical_formula_structural       B6Li4O26Yb10
_chemical_formula_sum              "B6 Li4 O26 Yb10"
_cell_length_a       10.1621
_cell_length_b       3.39045
_cell_length_c       15.4316
_cell_angle_alpha    90
_cell_angle_beta     107.799
_cell_angle_gamma    90

_space_group_name_H-M_alt    "P 1"
_space_group_IT_number       1

loop_
  _space_group_symop_operation_xyz
  'x, y, z'

loop_
  _atom_site_type_symbol
  _atom_site_label
  _atom_site_symmetry_multiplicity
  _atom_site_fract_x
  _atom_site_fract_y
  _atom_site_fract_z
  _atom_site_occupancy
  B   B1        1.0  0.09290  0.75000  0.82400  1.0000
  B   B2        1.0  0.90700  0.25000  0.17600  1.0000
  B   B3        1.0  0.79400  0.75000  0.42300  1.0000
  B   B4        1.0  0.20600  0.25000  0.57700  1.0000
  B   B5        1.0  0.56600  0.75000  0.88400  1.0000
  B   B6        1.0  0.43400  0.25000  0.11600  1.0000
  Li  Li1       1.0  0.72400  0.75000  0.21900  1.0000
  Li  Li2       1.0  0.27600  0.25000  0.78100  1.0000
  Li  Li3       1.0  0.38700  0.75000  0.95500  1.0000
  Li  Li4       1.0  0.61300  0.25000  0.04450  1.0000
  O   O1        1.0  0.51800  0.75000  0.56600  1.0000
  O   O2        1.0  0.48200  0.25000  0.43400  1.0000
  O   O3        1.0  0.40800  0.75000  0.31900  1.0000
  O   O4        1.0  0.59200  0.25000  0.68100  1.0000
  O   O5        1.0  0.13900  0.75000  0.33400  1.0000
  O   O6        1.0  0.86100  0.25000  0.66600  1.0000
  O   O7        1.0  0.07200  0.75000  0.06450  1.0000
  O   O8        1.0  0.92800  0.25000  0.93500  1.0000
  O   O9        1.0  0.60500  0.75000  0.97700  1.0000
  O   O10       1.0  0.39500  0.25000  0.02270  1.0000
  O   O11       1.0  0.66700  0.75000  0.84000  1.0000
  O   O12       1.0  0.33300  0.25000  0.16000  1.0000
  O   O13       1.0  0.42700  0.75000  0.83700  1.0000
  O   O14       1.0  0.57300  0.25000  0.16300  1.0000
  O   O15       1.0  0.93100  0.75000  0.43100  1.0000
  O   O16       1.0  0.06900  0.25000  0.56900  1.0000
  O   O17       1.0  0.75900  0.75000  0.50200  1.0000
  O   O18       1.0  0.24100  0.25000  0.49800  1.0000
  O   O19       1.0  0.69700  0.75000  0.34000  1.0000
  O   O20       1.0  0.30300  0.25000  0.66000  1.0000
  O   O21       1.0  0.17900  0.75000  0.91100  1.0000
  O   O22       1.0  0.82100  0.25000  0.08890  1.0000
  O   O23       1.0  0.14500  0.75000  0.75300  1.0000
  O   O24       1.0  0.85500  0.25000  0.24700  1.0000
  O   O25       1.0  0.95100  0.75000  0.80600  1.0000
  O   O26       1.0  0.04880  0.25000  0.19400  1.0000
  Yb  Yb1       1.0  0.20600  0.75000  0.20800  1.0000
  Yb  Yb2       1.0  0.79400  0.25000  0.79200  1.0000
  Yb  Yb3       1.0  0.33700  0.75000  0.44200  1.0000
  Yb  Yb4       1.0  0.66300  0.25000  0.55800  1.0000
  Yb  Yb5       1.0  0.84200  0.75000  0.99500  1.0000
  Yb  Yb6       1.0  0.15800  0.25000  0.00546  1.0000
  Yb  Yb7       1.0  0.46000  0.75000  0.69800  1.0000
  Yb  Yb8       1.0  0.54000  0.25000  0.30200  1.0000
  Yb  Yb9       1.0  0.97000  0.75000  0.62200  1.0000
  Yb  Yb10      1.0  0.03010  0.25000  0.37800  1.0000
