data_image0
_chemical_formula_structural       Al3Li8Si5
_chemical_formula_sum              "Al3 Li8 Si5"
_cell_length_a       6.16195
_cell_length_b       6.16195
_cell_length_c       6.16195
_cell_angle_alpha    90
_cell_angle_beta     90
_cell_angle_gamma    90

_space_group_name_H-M_alt    "P 1"
_space_group_IT_number       1

loop_
  _space_group_symop_operation_xyz
  'x, y, z'

loop_
  _atom_site_type_symbol
  _atom_site_label
  _atom_site_symmetry_multiplicity
  _atom_site_fract_x
  _atom_site_fract_y
  _atom_site_fract_z
  _atom_site_occupancy
  Al  Al1       1.0  0.50000  0.00000  0.00000  1.0000
  Al  Al2       1.0  0.00000  0.50000  0.00000  1.0000
  Al  Al3       1.0  0.00000  0.00000  0.50000  1.0000
  Li  Li1       1.0  0.00000  0.00000  0.00000  1.0000
  Li  Li2       1.0  0.50000  0.50000  0.00000  1.0000
  Li  Li3       1.0  0.74300  0.25700  0.25700  1.0000
  Li  Li4       1.0  0.25700  0.74300  0.25700  1.0000
  Li  Li5       1.0  0.50000  0.00000  0.50000  1.0000
  Li  Li6       1.0  0.00000  0.50000  0.50000  1.0000
  Li  Li7       1.0  0.25700  0.25700  0.74300  1.0000
  Li  Li8       1.0  0.74300  0.74300  0.74300  1.0000
  Si  Si1       1.0  0.25500  0.25500  0.25500  1.0000
  Si  Si2       1.0  0.74500  0.74500  0.25500  1.0000
  Si  Si3       1.0  0.50000  0.50000  0.50000  1.0000
  Si  Si4       1.0  0.74500  0.25500  0.74500  1.0000
  Si  Si5       1.0  0.25500  0.74500  0.74500  1.0000
