data_image0
_chemical_formula_structural       Al2F2O8Sr6
_chemical_formula_sum              "Al2 F2 O8 Sr6"
_cell_length_a       6.72928
_cell_length_b       6.72928
_cell_length_c       7.32505
_cell_angle_alpha    117.344
_cell_angle_beta     117.344
_cell_angle_gamma    90

_space_group_name_H-M_alt    "P 1"
_space_group_IT_number       1

loop_
  _space_group_symop_operation_xyz
  'x, y, z'

loop_
  _atom_site_type_symbol
  _atom_site_label
  _atom_site_symmetry_multiplicity
  _atom_site_fract_x
  _atom_site_fract_y
  _atom_site_fract_z
  _atom_site_occupancy
  Al  Al1       1.0  0.75000  0.25000  0.50000  1.0000
  Al  Al2       1.0  0.25000  0.75000  0.50000  1.0000
  F   F1        1.0  0.00000  0.00000  0.00000  1.0000
  F   F2        1.0  0.50000  0.50000  0.00000  1.0000
  O   O1        1.0  0.50400  0.00422  0.29600  1.0000
  O   O2        1.0  0.79200  0.29200  0.29600  1.0000
  O   O3        1.0  0.29200  0.50400  0.29600  1.0000
  O   O4        1.0  0.00422  0.79200  0.29600  1.0000
  O   O5        1.0  0.99600  0.20800  0.70400  1.0000
  O   O6        1.0  0.70800  0.49600  0.70400  1.0000
  O   O7        1.0  0.20800  0.70800  0.70400  1.0000
  O   O8        1.0  0.49600  0.99600  0.70400  1.0000
  Sr  Sr1       1.0  0.33300  0.16700  0.00000  1.0000
  Sr  Sr2       1.0  0.83300  0.33300  0.00000  1.0000
  Sr  Sr3       1.0  0.16700  0.66700  0.00000  1.0000
  Sr  Sr4       1.0  0.66700  0.83300  0.00000  1.0000
  Sr  Sr5       1.0  0.25000  0.25000  0.50000  1.0000
  Sr  Sr6       1.0  0.75000  0.75000  0.50000  1.0000
