data_image0
_chemical_formula_structural       Ag2F12Pd2
_chemical_formula_sum              "Ag2 F12 Pd2"
_cell_length_a       4.85863
_cell_length_b       4.88194
_cell_length_c       9.80599
_cell_angle_alpha    89.247
_cell_angle_beta     103.521
_cell_angle_gamma    120.665

_space_group_name_H-M_alt    "P 1"
_space_group_IT_number       1

loop_
  _space_group_symop_operation_xyz
  'x, y, z'

loop_
  _atom_site_type_symbol
  _atom_site_label
  _atom_site_symmetry_multiplicity
  _atom_site_fract_x
  _atom_site_fract_y
  _atom_site_fract_z
  _atom_site_occupancy
  Ag  Ag1       1.0  0.00000  0.00000  0.00000  1.0000
  Ag  Ag2       1.0  0.00000  0.50000  0.50000  1.0000
  F   F1        1.0  0.71200  0.02170  0.13000  1.0000
  F   F2        1.0  0.45600  0.37200  0.13200  1.0000
  F   F3        1.0  0.07300  0.63700  0.13400  1.0000
  F   F4        1.0  0.91800  0.80200  0.36500  1.0000
  F   F5        1.0  0.53200  0.04850  0.36800  1.0000
  F   F6        1.0  0.25900  0.40300  0.37100  1.0000
  F   F7        1.0  0.74100  0.59700  0.62900  1.0000
  F   F8        1.0  0.46800  0.95200  0.63200  1.0000
  F   F9        1.0  0.08240  0.19800  0.63500  1.0000
  F   F10       1.0  0.92700  0.36300  0.86600  1.0000
  F   F11       1.0  0.54400  0.62800  0.86800  1.0000
  F   F12       1.0  0.28800  0.97800  0.87000  1.0000
  Pd  Pd1       1.0  0.48800  0.71100  0.25000  1.0000
  Pd  Pd2       1.0  0.51200  0.28900  0.75000  1.0000
