data_image0
_chemical_formula_structural       Ge6Np10
_chemical_formula_sum              "Ge6 Np10"
_cell_length_a       5.39851
_cell_length_b       8.55407
_cell_length_c       8.55407
_cell_angle_alpha    95.7146
_cell_angle_beta     71.6059
_cell_angle_gamma    108.394

_space_group_name_H-M_alt    "P 1"
_space_group_IT_number       1

loop_
  _space_group_symop_operation_xyz
  'x, y, z'

loop_
  _atom_site_type_symbol
  _atom_site_label
  _atom_site_symmetry_multiplicity
  _atom_site_fract_x
  _atom_site_fract_y
  _atom_site_fract_z
  _atom_site_occupancy
  Ge  Ge1       1.0  0.25000  0.00000  0.00000  1.0000
  Ge  Ge2       1.0  0.75000  0.00000  0.00000  1.0000
  Ge  Ge3       1.0  0.16200  0.50000  0.17600  1.0000
  Ge  Ge4       1.0  0.66200  0.82400  0.50000  1.0000
  Ge  Ge5       1.0  0.33800  0.17600  0.50000  1.0000
  Ge  Ge6       1.0  0.83800  0.50000  0.82400  1.0000
  Np  Np1       1.0  0.58500  0.31000  0.13900  1.0000
  Np  Np2       1.0  0.77600  0.69000  0.13900  1.0000
  Np  Np3       1.0  0.91500  0.13900  0.31000  1.0000
  Np  Np4       1.0  0.27600  0.86100  0.31000  1.0000
  Np  Np5       1.0  0.25000  0.50000  0.50000  1.0000
  Np  Np6       1.0  0.75000  0.50000  0.50000  1.0000
  Np  Np7       1.0  0.72400  0.13900  0.69000  1.0000
  Np  Np8       1.0  0.08530  0.86100  0.69000  1.0000
  Np  Np9       1.0  0.22400  0.31000  0.86100  1.0000
  Np  Np10      1.0  0.41500  0.69000  0.86100  1.0000
