data_image0
_chemical_formula_structural       Ca4H12Rh3
_chemical_formula_sum              "Ca4 H12 Rh3"
_cell_length_a       6.27512
_cell_length_b       6.27512
_cell_length_c       6.27512
_cell_angle_alpha    109.471
_cell_angle_beta     109.471
_cell_angle_gamma    109.471

_space_group_name_H-M_alt    "P 1"
_space_group_IT_number       1

loop_
  _space_group_symop_operation_xyz
  'x, y, z'

loop_
  _atom_site_type_symbol
  _atom_site_label
  _atom_site_symmetry_multiplicity
  _atom_site_fract_x
  _atom_site_fract_y
  _atom_site_fract_z
  _atom_site_occupancy
  Ca  Ca1       1.0  0.50000  0.00000  0.00000  1.0000
  Ca  Ca2       1.0  0.00000  0.50000  0.00000  1.0000
  Ca  Ca3       1.0  0.00000  0.00000  0.50000  1.0000
  Ca  Ca4       1.0  0.50000  0.50000  0.50000  1.0000
  H   H1        1.0  0.26300  0.26300  0.00000  1.0000
  H   H2        1.0  0.73700  0.73700  0.00000  1.0000
  H   H3        1.0  0.75000  0.50000  0.25000  1.0000
  H   H4        1.0  0.50000  0.75000  0.25000  1.0000
  H   H5        1.0  0.26300  0.00000  0.26300  1.0000
  H   H6        1.0  0.00000  0.26300  0.26300  1.0000
  H   H7        1.0  0.75000  0.25000  0.50000  1.0000
  H   H8        1.0  0.25000  0.75000  0.50000  1.0000
  H   H9        1.0  0.73700  0.00000  0.73700  1.0000
  H   H10       1.0  0.00000  0.73700  0.73700  1.0000
  H   H11       1.0  0.50000  0.25000  0.75000  1.0000
  H   H12       1.0  0.25000  0.50000  0.75000  1.0000
  Rh  Rh1       1.0  0.50000  0.50000  0.00000  1.0000
  Rh  Rh2       1.0  0.50000  0.00000  0.50000  1.0000
  Rh  Rh3       1.0  0.00000  0.50000  0.50000  1.0000
