data_image0
_chemical_formula_structural       Dy24Te12
_chemical_formula_sum              "Dy24 Te12"
_cell_length_a       22.143
_cell_length_b       4.06363
_cell_length_c       11.5254
_cell_angle_alpha    90
_cell_angle_beta     90
_cell_angle_gamma    90

_space_group_name_H-M_alt    "P 1"
_space_group_IT_number       1

loop_
  _space_group_symop_operation_xyz
  'x, y, z'

loop_
  _atom_site_type_symbol
  _atom_site_label
  _atom_site_symmetry_multiplicity
  _atom_site_fract_x
  _atom_site_fract_y
  _atom_site_fract_z
  _atom_site_occupancy
  Dy  Dy1       1.0  0.03430  0.25000  0.11600  1.0000
  Dy  Dy2       1.0  0.46600  0.75000  0.61600  1.0000
  Dy  Dy3       1.0  0.53400  0.25000  0.38400  1.0000
  Dy  Dy4       1.0  0.96600  0.75000  0.88400  1.0000
  Dy  Dy5       1.0  0.14700  0.25000  0.41400  1.0000
  Dy  Dy6       1.0  0.35300  0.75000  0.91400  1.0000
  Dy  Dy7       1.0  0.64700  0.25000  0.08590  1.0000
  Dy  Dy8       1.0  0.85300  0.75000  0.58600  1.0000
  Dy  Dy9       1.0  0.98300  0.25000  0.61300  1.0000
  Dy  Dy10      1.0  0.51700  0.75000  0.11300  1.0000
  Dy  Dy11      1.0  0.48300  0.25000  0.88700  1.0000
  Dy  Dy12      1.0  0.01710  0.75000  0.38700  1.0000
  Dy  Dy13      1.0  0.39200  0.25000  0.15000  1.0000
  Dy  Dy14      1.0  0.10800  0.75000  0.65000  1.0000
  Dy  Dy15      1.0  0.89200  0.25000  0.35000  1.0000
  Dy  Dy16      1.0  0.60800  0.75000  0.85000  1.0000
  Dy  Dy17      1.0  0.34000  0.25000  0.45500  1.0000
  Dy  Dy18      1.0  0.16000  0.75000  0.95500  1.0000
  Dy  Dy19      1.0  0.84000  0.25000  0.04480  1.0000
  Dy  Dy20      1.0  0.66000  0.75000  0.54500  1.0000
  Dy  Dy21      1.0  0.23300  0.25000  0.73400  1.0000
  Dy  Dy22      1.0  0.26700  0.75000  0.23400  1.0000
  Dy  Dy23      1.0  0.73300  0.25000  0.76600  1.0000
  Dy  Dy24      1.0  0.76700  0.75000  0.26600  1.0000
  Te  Te1       1.0  0.06890  0.25000  0.85000  1.0000
  Te  Te2       1.0  0.43100  0.75000  0.35000  1.0000
  Te  Te3       1.0  0.56900  0.25000  0.65000  1.0000
  Te  Te4       1.0  0.93100  0.75000  0.15000  1.0000
  Te  Te5       1.0  0.37200  0.25000  0.71100  1.0000
  Te  Te6       1.0  0.12800  0.75000  0.21100  1.0000
  Te  Te7       1.0  0.87200  0.25000  0.78900  1.0000
  Te  Te8       1.0  0.62800  0.75000  0.28900  1.0000
  Te  Te9       1.0  0.26100  0.25000  0.02020  1.0000
  Te  Te10      1.0  0.23900  0.75000  0.52000  1.0000
  Te  Te11      1.0  0.76100  0.25000  0.48000  1.0000
  Te  Te12      1.0  0.73900  0.75000  0.98000  1.0000
