data_image0
_chemical_formula_structural       Cr2O12Ta4
_chemical_formula_sum              "Cr2 O12 Ta4"
_cell_length_a       4.75609
_cell_length_b       4.76393
_cell_length_c       9.3208
_cell_angle_alpha    90
_cell_angle_beta     91.1337
_cell_angle_gamma    90

_space_group_name_H-M_alt    "P 1"
_space_group_IT_number       1

loop_
  _space_group_symop_operation_xyz
  'x, y, z'

loop_
  _atom_site_type_symbol
  _atom_site_label
  _atom_site_symmetry_multiplicity
  _atom_site_fract_x
  _atom_site_fract_y
  _atom_site_fract_z
  _atom_site_occupancy
  Cr  Cr1       1.0  0.00000  0.00000  0.00000  1.0000
  Cr  Cr2       1.0  0.50000  0.50000  0.50000  1.0000
  O   O1        1.0  0.68900  0.68900  0.99900  1.0000
  O   O2        1.0  0.31100  0.31100  0.00103  1.0000
  O   O3        1.0  0.20200  0.81100  0.17500  1.0000
  O   O4        1.0  0.79200  0.22500  0.18600  1.0000
  O   O5        1.0  0.70800  0.72500  0.31400  1.0000
  O   O6        1.0  0.29800  0.31100  0.32500  1.0000
  O   O7        1.0  0.18900  0.81100  0.49900  1.0000
  O   O8        1.0  0.81100  0.18900  0.50100  1.0000
  O   O9        1.0  0.70200  0.68900  0.67500  1.0000
  O   O10       1.0  0.29200  0.27500  0.68600  1.0000
  O   O11       1.0  0.20800  0.77500  0.81400  1.0000
  O   O12       1.0  0.79800  0.18900  0.82500  1.0000
  Ta  Ta1       1.0  0.49900  0.51200  0.16700  1.0000
  Ta  Ta2       1.0  0.00130  0.01200  0.33300  1.0000
  Ta  Ta3       1.0  0.99900  0.98800  0.66700  1.0000
  Ta  Ta4       1.0  0.50100  0.48800  0.83300  1.0000
