data_image0
_chemical_formula_structural       Ba2Mo2O8
_chemical_formula_sum              "Ba2 Mo2 O8"
_cell_length_a       7.49015
_cell_length_b       5.5594
_cell_length_c       5.5594
_cell_angle_alpha    90
_cell_angle_beta     111.784
_cell_angle_gamma    111.784

_space_group_name_H-M_alt    "P 1"
_space_group_IT_number       1

loop_
  _space_group_symop_operation_xyz
  'x, y, z'

loop_
  _atom_site_type_symbol
  _atom_site_label
  _atom_site_symmetry_multiplicity
  _atom_site_fract_x
  _atom_site_fract_y
  _atom_site_fract_z
  _atom_site_occupancy
  Ba  Ba1       1.0  0.75000  0.37500  0.12500  1.0000
  Ba  Ba2       1.0  0.25000  0.62500  0.87500  1.0000
  Mo  Mo1       1.0  0.25000  0.12500  0.37500  1.0000
  Mo  Mo2       1.0  0.75000  0.87500  0.62500  1.0000
  O   O1        1.0  0.09310  0.28500  0.17700  1.0000
  O   O2        1.0  0.40700  0.08430  0.21500  1.0000
  O   O3        1.0  0.59300  0.67700  0.30800  1.0000
  O   O4        1.0  0.09310  0.80800  0.41600  1.0000
  O   O5        1.0  0.90700  0.19200  0.58400  1.0000
  O   O6        1.0  0.40700  0.32300  0.69200  1.0000
  O   O7        1.0  0.59300  0.91600  0.78500  1.0000
  O   O8        1.0  0.90700  0.71500  0.82300  1.0000
