data_image0
_chemical_formula_structural       I4Pd4Te4
_chemical_formula_sum              "I4 Pd4 Te4"
_cell_length_a       7.96845
_cell_length_b       7.96845
_cell_length_c       5.69349
_cell_angle_alpha    90
_cell_angle_beta     90
_cell_angle_gamma    90

_space_group_name_H-M_alt    "P 1"
_space_group_IT_number       1

loop_
  _space_group_symop_operation_xyz
  'x, y, z'

loop_
  _atom_site_type_symbol
  _atom_site_label
  _atom_site_symmetry_multiplicity
  _atom_site_fract_x
  _atom_site_fract_y
  _atom_site_fract_z
  _atom_site_occupancy
  I   I1        1.0  0.24000  0.50000  0.00000  1.0000
  I   I2        1.0  0.76000  0.50000  0.00000  1.0000
  I   I3        1.0  0.50000  0.24000  0.50000  1.0000
  I   I4        1.0  0.50000  0.76000  0.50000  1.0000
  Pd  Pd1       1.0  0.00000  0.25200  0.00000  1.0000
  Pd  Pd2       1.0  0.00000  0.74800  0.00000  1.0000
  Pd  Pd3       1.0  0.25200  0.00000  0.50000  1.0000
  Pd  Pd4       1.0  0.74800  0.00000  0.50000  1.0000
  Te  Te1       1.0  0.21400  0.00000  0.00000  1.0000
  Te  Te2       1.0  0.78600  0.00000  0.00000  1.0000
  Te  Te3       1.0  0.00000  0.21400  0.50000  1.0000
  Te  Te4       1.0  0.00000  0.78600  0.50000  1.0000
