data_image0
_chemical_formula_structural       Ag2Nb2Rb4S8
_chemical_formula_sum              "Ag2 Nb2 Rb4 S8"
_cell_length_a       5.96936
_cell_length_b       7.50486
_cell_length_c       12.2775
_cell_angle_alpha    95.5481
_cell_angle_beta     104.07
_cell_angle_gamma    66.5655

_space_group_name_H-M_alt    "P 1"
_space_group_IT_number       1

loop_
  _space_group_symop_operation_xyz
  'x, y, z'

loop_
  _atom_site_type_symbol
  _atom_site_label
  _atom_site_symmetry_multiplicity
  _atom_site_fract_x
  _atom_site_fract_y
  _atom_site_fract_z
  _atom_site_occupancy
  Ag  Ag1       1.0  0.37500  0.75000  0.25000  1.0000
  Ag  Ag2       1.0  0.62500  0.25000  0.75000  1.0000
  Nb  Nb1       1.0  0.87500  0.75000  0.25000  1.0000
  Nb  Nb2       1.0  0.12500  0.25000  0.75000  1.0000
  Rb  Rb1       1.0  0.30500  0.25000  0.10900  1.0000
  Rb  Rb2       1.0  0.94500  0.25000  0.39100  1.0000
  Rb  Rb3       1.0  0.05470  0.75000  0.60900  1.0000
  Rb  Rb4       1.0  0.69500  0.75000  0.89100  1.0000
  S   S1        1.0  0.70300  0.55100  0.13800  1.0000
  S   S2        1.0  0.93400  0.94900  0.13800  1.0000
  S   S3        1.0  0.24600  0.55100  0.36200  1.0000
  S   S4        1.0  0.61600  0.94900  0.36200  1.0000
  S   S5        1.0  0.38400  0.05060  0.63800  1.0000
  S   S6        1.0  0.75400  0.44900  0.63800  1.0000
  S   S7        1.0  0.06550  0.05060  0.86200  1.0000
  S   S8        1.0  0.29700  0.44900  0.86200  1.0000
