data_image0
_chemical_formula_structural       F8H12N4Sn2
_chemical_formula_sum              "F8 H12 N4 Sn2"
_cell_length_a       7.61265
_cell_length_b       5.89032
_cell_length_c       4.99297
_cell_angle_alpha    90
_cell_angle_beta     101.316
_cell_angle_gamma    90

_space_group_name_H-M_alt    "P 1"
_space_group_IT_number       1

loop_
  _space_group_symop_operation_xyz
  'x, y, z'

loop_
  _atom_site_type_symbol
  _atom_site_label
  _atom_site_symmetry_multiplicity
  _atom_site_fract_x
  _atom_site_fract_y
  _atom_site_fract_z
  _atom_site_occupancy
  F   F1        1.0  0.58300  0.29200  0.23300  1.0000
  F   F2        1.0  0.24500  0.01160  0.24100  1.0000
  F   F3        1.0  0.25500  0.51200  0.25900  1.0000
  F   F4        1.0  0.91700  0.79200  0.26700  1.0000
  F   F5        1.0  0.08250  0.20800  0.73300  1.0000
  F   F6        1.0  0.74500  0.48800  0.74100  1.0000
  F   F7        1.0  0.75500  0.98800  0.75900  1.0000
  F   F8        1.0  0.41700  0.70800  0.76700  1.0000
  H   H1        1.0  0.57700  0.75000  0.09230  1.0000
  H   H2        1.0  0.82200  0.36900  0.10800  1.0000
  H   H3        1.0  0.04540  0.39800  0.23200  1.0000
  H   H4        1.0  0.45500  0.89800  0.26800  1.0000
  H   H5        1.0  0.67800  0.86900  0.39200  1.0000
  H   H6        1.0  0.92300  0.25000  0.40800  1.0000
  H   H7        1.0  0.07750  0.75000  0.59200  1.0000
  H   H8        1.0  0.32200  0.13100  0.60800  1.0000
  H   H9        1.0  0.54500  0.10200  0.73200  1.0000
  H   H10       1.0  0.95500  0.60200  0.76800  1.0000
  H   H11       1.0  0.17800  0.63100  0.89200  1.0000
  H   H12       1.0  0.42300  0.25000  0.90800  1.0000
  N   N1        1.0  0.93600  0.29100  0.21300  1.0000
  N   N2        1.0  0.56400  0.79100  0.28700  1.0000
  N   N3        1.0  0.43600  0.20900  0.71300  1.0000
  N   N4        1.0  0.06410  0.70900  0.78700  1.0000
  Sn  Sn1       1.0  0.00000  0.00000  0.00000  1.0000
  Sn  Sn2       1.0  0.50000  0.50000  0.50000  1.0000
