data_image0
_chemical_formula_structural       Ni4P4Sc4
_chemical_formula_sum              "Ni4 P4 Sc4"
_cell_length_a       6.33227
_cell_length_b       3.73871
_cell_length_c       7.08979
_cell_angle_alpha    90
_cell_angle_beta     90
_cell_angle_gamma    90

_space_group_name_H-M_alt    "P 1"
_space_group_IT_number       1

loop_
  _space_group_symop_operation_xyz
  'x, y, z'

loop_
  _atom_site_type_symbol
  _atom_site_label
  _atom_site_symmetry_multiplicity
  _atom_site_fract_x
  _atom_site_fract_y
  _atom_site_fract_z
  _atom_site_occupancy
  Ni  Ni1       1.0  0.14100  0.25000  0.06100  1.0000
  Ni  Ni2       1.0  0.64100  0.25000  0.43900  1.0000
  Ni  Ni3       1.0  0.35900  0.75000  0.56100  1.0000
  Ni  Ni4       1.0  0.85900  0.75000  0.93900  1.0000
  P   P1        1.0  0.76600  0.25000  0.11800  1.0000
  P   P2        1.0  0.26600  0.25000  0.38200  1.0000
  P   P3        1.0  0.73400  0.75000  0.61800  1.0000
  P   P4        1.0  0.23400  0.75000  0.88200  1.0000
  Sc  Sc1       1.0  0.47800  0.75000  0.18500  1.0000
  Sc  Sc2       1.0  0.97800  0.75000  0.31500  1.0000
  Sc  Sc3       1.0  0.02150  0.25000  0.68500  1.0000
  Sc  Sc4       1.0  0.52200  0.25000  0.81500  1.0000
