data_image0
_chemical_formula_structural       F2Na2O8P2Y2
_chemical_formula_sum              "F2 Na2 O8 P2 Y2"
_cell_length_a       5.63424
_cell_length_b       5.63424
_cell_length_c       6.43708
_cell_angle_alpha    102.688
_cell_angle_beta     77.3121
_cell_angle_gamma    104.401

_space_group_name_H-M_alt    "P 1"
_space_group_IT_number       1

loop_
  _space_group_symop_operation_xyz
  'x, y, z'

loop_
  _atom_site_type_symbol
  _atom_site_label
  _atom_site_symmetry_multiplicity
  _atom_site_fract_x
  _atom_site_fract_y
  _atom_site_fract_z
  _atom_site_occupancy
  F   F1        1.0  0.51900  0.48100  0.19500  1.0000
  F   F2        1.0  0.48100  0.51900  0.80500  1.0000
  Na  Na1       1.0  0.29400  0.29400  0.50000  1.0000
  Na  Na2       1.0  0.70600  0.70600  0.50000  1.0000
  O   O1        1.0  0.62900  0.01700  0.15400  1.0000
  O   O2        1.0  0.98300  0.37100  0.15400  1.0000
  O   O3        1.0  0.01940  0.98100  0.27400  1.0000
  O   O4        1.0  0.25900  0.74100  0.48900  1.0000
  O   O5        1.0  0.74100  0.25900  0.51100  1.0000
  O   O6        1.0  0.98100  0.01940  0.72600  1.0000
  O   O7        1.0  0.01700  0.62900  0.84600  1.0000
  O   O8        1.0  0.37100  0.98300  0.84600  1.0000
  P   P1        1.0  0.84600  0.15400  0.27700  1.0000
  P   P2        1.0  0.15400  0.84600  0.72300  1.0000
  Y   Y1        1.0  0.28300  0.71700  0.11600  1.0000
  Y   Y2        1.0  0.71700  0.28300  0.88400  1.0000
