data_image0
_chemical_formula_structural       H24Li4N12Sn4
_chemical_formula_sum              "H24 Li4 N12 Sn4"
_cell_length_a       7.71214
_cell_length_b       6.55874
_cell_length_c       7.59212
_cell_angle_alpha    90
_cell_angle_beta     91.5607
_cell_angle_gamma    90

_space_group_name_H-M_alt    "P 1"
_space_group_IT_number       1

loop_
  _space_group_symop_operation_xyz
  'x, y, z'

loop_
  _atom_site_type_symbol
  _atom_site_label
  _atom_site_symmetry_multiplicity
  _atom_site_fract_x
  _atom_site_fract_y
  _atom_site_fract_z
  _atom_site_occupancy
  H   H1        1.0  0.77700  0.34200  0.53500  1.0000
  H   H2        1.0  0.72300  0.84200  0.96500  1.0000
  H   H3        1.0  0.22300  0.65800  0.46500  1.0000
  H   H4        1.0  0.27700  0.15800  0.03470  1.0000
  H   H5        1.0  0.70600  0.12800  0.05800  1.0000
  H   H6        1.0  0.79400  0.62800  0.44200  1.0000
  H   H7        1.0  0.29400  0.87200  0.94200  1.0000
  H   H8        1.0  0.20600  0.37200  0.55800  1.0000
  H   H9        1.0  0.85200  0.27100  0.34200  1.0000
  H   H10       1.0  0.64800  0.77100  0.15800  1.0000
  H   H11       1.0  0.14800  0.72900  0.65800  1.0000
  H   H12       1.0  0.35200  0.22900  0.84200  1.0000
  H   H13       1.0  0.80200  0.47100  0.77400  1.0000
  H   H14       1.0  0.69800  0.97100  0.72600  1.0000
  H   H15       1.0  0.19800  0.52900  0.22600  1.0000
  H   H16       1.0  0.30200  0.02880  0.27400  1.0000
  H   H17       1.0  0.60800  0.30000  0.93100  1.0000
  H   H18       1.0  0.89200  0.80000  0.56900  1.0000
  H   H19       1.0  0.39200  0.70000  0.06850  1.0000
  H   H20       1.0  0.10800  0.20000  0.43100  1.0000
  H   H21       1.0  0.98200  0.52600  0.68100  1.0000
  H   H22       1.0  0.51800  0.02570  0.81900  1.0000
  H   H23       1.0  0.01760  0.47400  0.31900  1.0000
  H   H24       1.0  0.48200  0.97400  0.18100  1.0000
  Li  Li1       1.0  0.14600  0.50800  0.95800  1.0000
  Li  Li2       1.0  0.35400  0.00797  0.54200  1.0000
  Li  Li3       1.0  0.85400  0.49200  0.04190  1.0000
  Li  Li4       1.0  0.64600  0.99200  0.45800  1.0000
  N   N1        1.0  0.74600  0.26600  0.42000  1.0000
  N   N2        1.0  0.75400  0.76600  0.08010  1.0000
  N   N3        1.0  0.25400  0.73400  0.58000  1.0000
  N   N4        1.0  0.24600  0.23400  0.92000  1.0000
  N   N5        1.0  0.67500  0.28100  0.04950  1.0000
  N   N6        1.0  0.82500  0.78100  0.45100  1.0000
  N   N7        1.0  0.32500  0.71900  0.95100  1.0000
  N   N8        1.0  0.17500  0.21900  0.54900  1.0000
  N   N9        1.0  0.93500  0.45500  0.79000  1.0000
  N   N10       1.0  0.56500  0.95500  0.71000  1.0000
  N   N11       1.0  0.06520  0.54500  0.21000  1.0000
  N   N12       1.0  0.43500  0.04490  0.29000  1.0000
  Sn  Sn1       1.0  0.51900  0.36500  0.27100  1.0000
  Sn  Sn2       1.0  0.98100  0.86500  0.22900  1.0000
  Sn  Sn3       1.0  0.48100  0.63500  0.72900  1.0000
  Sn  Sn4       1.0  0.01930  0.13500  0.77100  1.0000
