data_image0
_chemical_formula_structural       Cl2K2Mo2O10P2
_chemical_formula_sum              "Cl2 K2 Mo2 O10 P2"
_cell_length_a       6.45169
_cell_length_b       6.45169
_cell_length_c       7.19445
_cell_angle_alpha    90
_cell_angle_beta     90
_cell_angle_gamma    90

_space_group_name_H-M_alt    "P 1"
_space_group_IT_number       1

loop_
  _space_group_symop_operation_xyz
  'x, y, z'

loop_
  _atom_site_type_symbol
  _atom_site_label
  _atom_site_symmetry_multiplicity
  _atom_site_fract_x
  _atom_site_fract_y
  _atom_site_fract_z
  _atom_site_occupancy
  Cl  Cl1       1.0  0.25000  0.25000  0.45300  1.0000
  Cl  Cl2       1.0  0.75000  0.75000  0.54700  1.0000
  K   K1        1.0  0.75000  0.25000  0.50000  1.0000
  K   K2        1.0  0.25000  0.75000  0.50000  1.0000
  Mo  Mo1       1.0  0.25000  0.25000  0.09690  1.0000
  Mo  Mo2       1.0  0.75000  0.75000  0.90300  1.0000
  O   O1        1.0  0.56300  0.25000  0.13400  1.0000
  O   O2        1.0  0.93700  0.25000  0.13400  1.0000
  O   O3        1.0  0.25000  0.56300  0.13400  1.0000
  O   O4        1.0  0.25000  0.93700  0.13400  1.0000
  O   O5        1.0  0.75000  0.75000  0.13800  1.0000
  O   O6        1.0  0.25000  0.25000  0.86200  1.0000
  O   O7        1.0  0.75000  0.06280  0.86600  1.0000
  O   O8        1.0  0.75000  0.43700  0.86600  1.0000
  O   O9        1.0  0.06280  0.75000  0.86600  1.0000
  O   O10       1.0  0.43700  0.75000  0.86600  1.0000
  P   P1        1.0  0.75000  0.25000  0.00000  1.0000
  P   P2        1.0  0.25000  0.75000  0.00000  1.0000
