data_image0
_chemical_formula_structural       LiMnSe2
_chemical_formula_sum              "Li1 Mn1 Se2"
_cell_length_a       3.92666
_cell_length_b       3.92666
_cell_length_c       6.52869
_cell_angle_alpha    90
_cell_angle_beta     89.9999
_cell_angle_gamma    120

_space_group_name_H-M_alt    "P 1"
_space_group_IT_number       1

loop_
  _space_group_symop_operation_xyz
  'x, y, z'

loop_
  _atom_site_type_symbol
  _atom_site_label
  _atom_site_symmetry_multiplicity
  _atom_site_fract_x
  _atom_site_fract_y
  _atom_site_fract_z
  _atom_site_occupancy
  Li  Li1       1.0  0.66700  0.33300  0.19700  1.0000
  Mn  Mn1       1.0  0.00002  0.00001  0.65500  1.0000
  Se  Se1       1.0  0.00000  0.00000  0.00573  1.0000
  Se  Se2       1.0  0.33300  0.66700  0.49400  1.0000
