data_image0
_chemical_formula_structural       Ag2Rb4Se8V2
_chemical_formula_sum              "Ag2 Rb4 Se8 V2"
_cell_length_a       6.03046
_cell_length_b       7.57664
_cell_length_c       12.4677
_cell_angle_alpha    95.523
_cell_angle_beta     103.995
_cell_angle_gamma    66.549

_space_group_name_H-M_alt    "P 1"
_space_group_IT_number       1

loop_
  _space_group_symop_operation_xyz
  'x, y, z'

loop_
  _atom_site_type_symbol
  _atom_site_label
  _atom_site_symmetry_multiplicity
  _atom_site_fract_x
  _atom_site_fract_y
  _atom_site_fract_z
  _atom_site_occupancy
  Ag  Ag1       1.0  0.62500  0.75000  0.25000  1.0000
  Ag  Ag2       1.0  0.37500  0.25000  0.75000  1.0000
  Rb  Rb1       1.0  0.05620  0.25000  0.11200  1.0000
  Rb  Rb2       1.0  0.69400  0.25000  0.38800  1.0000
  Rb  Rb3       1.0  0.30600  0.75000  0.61200  1.0000
  Rb  Rb4       1.0  0.94400  0.75000  0.88800  1.0000
  Se  Se1       1.0  0.37600  0.55100  0.13600  1.0000
  Se  Se2       1.0  0.76100  0.94900  0.13600  1.0000
  Se  Se3       1.0  0.07360  0.55100  0.36400  1.0000
  Se  Se4       1.0  0.29000  0.94900  0.36400  1.0000
  Se  Se5       1.0  0.71000  0.05060  0.63600  1.0000
  Se  Se6       1.0  0.92600  0.44900  0.63600  1.0000
  Se  Se7       1.0  0.23900  0.05060  0.86400  1.0000
  Se  Se8       1.0  0.62400  0.44900  0.86400  1.0000
  V   V1        1.0  0.12500  0.75000  0.25000  1.0000
  V   V2        1.0  0.87500  0.25000  0.75000  1.0000
