data_image0
_chemical_formula_structural       F12KTb3
_chemical_formula_sum              "F12 K1 Tb3"
_cell_length_a       6.44738
_cell_length_b       6.44738
_cell_length_c       6.44738
_cell_angle_alpha    107.842
_cell_angle_beta     110.292
_cell_angle_gamma    110.292

_space_group_name_H-M_alt    "P 1"
_space_group_IT_number       1

loop_
  _space_group_symop_operation_xyz
  'x, y, z'

loop_
  _atom_site_type_symbol
  _atom_site_label
  _atom_site_symmetry_multiplicity
  _atom_site_fract_x
  _atom_site_fract_y
  _atom_site_fract_z
  _atom_site_occupancy
  F   F1        1.0  0.40900  0.34400  0.06440  1.0000
  F   F2        1.0  0.87600  0.42100  0.09930  1.0000
  F   F3        1.0  0.67900  0.09930  0.22300  1.0000
  F   F4        1.0  0.28000  0.93600  0.34400  1.0000
  F   F5        1.0  0.32100  0.54500  0.42100  1.0000
  F   F6        1.0  0.87600  0.77700  0.45500  1.0000
  F   F7        1.0  0.12400  0.22300  0.54500  1.0000
  F   F8        1.0  0.67900  0.45500  0.57900  1.0000
  F   F9        1.0  0.72000  0.06440  0.65600  1.0000
  F   F10       1.0  0.32100  0.90100  0.77700  1.0000
  F   F11       1.0  0.12400  0.57900  0.90100  1.0000
  F   F12       1.0  0.59100  0.65600  0.93600  1.0000
  K   K1        1.0  0.00000  0.00000  0.00000  1.0000
  Tb  Tb1       1.0  0.50000  0.75000  0.25000  1.0000
  Tb  Tb2       1.0  0.00000  0.50000  0.50000  1.0000
  Tb  Tb3       1.0  0.50000  0.25000  0.75000  1.0000
