data_image0
_chemical_formula_structural       GeSe8V4
_chemical_formula_sum              "Ge1 Se8 V4"
_cell_length_a       7.23283
_cell_length_b       7.23283
_cell_length_c       7.23283
_cell_angle_alpha    120
_cell_angle_beta     90
_cell_angle_gamma    120

_space_group_name_H-M_alt    "P 1"
_space_group_IT_number       1

loop_
  _space_group_symop_operation_xyz
  'x, y, z'

loop_
  _atom_site_type_symbol
  _atom_site_label
  _atom_site_symmetry_multiplicity
  _atom_site_fract_x
  _atom_site_fract_y
  _atom_site_fract_z
  _atom_site_occupancy
  Ge  Ge1       1.0  0.00000  0.00000  0.00000  1.0000
  Se  Se1       1.0  0.63100  0.26200  0.36900  1.0000
  Se  Se2       1.0  0.10700  0.73800  0.36900  1.0000
  Se  Se3       1.0  0.63100  0.73800  0.36900  1.0000
  Se  Se4       1.0  0.13900  0.27800  0.41800  1.0000
  Se  Se5       1.0  0.13900  0.27800  0.86100  1.0000
  Se  Se6       1.0  0.13900  0.72200  0.86100  1.0000
  Se  Se7       1.0  0.58200  0.72200  0.86100  1.0000
  Se  Se8       1.0  0.63100  0.26200  0.89300  1.0000
  V   V1        1.0  0.39800  0.79600  0.19500  1.0000
  V   V2        1.0  0.80500  0.20400  0.60200  1.0000
  V   V3        1.0  0.39800  0.79600  0.60200  1.0000
  V   V4        1.0  0.39800  0.20400  0.60200  1.0000
