data_image0
_chemical_formula_structural       Mg2O10V4
_chemical_formula_sum              "Mg2 O10 V4"
_cell_length_a       5.31039
_cell_length_b       3.69875
_cell_length_c       11.0293
_cell_angle_alpha    90
_cell_angle_beta     90
_cell_angle_gamma    110.381

_space_group_name_H-M_alt    "P 1"
_space_group_IT_number       1

loop_
  _space_group_symop_operation_xyz
  'x, y, z'

loop_
  _atom_site_type_symbol
  _atom_site_label
  _atom_site_symmetry_multiplicity
  _atom_site_fract_x
  _atom_site_fract_y
  _atom_site_fract_z
  _atom_site_occupancy
  Mg  Mg1       1.0  0.77800  0.88900  0.25000  1.0000
  Mg  Mg2       1.0  0.22200  0.11100  0.75000  1.0000
  O   O1        1.0  0.52900  0.76400  0.07920  1.0000
  O   O2        1.0  0.07510  0.03760  0.12700  1.0000
  O   O3        1.0  0.61300  0.30700  0.25000  1.0000
  O   O4        1.0  0.07510  0.03760  0.37300  1.0000
  O   O5        1.0  0.52900  0.76400  0.42100  1.0000
  O   O6        1.0  0.47100  0.23600  0.57900  1.0000
  O   O7        1.0  0.92500  0.96200  0.62700  1.0000
  O   O8        1.0  0.38700  0.69300  0.75000  1.0000
  O   O9        1.0  0.92500  0.96200  0.87300  1.0000
  O   O10       1.0  0.47100  0.23600  0.92100  1.0000
  V   V1        1.0  0.40100  0.20100  0.09770  1.0000
  V   V2        1.0  0.40100  0.20100  0.40200  1.0000
  V   V3        1.0  0.59900  0.79900  0.59800  1.0000
  V   V4        1.0  0.59900  0.79900  0.90200  1.0000
