data_image0
_chemical_formula_structural       F8Li16Ni8O32P8
_chemical_formula_sum              "F8 Li16 Ni8 O32 P8"
_cell_length_a       10.2185
_cell_length_b       6.24802
_cell_length_c       10.6599
_cell_angle_alpha    90
_cell_angle_beta     90
_cell_angle_gamma    90

_space_group_name_H-M_alt    "P 1"
_space_group_IT_number       1

loop_
  _space_group_symop_operation_xyz
  'x, y, z'

loop_
  _atom_site_type_symbol
  _atom_site_label
  _atom_site_symmetry_multiplicity
  _atom_site_fract_x
  _atom_site_fract_y
  _atom_site_fract_z
  _atom_site_occupancy
  F   F1        1.0  0.63100  0.75000  0.02550  1.0000
  F   F2        1.0  0.86900  0.25000  0.52500  1.0000
  F   F3        1.0  0.13100  0.75000  0.47500  1.0000
  F   F4        1.0  0.36900  0.25000  0.97500  1.0000
  F   F5        1.0  0.55400  0.25000  0.61900  1.0000
  F   F6        1.0  0.94600  0.75000  0.11900  1.0000
  F   F7        1.0  0.05410  0.25000  0.88100  1.0000
  F   F8        1.0  0.44600  0.75000  0.38100  1.0000
  Li  Li1       1.0  0.26100  0.49200  0.83800  1.0000
  Li  Li2       1.0  0.23900  0.50800  0.33800  1.0000
  Li  Li3       1.0  0.76100  0.00772  0.66200  1.0000
  Li  Li4       1.0  0.73900  0.99200  0.16200  1.0000
  Li  Li5       1.0  0.73900  0.50800  0.16200  1.0000
  Li  Li6       1.0  0.76100  0.49200  0.66200  1.0000
  Li  Li7       1.0  0.23900  0.99200  0.33800  1.0000
  Li  Li8       1.0  0.26100  0.00772  0.83800  1.0000
  Li  Li9       1.0  0.72400  0.25000  0.41400  1.0000
  Li  Li10      1.0  0.77600  0.75000  0.91400  1.0000
  Li  Li11      1.0  0.22400  0.25000  0.08550  1.0000
  Li  Li12      1.0  0.27600  0.75000  0.58600  1.0000
  Li  Li13      1.0  0.47700  0.25000  0.77700  1.0000
  Li  Li14      1.0  0.02310  0.75000  0.27700  1.0000
  Li  Li15      1.0  0.97700  0.25000  0.72300  1.0000
  Li  Li16      1.0  0.52300  0.75000  0.22300  1.0000
  Ni  Ni1       1.0  0.50000  0.00000  0.00000  1.0000
  Ni  Ni2       1.0  0.00000  0.00000  0.50000  1.0000
  Ni  Ni3       1.0  0.00000  0.50000  0.50000  1.0000
  Ni  Ni4       1.0  0.50000  0.50000  0.00000  1.0000
  Ni  Ni5       1.0  0.00000  0.00000  0.00000  1.0000
  Ni  Ni6       1.0  0.50000  0.00000  0.50000  1.0000
  Ni  Ni7       1.0  0.50000  0.50000  0.50000  1.0000
  Ni  Ni8       1.0  0.00000  0.50000  0.00000  1.0000
  O   O1        1.0  0.89400  0.75000  0.44000  1.0000
  O   O2        1.0  0.60600  0.25000  0.94000  1.0000
  O   O3        1.0  0.39400  0.75000  0.05980  1.0000
  O   O4        1.0  0.10600  0.25000  0.56000  1.0000
  O   O5        1.0  0.96200  0.94800  0.68000  1.0000
  O   O6        1.0  0.53800  0.05160  0.18000  1.0000
  O   O7        1.0  0.46200  0.55200  0.82000  1.0000
  O   O8        1.0  0.03750  0.44800  0.32000  1.0000
  O   O9        1.0  0.03750  0.05160  0.32000  1.0000
  O   O10       1.0  0.46200  0.94800  0.82000  1.0000
  O   O11       1.0  0.53800  0.44800  0.18000  1.0000
  O   O12       1.0  0.96200  0.55200  0.68000  1.0000
  O   O13       1.0  0.52800  0.25000  0.38200  1.0000
  O   O14       1.0  0.97200  0.75000  0.88200  1.0000
  O   O15       1.0  0.02770  0.25000  0.11800  1.0000
  O   O16       1.0  0.47200  0.75000  0.61800  1.0000
  O   O17       1.0  0.32700  0.25000  0.24400  1.0000
  O   O18       1.0  0.17300  0.75000  0.74400  1.0000
  O   O19       1.0  0.82700  0.25000  0.25600  1.0000
  O   O20       1.0  0.67300  0.75000  0.75600  1.0000
  O   O21       1.0  0.78500  0.25000  0.77700  1.0000
  O   O22       1.0  0.71500  0.75000  0.27700  1.0000
  O   O23       1.0  0.28500  0.25000  0.72300  1.0000
  O   O24       1.0  0.21500  0.75000  0.22300  1.0000
  O   O25       1.0  0.30900  0.45200  0.51600  1.0000
  O   O26       1.0  0.19100  0.54800  0.01550  1.0000
  O   O27       1.0  0.80900  0.04790  0.98400  1.0000
  O   O28       1.0  0.69100  0.95200  0.48400  1.0000
  O   O29       1.0  0.69100  0.54800  0.48400  1.0000
  O   O30       1.0  0.80900  0.45200  0.98400  1.0000
  O   O31       1.0  0.19100  0.95200  0.01550  1.0000
  O   O32       1.0  0.30900  0.04790  0.51600  1.0000
  P   P1        1.0  0.24400  0.75000  0.08220  1.0000
  P   P2        1.0  0.25600  0.25000  0.58200  1.0000
  P   P3        1.0  0.74400  0.75000  0.41800  1.0000
  P   P4        1.0  0.75600  0.25000  0.91800  1.0000
  P   P5        1.0  0.47800  0.25000  0.24400  1.0000
  P   P6        1.0  0.02240  0.75000  0.74400  1.0000
  P   P7        1.0  0.97800  0.25000  0.25600  1.0000
  P   P8        1.0  0.52200  0.75000  0.75600  1.0000
