data_image0
_chemical_formula_structural       La4O12Ti3
_chemical_formula_sum              "La4 O12 Ti3"
_cell_length_a       5.56061
_cell_length_b       5.56063
_cell_length_c       9.24689
_cell_angle_alpha    72.5005
_cell_angle_beta     107.5
_cell_angle_gamma    120.001

_space_group_name_H-M_alt    "P 1"
_space_group_IT_number       1

loop_
  _space_group_symop_operation_xyz
  'x, y, z'

loop_
  _atom_site_type_symbol
  _atom_site_label
  _atom_site_symmetry_multiplicity
  _atom_site_fract_x
  _atom_site_fract_y
  _atom_site_fract_z
  _atom_site_occupancy
  La  La1       1.0  0.71300  0.28700  0.13800  1.0000
  La  La2       1.0  0.13400  0.86600  0.40200  1.0000
  La  La3       1.0  0.86600  0.13400  0.59800  1.0000
  La  La4       1.0  0.28700  0.71300  0.86200  1.0000
  O   O1        1.0  0.14700  0.73000  0.12500  1.0000
  O   O2        1.0  0.27000  0.29200  0.12500  1.0000
  O   O3        1.0  0.70800  0.85300  0.12500  1.0000
  O   O4        1.0  0.55800  0.88700  0.36900  1.0000
  O   O5        1.0  0.11300  0.30300  0.36900  1.0000
  O   O6        1.0  0.69700  0.44200  0.36900  1.0000
  O   O7        1.0  0.30300  0.55800  0.63100  1.0000
  O   O8        1.0  0.88700  0.69700  0.63100  1.0000
  O   O9        1.0  0.44200  0.11300  0.63100  1.0000
  O   O10       1.0  0.29200  0.14700  0.87500  1.0000
  O   O11       1.0  0.73000  0.70800  0.87500  1.0000
  O   O12       1.0  0.85300  0.27000  0.87500  1.0000
  Ti  Ti1       1.0  0.00000  0.00000  0.00000  1.0000
  Ti  Ti2       1.0  0.42500  0.57500  0.27400  1.0000
  Ti  Ti3       1.0  0.57500  0.42500  0.72600  1.0000
