data_image0
_chemical_formula_structural       ClFe2H3O12Te4
_chemical_formula_sum              "Cl1 Fe2 H3 O12 Te4"
_cell_length_a       5.08587
_cell_length_b       6.62936
_cell_length_c       8.85464
_cell_angle_alpha    73.2668
_cell_angle_beta     78.1084
_cell_angle_gamma    76.6277

_space_group_name_H-M_alt    "P 1"
_space_group_IT_number       1

loop_
  _space_group_symop_operation_xyz
  'x, y, z'

loop_
  _atom_site_type_symbol
  _atom_site_label
  _atom_site_symmetry_multiplicity
  _atom_site_fract_x
  _atom_site_fract_y
  _atom_site_fract_z
  _atom_site_occupancy
  Cl  Cl1       1.0  0.00000  0.00000  0.00000  1.0000
  Fe  Fe1       1.0  0.72400  0.14400  0.44500  1.0000
  Fe  Fe2       1.0  0.27600  0.85600  0.55500  1.0000
  H   H1        1.0  0.00000  0.50000  1.00000  1.0000
  H   H2        1.0  0.55900  0.53400  0.20800  1.0000
  H   H3        1.0  0.44100  0.46600  0.79200  1.0000
  O   O1        1.0  0.09640  0.43200  0.12200  1.0000
  O   O2        1.0  0.59600  0.68600  0.18700  1.0000
  O   O3        1.0  0.54600  0.29300  0.25800  1.0000
  O   O4        1.0  0.11400  0.03580  0.35100  1.0000
  O   O5        1.0  0.63800  0.86800  0.41100  1.0000
  O   O6        1.0  0.80900  0.40700  0.46500  1.0000
  O   O7        1.0  0.19100  0.59300  0.53500  1.0000
  O   O8        1.0  0.36200  0.13200  0.58900  1.0000
  O   O9        1.0  0.88600  0.96400  0.64900  1.0000
  O   O10       1.0  0.45400  0.70700  0.74200  1.0000
  O   O11       1.0  0.40400  0.31400  0.81300  1.0000
  O   O12       1.0  0.90400  0.56800  0.87800  1.0000
  Te  Te1       1.0  0.34500  0.16600  0.16200  1.0000
  Te  Te2       1.0  0.89300  0.66000  0.30800  1.0000
  Te  Te3       1.0  0.10700  0.34000  0.69200  1.0000
  Te  Te4       1.0  0.65500  0.83400  0.83800  1.0000
