data_image0
_chemical_formula_structural       Br7STa3
_chemical_formula_sum              "Br7 S1 Ta3"
_cell_length_a       7.15604
_cell_length_b       7.15904
_cell_length_c       7.63996
_cell_angle_alpha    103.078
_cell_angle_beta     117.926
_cell_angle_gamma    60.0138

_space_group_name_H-M_alt    "P 1"
_space_group_IT_number       1

loop_
  _space_group_symop_operation_xyz
  'x, y, z'

loop_
  _atom_site_type_symbol
  _atom_site_label
  _atom_site_symmetry_multiplicity
  _atom_site_fract_x
  _atom_site_fract_y
  _atom_site_fract_z
  _atom_site_occupancy
  Br  Br1       1.0  0.29500  0.58500  0.17500  1.0000
  Br  Br2       1.0  0.29600  0.09060  0.17600  1.0000
  Br  Br3       1.0  0.78900  0.09060  0.17600  1.0000
  Br  Br4       1.0  0.33700  0.91800  0.59200  1.0000
  Br  Br5       1.0  0.36500  0.41600  0.64100  1.0000
  Br  Br6       1.0  0.86100  0.41600  0.64100  1.0000
  Br  Br7       1.0  0.86200  0.91900  0.64200  1.0000
  S   S1        1.0  0.76900  0.59000  0.12800  1.0000
  Ta  Ta1       1.0  0.03400  0.31900  0.38700  1.0000
  Ta  Ta2       1.0  0.03460  0.72100  0.38700  1.0000
  Ta  Ta3       1.0  0.63200  0.72100  0.38700  1.0000
