data_image0
_chemical_formula_structural       F2Ga2O8Sr6
_chemical_formula_sum              "F2 Ga2 O8 Sr6"
_cell_length_a       6.74354
_cell_length_b       6.74354
_cell_length_c       7.4178
_cell_angle_alpha    117.036
_cell_angle_beta     117.036
_cell_angle_gamma    90

_space_group_name_H-M_alt    "P 1"
_space_group_IT_number       1

loop_
  _space_group_symop_operation_xyz
  'x, y, z'

loop_
  _atom_site_type_symbol
  _atom_site_label
  _atom_site_symmetry_multiplicity
  _atom_site_fract_x
  _atom_site_fract_y
  _atom_site_fract_z
  _atom_site_occupancy
  F   F1        1.0  0.00000  0.00000  0.00000  1.0000
  F   F2        1.0  0.50000  0.50000  0.00000  1.0000
  Ga  Ga1       1.0  0.75000  0.25000  0.50000  1.0000
  Ga  Ga2       1.0  0.25000  0.75000  0.50000  1.0000
  O   O1        1.0  0.79300  0.29300  0.28800  1.0000
  O   O2        1.0  0.29300  0.49500  0.28800  1.0000
  O   O3        1.0  0.99500  0.79300  0.28800  1.0000
  O   O4        1.0  0.49500  0.99500  0.28800  1.0000
  O   O5        1.0  0.50500  0.00503  0.71200  1.0000
  O   O6        1.0  0.00503  0.20700  0.71200  1.0000
  O   O7        1.0  0.70700  0.50500  0.71200  1.0000
  O   O8        1.0  0.20700  0.70700  0.71200  1.0000
  Sr  Sr1       1.0  0.33400  0.16600  0.00000  1.0000
  Sr  Sr2       1.0  0.83400  0.33400  0.00000  1.0000
  Sr  Sr3       1.0  0.16600  0.66600  0.00000  1.0000
  Sr  Sr4       1.0  0.66600  0.83400  0.00000  1.0000
  Sr  Sr5       1.0  0.25000  0.25000  0.50000  1.0000
  Sr  Sr6       1.0  0.75000  0.75000  0.50000  1.0000
