data_image0
_chemical_formula_structural       GeS8V4
_chemical_formula_sum              "Ge1 S8 V4"
_cell_length_a       6.84621
_cell_length_b       6.84621
_cell_length_c       6.84621
_cell_angle_alpha    120
_cell_angle_beta     90
_cell_angle_gamma    120

_space_group_name_H-M_alt    "P 1"
_space_group_IT_number       1

loop_
  _space_group_symop_operation_xyz
  'x, y, z'

loop_
  _atom_site_type_symbol
  _atom_site_label
  _atom_site_symmetry_multiplicity
  _atom_site_fract_x
  _atom_site_fract_y
  _atom_site_fract_z
  _atom_site_occupancy
  Ge  Ge1       1.0  0.00000  0.00000  0.00000  1.0000
  S   S1        1.0  0.11200  0.74100  0.37100  1.0000
  S   S2        1.0  0.62900  0.74100  0.37100  1.0000
  S   S3        1.0  0.62900  0.25900  0.37100  1.0000
  S   S4        1.0  0.13600  0.27300  0.40900  1.0000
  S   S5        1.0  0.13600  0.72700  0.86400  1.0000
  S   S6        1.0  0.59100  0.72700  0.86400  1.0000
  S   S7        1.0  0.13600  0.27300  0.86400  1.0000
  S   S8        1.0  0.62900  0.25900  0.88800  1.0000
  V   V1        1.0  0.39700  0.79300  0.19000  1.0000
  V   V2        1.0  0.39700  0.20700  0.60300  1.0000
  V   V3        1.0  0.81000  0.20700  0.60300  1.0000
  V   V4        1.0  0.39700  0.79300  0.60300  1.0000
