data_image0
_chemical_formula_structural       Bi2O16P2Pb8
_chemical_formula_sum              "Bi2 O16 P2 Pb8"
_cell_length_a       6.08438
_cell_length_b       7.28396
_cell_length_c       10.2702
_cell_angle_alpha    99.9737
_cell_angle_beta     104.82
_cell_angle_gamma    90.1343

_space_group_name_H-M_alt    "P 1"
_space_group_IT_number       1

loop_
  _space_group_symop_operation_xyz
  'x, y, z'

loop_
  _atom_site_type_symbol
  _atom_site_label
  _atom_site_symmetry_multiplicity
  _atom_site_fract_x
  _atom_site_fract_y
  _atom_site_fract_z
  _atom_site_occupancy
  Bi  Bi1       1.0  0.30900  0.22600  0.40600  1.0000
  Bi  Bi2       1.0  0.69100  0.77400  0.59400  1.0000
  O   O1        1.0  0.56600  0.31600  0.76600  1.0000
  O   O2        1.0  0.43400  0.68400  0.23400  1.0000
  O   O3        1.0  0.71000  0.10100  0.58800  1.0000
  O   O4        1.0  0.29000  0.89900  0.41200  1.0000
  O   O5        1.0  0.28300  0.55600  0.41000  1.0000
  O   O6        1.0  0.71700  0.44400  0.59000  1.0000
  O   O7        1.0  0.49300  0.19300  0.26100  1.0000
  O   O8        1.0  0.50700  0.80700  0.73900  1.0000
  O   O9        1.0  0.98900  0.31500  0.78000  1.0000
  O   O10       1.0  0.01070  0.68500  0.22000  1.0000
  O   O11       1.0  0.00896  0.81100  0.74400  1.0000
  O   O12       1.0  0.99100  0.18900  0.25600  1.0000
  O   O13       1.0  0.64300  0.89500  0.08320  1.0000
  O   O14       1.0  0.35700  0.10500  0.91700  1.0000
  O   O15       1.0  0.65700  0.39900  0.08180  1.0000
  O   O16       1.0  0.34300  0.60100  0.91800  1.0000
  P   P1        1.0  0.74700  0.29500  0.68300  1.0000
  P   P2        1.0  0.25300  0.70500  0.31700  1.0000
  Pb  Pb1       1.0  0.74800  0.11800  0.97400  1.0000
  Pb  Pb2       1.0  0.25200  0.88200  0.02600  1.0000
  Pb  Pb3       1.0  0.22700  0.04080  0.69300  1.0000
  Pb  Pb4       1.0  0.77300  0.95900  0.30700  1.0000
  Pb  Pb5       1.0  0.73600  0.62300  0.96200  1.0000
  Pb  Pb6       1.0  0.26400  0.37700  0.03820  1.0000
  Pb  Pb7       1.0  0.21900  0.55000  0.69200  1.0000
  Pb  Pb8       1.0  0.78100  0.45000  0.30800  1.0000
