data_image0
_chemical_formula_structural       Ca6Mn2Ni2O12
_chemical_formula_sum              "Ca6 Mn2 Ni2 O12"
_cell_length_a       6.30183
_cell_length_b       6.30183
_cell_length_c       6.30184
_cell_angle_alpha    92.1258
_cell_angle_beta     92.1258
_cell_angle_gamma    92.1258

_space_group_name_H-M_alt    "P 1"
_space_group_IT_number       1

loop_
  _space_group_symop_operation_xyz
  'x, y, z'

loop_
  _atom_site_type_symbol
  _atom_site_label
  _atom_site_symmetry_multiplicity
  _atom_site_fract_x
  _atom_site_fract_y
  _atom_site_fract_z
  _atom_site_occupancy
  Ca  Ca1       1.0  0.61400  0.88600  0.25000  1.0000
  Ca  Ca2       1.0  0.25000  0.61400  0.88600  1.0000
  Ca  Ca3       1.0  0.88600  0.25000  0.61400  1.0000
  Ca  Ca4       1.0  0.38600  0.11400  0.75000  1.0000
  Ca  Ca5       1.0  0.75000  0.38600  0.11400  1.0000
  Ca  Ca6       1.0  0.11400  0.75000  0.38600  1.0000
  Mn  Mn1       1.0  0.00000  0.00000  0.00000  1.0000
  Mn  Mn2       1.0  0.50000  0.50000  0.50000  1.0000
  Ni  Ni1       1.0  0.25000  0.25000  0.25000  1.0000
  Ni  Ni2       1.0  0.75000  0.75000  0.75000  1.0000
  O   O1        1.0  0.29100  0.95800  0.08030  1.0000
  O   O2        1.0  0.08030  0.29100  0.95800  1.0000
  O   O3        1.0  0.95800  0.08030  0.29100  1.0000
  O   O4        1.0  0.54200  0.20900  0.42000  1.0000
  O   O5        1.0  0.20900  0.42000  0.54200  1.0000
  O   O6        1.0  0.42000  0.54200  0.20900  1.0000
  O   O7        1.0  0.70900  0.04230  0.92000  1.0000
  O   O8        1.0  0.92000  0.70900  0.04230  1.0000
  O   O9        1.0  0.04230  0.92000  0.70900  1.0000
  O   O10       1.0  0.45800  0.79100  0.58000  1.0000
  O   O11       1.0  0.79100  0.58000  0.45800  1.0000
  O   O12       1.0  0.58000  0.45800  0.79100  1.0000
