data_image0
_chemical_formula_structural       Al6Ce4Ge8
_chemical_formula_sum              "Al6 Ce4 Ge8"
_cell_length_a       6.10888
_cell_length_b       8.08997
_cell_length_c       8.20276
_cell_angle_alpha    90
_cell_angle_beta     68.1383
_cell_angle_gamma    90

_space_group_name_H-M_alt    "P 1"
_space_group_IT_number       1

loop_
  _space_group_symop_operation_xyz
  'x, y, z'

loop_
  _atom_site_type_symbol
  _atom_site_label
  _atom_site_symmetry_multiplicity
  _atom_site_fract_x
  _atom_site_fract_y
  _atom_site_fract_z
  _atom_site_occupancy
  Al  Al1       1.0  0.00000  0.00000  0.00000  1.0000
  Al  Al2       1.0  0.50000  0.50000  0.00000  1.0000
  Al  Al3       1.0  0.03360  0.75000  0.43300  1.0000
  Al  Al4       1.0  0.53400  0.75000  0.43300  1.0000
  Al  Al5       1.0  0.46600  0.25000  0.56700  1.0000
  Al  Al6       1.0  0.96600  0.25000  0.56700  1.0000
  Ce  Ce1       1.0  0.38600  0.08240  0.22900  1.0000
  Ce  Ce2       1.0  0.88600  0.41800  0.22900  1.0000
  Ce  Ce3       1.0  0.11400  0.58200  0.77100  1.0000
  Ce  Ce4       1.0  0.61400  0.91800  0.77100  1.0000
  Ge  Ge1       1.0  0.20100  0.75000  0.09780  1.0000
  Ge  Ge2       1.0  0.70100  0.75000  0.09780  1.0000
  Ge  Ge3       1.0  0.81400  0.05040  0.37200  1.0000
  Ge  Ge4       1.0  0.31400  0.45000  0.37200  1.0000
  Ge  Ge5       1.0  0.68600  0.55000  0.62800  1.0000
  Ge  Ge6       1.0  0.18600  0.95000  0.62800  1.0000
  Ge  Ge7       1.0  0.29900  0.25000  0.90200  1.0000
  Ge  Ge8       1.0  0.79900  0.25000  0.90200  1.0000
