data_image0
_chemical_formula_structural       H4N2Rb2
_chemical_formula_sum              "H4 N2 Rb2"
_cell_length_a       4.85759
_cell_length_b       4.00631
_cell_length_c       6.377
_cell_angle_alpha    90
_cell_angle_beta     99.296
_cell_angle_gamma    90

_space_group_name_H-M_alt    "P 1"
_space_group_IT_number       1

loop_
  _space_group_symop_operation_xyz
  'x, y, z'

loop_
  _atom_site_type_symbol
  _atom_site_label
  _atom_site_symmetry_multiplicity
  _atom_site_fract_x
  _atom_site_fract_y
  _atom_site_fract_z
  _atom_site_occupancy
  H   H1        1.0  0.65600  0.55100  0.14300  1.0000
  H   H2        1.0  0.65600  0.94900  0.14300  1.0000
  H   H3        1.0  0.34400  0.05150  0.85700  1.0000
  H   H4        1.0  0.34400  0.44900  0.85700  1.0000
  N   N1        1.0  0.72700  0.75000  0.24000  1.0000
  N   N2        1.0  0.27300  0.25000  0.76000  1.0000
  Rb  Rb1       1.0  0.19600  0.25000  0.29600  1.0000
  Rb  Rb2       1.0  0.80400  0.75000  0.70400  1.0000
