data_image0
_chemical_formula_structural       Te4Zr5
_chemical_formula_sum              "Te4 Zr5"
_cell_length_a       3.8603
_cell_length_b       7.91382
_cell_length_c       7.91382
_cell_angle_alpha    93.4103
_cell_angle_beta     104.117
_cell_angle_gamma    75.8834

_space_group_name_H-M_alt    "P 1"
_space_group_IT_number       1

loop_
  _space_group_symop_operation_xyz
  'x, y, z'

loop_
  _atom_site_type_symbol
  _atom_site_label
  _atom_site_symmetry_multiplicity
  _atom_site_fract_x
  _atom_site_fract_y
  _atom_site_fract_z
  _atom_site_occupancy
  Te  Te1       1.0  0.94800  0.33400  0.23100  1.0000
  Te  Te2       1.0  0.28200  0.76900  0.33400  1.0000
  Te  Te3       1.0  0.71800  0.23100  0.66600  1.0000
  Te  Te4       1.0  0.05180  0.66600  0.76900  1.0000
  Zr  Zr1       1.0  0.00000  0.00000  0.00000  1.0000
  Zr  Zr2       1.0  0.69100  0.67700  0.05900  1.0000
  Zr  Zr3       1.0  0.63200  0.05900  0.32300  1.0000
  Zr  Zr4       1.0  0.36800  0.94100  0.67700  1.0000
  Zr  Zr5       1.0  0.30900  0.32300  0.94100  1.0000
