data_image0
_chemical_formula_structural       O10Ru3Sr2
_chemical_formula_sum              "O10 Ru3 Sr2"
_cell_length_a       5.55549
_cell_length_b       6.1006
_cell_length_c       6.54357
_cell_angle_alpha    102.765
_cell_angle_beta     90
_cell_angle_gamma    117.086

_space_group_name_H-M_alt    "P 1"
_space_group_IT_number       1

loop_
  _space_group_symop_operation_xyz
  'x, y, z'

loop_
  _atom_site_type_symbol
  _atom_site_label
  _atom_site_symmetry_multiplicity
  _atom_site_fract_x
  _atom_site_fract_y
  _atom_site_fract_z
  _atom_site_occupancy
  O   O1        1.0  0.17800  0.35700  0.09420  1.0000
  O   O2        1.0  0.23700  0.97100  0.19600  1.0000
  O   O3        1.0  0.73400  0.97100  0.19600  1.0000
  O   O4        1.0  0.85900  0.71800  0.45900  1.0000
  O   O5        1.0  0.38400  0.76800  0.47400  1.0000
  O   O6        1.0  0.61600  0.23200  0.52600  1.0000
  O   O7        1.0  0.14100  0.28200  0.54100  1.0000
  O   O8        1.0  0.26600  0.02950  0.80400  1.0000
  O   O9        1.0  0.76300  0.02950  0.80400  1.0000
  O   O10       1.0  0.82200  0.64300  0.90600  1.0000
  Ru  Ru1       1.0  0.00000  0.00000  0.00000  1.0000
  Ru  Ru2       1.0  0.22800  0.00000  0.50000  1.0000
  Ru  Ru3       1.0  0.77200  0.00000  0.50000  1.0000
  Sr  Sr1       1.0  0.67400  0.34900  0.14900  1.0000
  Sr  Sr2       1.0  0.32600  0.65100  0.85100  1.0000
