data_image0
_chemical_formula_structural       CuF6Mo
_chemical_formula_sum              "Cu1 F6 Mo1"
_cell_length_a       4.84649
_cell_length_b       5.3599
_cell_length_c       4.81916
_cell_angle_alpha    116.656
_cell_angle_beta     120.01
_cell_angle_gamma    89.8732

_space_group_name_H-M_alt    "P 1"
_space_group_IT_number       1

loop_
  _space_group_symop_operation_xyz
  'x, y, z'

loop_
  _atom_site_type_symbol
  _atom_site_label
  _atom_site_symmetry_multiplicity
  _atom_site_fract_x
  _atom_site_fract_y
  _atom_site_fract_z
  _atom_site_occupancy
  Cu  Cu1       1.0  0.00000  0.00000  0.00000  1.0000
  F   F1        1.0  0.91300  0.74200  0.17200  1.0000
  F   F2        1.0  0.74000  0.25600  0.17300  1.0000
  F   F3        1.0  0.57000  0.74500  0.48400  1.0000
  F   F4        1.0  0.43000  0.25500  0.51600  1.0000
  F   F5        1.0  0.26000  0.74400  0.82700  1.0000
  F   F6        1.0  0.08700  0.25800  0.82800  1.0000
  Mo  Mo1       1.0  0.50000  0.50000  0.00000  1.0000
