data_image0
_chemical_formula_structural       Ag2Cs4S8V2
_chemical_formula_sum              "Ag2 Cs4 S8 V2"
_cell_length_a       5.86825
_cell_length_b       7.69316
_cell_length_c       12.6576
_cell_angle_alpha    95.0722
_cell_angle_beta     103.404
_cell_angle_gamma    67.5799

_space_group_name_H-M_alt    "P 1"
_space_group_IT_number       1

loop_
  _space_group_symop_operation_xyz
  'x, y, z'

loop_
  _atom_site_type_symbol
  _atom_site_label
  _atom_site_symmetry_multiplicity
  _atom_site_fract_x
  _atom_site_fract_y
  _atom_site_fract_z
  _atom_site_occupancy
  Ag  Ag1       1.0  0.37500  0.25000  0.25000  1.0000
  Ag  Ag2       1.0  0.62500  0.75000  0.75000  1.0000
  Cs  Cs1       1.0  0.30400  0.75000  0.10800  1.0000
  Cs  Cs2       1.0  0.94600  0.75000  0.39200  1.0000
  Cs  Cs3       1.0  0.05380  0.25000  0.60800  1.0000
  Cs  Cs4       1.0  0.69600  0.25000  0.89200  1.0000
  S   S1        1.0  0.71200  0.06660  0.14500  1.0000
  S   S2        1.0  0.93400  0.43300  0.14500  1.0000
  S   S3        1.0  0.22200  0.06660  0.35500  1.0000
  S   S4        1.0  0.63300  0.43300  0.35500  1.0000
  S   S5        1.0  0.36700  0.56700  0.64500  1.0000
  S   S6        1.0  0.77800  0.93300  0.64500  1.0000
  S   S7        1.0  0.06630  0.56700  0.85500  1.0000
  S   S8        1.0  0.28800  0.93300  0.85500  1.0000
  V   V1        1.0  0.87500  0.25000  0.25000  1.0000
  V   V2        1.0  0.12500  0.75000  0.75000  1.0000
