data_image0
_chemical_formula_structural       AgF6Sn
_chemical_formula_sum              "Ag1 F6 Sn1"
_cell_length_a       4.98534
_cell_length_b       4.97586
_cell_length_c       5.46289
_cell_angle_alpha    115.145
_cell_angle_beta     89.4178
_cell_angle_gamma    118.78

_space_group_name_H-M_alt    "P 1"
_space_group_IT_number       1

loop_
  _space_group_symop_operation_xyz
  'x, y, z'

loop_
  _atom_site_type_symbol
  _atom_site_label
  _atom_site_symmetry_multiplicity
  _atom_site_fract_x
  _atom_site_fract_y
  _atom_site_fract_z
  _atom_site_occupancy
  Ag  Ag1       1.0  0.00000  0.00000  0.00000  1.0000
  F   F1        1.0  0.74100  0.19000  0.25700  1.0000
  F   F2        1.0  0.08720  0.81900  0.26000  1.0000
  F   F3        1.0  0.46800  0.55500  0.27000  1.0000
  F   F4        1.0  0.53200  0.44500  0.73000  1.0000
  F   F5        1.0  0.91300  0.18100  0.74000  1.0000
  F   F6        1.0  0.25900  0.81000  0.74300  1.0000
  Sn  Sn1       1.0  0.50000  0.00000  0.50000  1.0000
