data_image0
_chemical_formula_structural       Br18CK4Zr6
_chemical_formula_sum              "Br18 C1 K4 Zr6"
_cell_length_a       10.4002
_cell_length_b       10.5174
_cell_length_c       10.6143
_cell_angle_alpha    118.583
_cell_angle_beta     99.8024
_cell_angle_gamma    103.788

_space_group_name_H-M_alt    "P 1"
_space_group_IT_number       1

loop_
  _space_group_symop_operation_xyz
  'x, y, z'

loop_
  _atom_site_type_symbol
  _atom_site_label
  _atom_site_symmetry_multiplicity
  _atom_site_fract_x
  _atom_site_fract_y
  _atom_site_fract_z
  _atom_site_occupancy
  Br  Br1       1.0  0.50200  0.29500  0.21200  1.0000
  Br  Br2       1.0  0.51400  0.70600  0.41200  1.0000
  Br  Br3       1.0  0.48600  0.29400  0.58800  1.0000
  Br  Br4       1.0  0.82900  0.83500  0.31300  1.0000
  Br  Br5       1.0  0.17100  0.16500  0.68700  1.0000
  Br  Br6       1.0  0.82200  0.02360  0.10000  1.0000
  Br  Br7       1.0  0.17800  0.97600  0.90000  1.0000
  Br  Br8       1.0  0.83300  0.62100  0.50300  1.0000
  Br  Br9       1.0  0.16700  0.37900  0.49700  1.0000
  Br  Br10      1.0  0.49800  0.70500  0.78800  1.0000
  Br  Br11      1.0  0.18200  0.37300  0.10100  1.0000
  Br  Br12      1.0  0.81800  0.62700  0.89900  1.0000
  Br  Br13      1.0  0.49300  0.08630  0.80200  1.0000
  Br  Br14      1.0  0.50700  0.91400  0.19800  1.0000
  Br  Br15      1.0  0.17800  0.58000  0.89100  1.0000
  Br  Br16      1.0  0.82200  0.42000  0.10900  1.0000
  Br  Br17      1.0  0.20100  0.77900  0.29100  1.0000
  Br  Br18      1.0  0.79900  0.22100  0.70900  1.0000
  C   C1        1.0  0.50000  0.50000  0.00000  1.0000
  K   K1        1.0  0.15100  0.03820  0.22700  1.0000
  K   K2        1.0  0.84900  0.96200  0.77300  1.0000
  K   K3        1.0  0.18600  0.72300  0.56400  1.0000
  K   K4        1.0  0.81400  0.27700  0.43600  1.0000
  Zr  Zr1       1.0  0.36500  0.62500  0.13200  1.0000
  Zr  Zr2       1.0  0.63500  0.37500  0.86800  1.0000
  Zr  Zr3       1.0  0.35400  0.44500  0.77400  1.0000
  Zr  Zr4       1.0  0.64600  0.55500  0.22600  1.0000
  Zr  Zr5       1.0  0.35800  0.26600  0.95600  1.0000
  Zr  Zr6       1.0  0.64200  0.73400  0.04360  1.0000
