data_image0
_chemical_formula_structural       Au8S6Tl4
_chemical_formula_sum              "Au8 S6 Tl4"
_cell_length_a       7.65745
_cell_length_b       12.3884
_cell_length_c       4.85719
_cell_angle_alpha    90
_cell_angle_beta     90
_cell_angle_gamma    90

_space_group_name_H-M_alt    "P 1"
_space_group_IT_number       1

loop_
  _space_group_symop_operation_xyz
  'x, y, z'

loop_
  _atom_site_type_symbol
  _atom_site_label
  _atom_site_symmetry_multiplicity
  _atom_site_fract_x
  _atom_site_fract_y
  _atom_site_fract_z
  _atom_site_occupancy
  Au  Au1       1.0  0.00000  0.00000  0.00000  1.0000
  Au  Au2       1.0  0.50000  0.00000  0.00000  1.0000
  Au  Au3       1.0  0.00000  0.50000  0.00000  1.0000
  Au  Au4       1.0  0.50000  0.50000  0.00000  1.0000
  Au  Au5       1.0  0.75000  0.59300  0.44700  1.0000
  Au  Au6       1.0  0.75000  0.90700  0.44700  1.0000
  Au  Au7       1.0  0.25000  0.09290  0.55300  1.0000
  Au  Au8       1.0  0.25000  0.40700  0.55300  1.0000
  S   S1        1.0  0.75000  0.75000  0.17900  1.0000
  S   S2        1.0  0.25000  0.55500  0.24800  1.0000
  S   S3        1.0  0.25000  0.94500  0.24800  1.0000
  S   S4        1.0  0.75000  0.05470  0.75200  1.0000
  S   S5        1.0  0.75000  0.44500  0.75200  1.0000
  S   S6        1.0  0.25000  0.25000  0.82100  1.0000
  Tl  Tl1       1.0  0.52400  0.25000  0.25500  1.0000
  Tl  Tl2       1.0  0.97600  0.25000  0.25500  1.0000
  Tl  Tl3       1.0  0.02450  0.75000  0.74500  1.0000
  Tl  Tl4       1.0  0.47600  0.75000  0.74500  1.0000
