data_image0
_chemical_formula_structural       Ag2O2Pd
_chemical_formula_sum              "Ag2 O2 Pd1"
_cell_length_a       3.01465
_cell_length_b       4.57858
_cell_length_c       5.6878
_cell_angle_alpha    113.734
_cell_angle_beta     105.368
_cell_angle_gamma    90

_space_group_name_H-M_alt    "P 1"
_space_group_IT_number       1

loop_
  _space_group_symop_operation_xyz
  'x, y, z'

loop_
  _atom_site_type_symbol
  _atom_site_label
  _atom_site_symmetry_multiplicity
  _atom_site_fract_x
  _atom_site_fract_y
  _atom_site_fract_z
  _atom_site_occupancy
  Ag  Ag1       1.0  0.64100  0.64100  0.28200  1.0000
  Ag  Ag2       1.0  0.35900  0.35900  0.71800  1.0000
  O   O1        1.0  0.64100  0.14100  0.28300  1.0000
  O   O2        1.0  0.35900  0.85900  0.71700  1.0000
  Pd  Pd1       1.0  0.00000  0.00000  0.00000  1.0000
