data_image0
_chemical_formula_structural       Cl4Hg4P2
_chemical_formula_sum              "Cl4 Hg4 P2"
_cell_length_a       6.00188
_cell_length_b       6.00188
_cell_length_c       7.74102
_cell_angle_alpha    70.5839
_cell_angle_beta     109.416
_cell_angle_gamma    94.6508

_space_group_name_H-M_alt    "P 1"
_space_group_IT_number       1

loop_
  _space_group_symop_operation_xyz
  'x, y, z'

loop_
  _atom_site_type_symbol
  _atom_site_label
  _atom_site_symmetry_multiplicity
  _atom_site_fract_x
  _atom_site_fract_y
  _atom_site_fract_z
  _atom_site_occupancy
  Cl  Cl1       1.0  0.10500  0.89500  0.21900  1.0000
  Cl  Cl2       1.0  0.72300  0.72300  0.50000  1.0000
  Cl  Cl3       1.0  0.27700  0.27700  0.50000  1.0000
  Cl  Cl4       1.0  0.89500  0.10500  0.78100  1.0000
  Hg  Hg1       1.0  0.00000  0.50000  0.00000  1.0000
  Hg  Hg2       1.0  0.71000  0.29000  0.42900  1.0000
  Hg  Hg3       1.0  0.29000  0.71000  0.57100  1.0000
  Hg  Hg4       1.0  0.50000  0.00000  0.00000  1.0000
  P   P1        1.0  0.63900  0.36100  0.08470  1.0000
  P   P2        1.0  0.36100  0.63900  0.91500  1.0000
