data_image0
_chemical_formula_structural       Ag4Cu4O6
_chemical_formula_sum              "Ag4 Cu4 O6"
_cell_length_a       5.89177
_cell_length_b       5.89177
_cell_length_c       6.78451
_cell_angle_alpha    115.735
_cell_angle_beta     115.735
_cell_angle_gamma    90

_space_group_name_H-M_alt    "P 1"
_space_group_IT_number       1

loop_
  _space_group_symop_operation_xyz
  'x, y, z'

loop_
  _atom_site_type_symbol
  _atom_site_label
  _atom_site_symmetry_multiplicity
  _atom_site_fract_x
  _atom_site_fract_y
  _atom_site_fract_z
  _atom_site_occupancy
  Ag  Ag1       1.0  0.00000  0.00000  0.00000  1.0000
  Ag  Ag2       1.0  0.00000  0.50000  0.00000  1.0000
  Ag  Ag3       1.0  0.00000  0.50000  0.50000  1.0000
  Ag  Ag4       1.0  0.50000  0.50000  0.50000  1.0000
  Cu  Cu1       1.0  0.50000  0.00000  0.00000  1.0000
  Cu  Cu2       1.0  0.50000  0.50000  0.00000  1.0000
  Cu  Cu3       1.0  0.00000  0.00000  0.50000  1.0000
  Cu  Cu4       1.0  0.50000  0.00000  0.50000  1.0000
  O   O1        1.0  0.61100  0.36100  0.22300  1.0000
  O   O2        1.0  0.62500  0.87500  0.25000  1.0000
  O   O3        1.0  0.13900  0.88900  0.27700  1.0000
  O   O4        1.0  0.86100  0.11100  0.72300  1.0000
  O   O5        1.0  0.37500  0.12500  0.75000  1.0000
  O   O6        1.0  0.38900  0.63900  0.77700  1.0000
