data_image0
_chemical_formula_structural       O12Re4Sb2
_chemical_formula_sum              "O12 Re4 Sb2"
_cell_length_a       4.93743
_cell_length_b       5.50234
_cell_length_c       8.36476
_cell_angle_alpha    92.0895
_cell_angle_beta     107.166
_cell_angle_gamma    90

_space_group_name_H-M_alt    "P 1"
_space_group_IT_number       1

loop_
  _space_group_symop_operation_xyz
  'x, y, z'

loop_
  _atom_site_type_symbol
  _atom_site_label
  _atom_site_symmetry_multiplicity
  _atom_site_fract_x
  _atom_site_fract_y
  _atom_site_fract_z
  _atom_site_occupancy
  O   O1        1.0  0.48000  0.92600  0.13700  1.0000
  O   O2        1.0  0.65700  0.42600  0.13700  1.0000
  O   O3        1.0  0.10600  0.11000  0.27400  1.0000
  O   O4        1.0  0.16800  0.61000  0.27400  1.0000
  O   O5        1.0  0.69100  0.17300  0.43100  1.0000
  O   O6        1.0  0.74000  0.67300  0.43100  1.0000
  O   O7        1.0  0.26000  0.32700  0.56900  1.0000
  O   O8        1.0  0.30900  0.82700  0.56900  1.0000
  O   O9        1.0  0.83200  0.39000  0.72600  1.0000
  O   O10       1.0  0.89400  0.89000  0.72600  1.0000
  O   O11       1.0  0.52000  0.07390  0.86300  1.0000
  O   O12       1.0  0.34300  0.57400  0.86300  1.0000
  Re  Re1       1.0  0.41500  0.88900  0.36100  1.0000
  Re  Re2       1.0  0.94600  0.38900  0.36100  1.0000
  Re  Re3       1.0  0.05400  0.61100  0.63900  1.0000
  Re  Re4       1.0  0.58500  0.11100  0.63900  1.0000
  Sb  Sb1       1.0  0.29500  0.25000  0.00000  1.0000
  Sb  Sb2       1.0  0.70500  0.75000  0.00000  1.0000
