data_image0
_chemical_formula_structural       Ca2Cl4
_chemical_formula_sum              "Ca2 Cl4"
_cell_length_a       6.27915
_cell_length_b       6.49339
_cell_length_c       4.15916
_cell_angle_alpha    90
_cell_angle_beta     90
_cell_angle_gamma    90

_space_group_name_H-M_alt    "P 1"
_space_group_IT_number       1

loop_
  _space_group_symop_operation_xyz
  'x, y, z'

loop_
  _atom_site_type_symbol
  _atom_site_label
  _atom_site_symmetry_multiplicity
  _atom_site_fract_x
  _atom_site_fract_y
  _atom_site_fract_z
  _atom_site_occupancy
  Ca  Ca1       1.0  0.00000  0.00000  0.00000  1.0000
  Ca  Ca2       1.0  0.50000  0.50000  0.50000  1.0000
  Cl  Cl1       1.0  0.27700  0.32700  0.00000  1.0000
  Cl  Cl2       1.0  0.72300  0.67300  0.00000  1.0000
  Cl  Cl3       1.0  0.77700  0.17300  0.50000  1.0000
  Cl  Cl4       1.0  0.22300  0.82700  0.50000  1.0000
