data_image0
_chemical_formula_structural       C2Ho2Ru4Si2
_chemical_formula_sum              "C2 Ho2 Ru4 Si2"
_cell_length_a       3.77594
_cell_length_b       5.89165
_cell_length_c       7.1598
_cell_angle_alpha    90
_cell_angle_beta     90
_cell_angle_gamma    71.31

_space_group_name_H-M_alt    "P 1"
_space_group_IT_number       1

loop_
  _space_group_symop_operation_xyz
  'x, y, z'

loop_
  _atom_site_type_symbol
  _atom_site_label
  _atom_site_symmetry_multiplicity
  _atom_site_fract_x
  _atom_site_fract_y
  _atom_site_fract_z
  _atom_site_occupancy
  C   C1        1.0  0.50000  0.00000  0.00000  1.0000
  C   C2        1.0  0.50000  0.00000  0.50000  1.0000
  Ho  Ho1       1.0  0.95400  0.09140  0.25000  1.0000
  Ho  Ho2       1.0  0.04570  0.90900  0.75000  1.0000
  Ru  Ru1       1.0  0.66400  0.67100  0.05680  1.0000
  Ru  Ru2       1.0  0.66400  0.67100  0.44300  1.0000
  Ru  Ru3       1.0  0.33600  0.32900  0.55700  1.0000
  Ru  Ru4       1.0  0.33600  0.32900  0.94300  1.0000
  Si  Si1       1.0  0.23300  0.53400  0.25000  1.0000
  Si  Si2       1.0  0.76700  0.46600  0.75000  1.0000
