data_image0
_chemical_formula_structural       Nd4Ni3O8
_chemical_formula_sum              "Nd4 Ni3 O8"
_cell_length_a       3.92701
_cell_length_b       3.92701
_cell_length_c       12.8633
_cell_angle_alpha    98.7802
_cell_angle_beta     98.7802
_cell_angle_gamma    90

_space_group_name_H-M_alt    "P 1"
_space_group_IT_number       1

loop_
  _space_group_symop_operation_xyz
  'x, y, z'

loop_
  _atom_site_type_symbol
  _atom_site_label
  _atom_site_symmetry_multiplicity
  _atom_site_fract_x
  _atom_site_fract_y
  _atom_site_fract_z
  _atom_site_occupancy
  Nd  Nd1       1.0  0.56600  0.56600  0.13300  1.0000
  Nd  Nd2       1.0  0.70100  0.70100  0.40300  1.0000
  Nd  Nd3       1.0  0.29900  0.29900  0.59700  1.0000
  Nd  Nd4       1.0  0.43400  0.43400  0.86700  1.0000
  Ni  Ni1       1.0  0.00000  0.00000  0.00000  1.0000
  Ni  Ni2       1.0  0.12600  0.12600  0.25100  1.0000
  Ni  Ni3       1.0  0.87400  0.87400  0.74900  1.0000
  O   O1        1.0  0.50000  0.00000  0.00000  1.0000
  O   O2        1.0  0.00000  0.50000  0.00000  1.0000
  O   O3        1.0  0.62600  0.12600  0.25200  1.0000
  O   O4        1.0  0.12600  0.62600  0.25200  1.0000
  O   O5        1.0  0.75000  0.25000  0.50000  1.0000
  O   O6        1.0  0.25000  0.75000  0.50000  1.0000
  O   O7        1.0  0.87400  0.37400  0.74800  1.0000
  O   O8        1.0  0.37400  0.87400  0.74800  1.0000
