data_image0
_chemical_formula_structural       Ca6Co2O12Rh2
_chemical_formula_sum              "Ca6 Co2 O12 Rh2"
_cell_length_a       6.39703
_cell_length_b       6.39703
_cell_length_c       6.39703
_cell_angle_alpha    91.511
_cell_angle_beta     91.511
_cell_angle_gamma    91.511

_space_group_name_H-M_alt    "P 1"
_space_group_IT_number       1

loop_
  _space_group_symop_operation_xyz
  'x, y, z'

loop_
  _atom_site_type_symbol
  _atom_site_label
  _atom_site_symmetry_multiplicity
  _atom_site_fract_x
  _atom_site_fract_y
  _atom_site_fract_z
  _atom_site_occupancy
  Ca  Ca1       1.0  0.61600  0.88400  0.25000  1.0000
  Ca  Ca2       1.0  0.25000  0.61600  0.88400  1.0000
  Ca  Ca3       1.0  0.88400  0.25000  0.61600  1.0000
  Ca  Ca4       1.0  0.38400  0.11600  0.75000  1.0000
  Ca  Ca5       1.0  0.75000  0.38400  0.11600  1.0000
  Ca  Ca6       1.0  0.11600  0.75000  0.38400  1.0000
  Co  Co1       1.0  0.25000  0.25000  0.25000  1.0000
  Co  Co2       1.0  0.75000  0.75000  0.75000  1.0000
  O   O1        1.0  0.30100  0.95900  0.08150  1.0000
  O   O2        1.0  0.08150  0.30100  0.95900  1.0000
  O   O3        1.0  0.95900  0.08150  0.30100  1.0000
  O   O4        1.0  0.54100  0.19900  0.41900  1.0000
  O   O5        1.0  0.19900  0.41900  0.54100  1.0000
  O   O6        1.0  0.41900  0.54100  0.19900  1.0000
  O   O7        1.0  0.69900  0.04080  0.91900  1.0000
  O   O8        1.0  0.91900  0.69900  0.04080  1.0000
  O   O9        1.0  0.04080  0.91900  0.69900  1.0000
  O   O10       1.0  0.45900  0.80100  0.58100  1.0000
  O   O11       1.0  0.80100  0.58100  0.45900  1.0000
  O   O12       1.0  0.58100  0.45900  0.80100  1.0000
  Rh  Rh1       1.0  0.00000  0.00000  0.00000  1.0000
  Rh  Rh2       1.0  0.50000  0.50000  0.50000  1.0000
