data_image0
_chemical_formula_structural       Al2CdSe4
_chemical_formula_sum              "Al2 Cd1 Se4"
_cell_length_a       5.84349
_cell_length_b       5.84349
_cell_length_c       6.80735
_cell_angle_alpha    115.417
_cell_angle_beta     115.417
_cell_angle_gamma    90

_space_group_name_H-M_alt    "P 1"
_space_group_IT_number       1

loop_
  _space_group_symop_operation_xyz
  'x, y, z'

loop_
  _atom_site_type_symbol
  _atom_site_label
  _atom_site_symmetry_multiplicity
  _atom_site_fract_x
  _atom_site_fract_y
  _atom_site_fract_z
  _atom_site_occupancy
  Al  Al1       1.0  0.50000  0.50000  0.00000  1.0000
  Al  Al2       1.0  0.25000  0.75000  0.50000  1.0000
  Cd  Cd1       1.0  0.00000  0.00000  0.00000  1.0000
  Se  Se1       1.0  0.41000  0.40500  0.27600  1.0000
  Se  Se2       1.0  0.86600  0.87100  0.27600  1.0000
  Se  Se3       1.0  0.59500  0.13400  0.72400  1.0000
  Se  Se4       1.0  0.12900  0.59000  0.72400  1.0000
