data_image0
_chemical_formula_structural       Ag2K4Se8V2
_chemical_formula_sum              "Ag2 K4 Se8 V2"
_cell_length_a       6.01351
_cell_length_b       7.39809
_cell_length_c       12.0549
_cell_angle_alpha    95.8181
_cell_angle_beta     104.443
_cell_angle_gamma    66.0197

_space_group_name_H-M_alt    "P 1"
_space_group_IT_number       1

loop_
  _space_group_symop_operation_xyz
  'x, y, z'

loop_
  _atom_site_type_symbol
  _atom_site_label
  _atom_site_symmetry_multiplicity
  _atom_site_fract_x
  _atom_site_fract_y
  _atom_site_fract_z
  _atom_site_occupancy
  Ag  Ag1       1.0  0.62500  0.75000  0.25000  1.0000
  Ag  Ag2       1.0  0.37500  0.25000  0.75000  1.0000
  K   K1        1.0  0.05740  0.25000  0.11500  1.0000
  K   K2        1.0  0.69300  0.25000  0.38500  1.0000
  K   K3        1.0  0.30700  0.75000  0.61500  1.0000
  K   K4        1.0  0.94300  0.75000  0.88500  1.0000
  Se  Se1       1.0  0.37600  0.54400  0.13200  1.0000
  Se  Se2       1.0  0.75600  0.95600  0.13200  1.0000
  Se  Se3       1.0  0.07990  0.54400  0.36800  1.0000
  Se  Se4       1.0  0.28800  0.95600  0.36800  1.0000
  Se  Se5       1.0  0.71200  0.04400  0.63200  1.0000
  Se  Se6       1.0  0.92000  0.45600  0.63200  1.0000
  Se  Se7       1.0  0.24400  0.04400  0.86800  1.0000
  Se  Se8       1.0  0.62400  0.45600  0.86800  1.0000
  V   V1        1.0  0.12500  0.75000  0.25000  1.0000
  V   V2        1.0  0.87500  0.25000  0.75000  1.0000
