data_image0
_chemical_formula_structural       I2N2Zr2
_chemical_formula_sum              "I2 N2 Zr2"
_cell_length_a       4.15295
_cell_length_b       3.76009
_cell_length_c       9.462
_cell_angle_alpha    90
_cell_angle_beta     90
_cell_angle_gamma    90

_space_group_name_H-M_alt    "P 1"
_space_group_IT_number       1

loop_
  _space_group_symop_operation_xyz
  'x, y, z'

loop_
  _atom_site_type_symbol
  _atom_site_label
  _atom_site_symmetry_multiplicity
  _atom_site_fract_x
  _atom_site_fract_y
  _atom_site_fract_z
  _atom_site_occupancy
  I   I1        1.0  0.00000  0.00000  0.33400  1.0000
  I   I2        1.0  0.50000  0.50000  0.66600  1.0000
  N   N1        1.0  0.50000  0.50000  0.02600  1.0000
  N   N2        1.0  0.00000  0.00000  0.97400  1.0000
  Zr  Zr1       1.0  0.00000  0.50000  0.09050  1.0000
  Zr  Zr2       1.0  0.50000  0.00000  0.91000  1.0000
