data_image0
_chemical_formula_structural       CuO8P2Sr2
_chemical_formula_sum              "Cu1 O8 P2 Sr2"
_cell_length_a       5.05797
_cell_length_b       6.27058
_cell_length_c       6.52806
_cell_angle_alpha    105.008
_cell_angle_beta     90
_cell_angle_gamma    113.785

_space_group_name_H-M_alt    "P 1"
_space_group_IT_number       1

loop_
  _space_group_symop_operation_xyz
  'x, y, z'

loop_
  _atom_site_type_symbol
  _atom_site_label
  _atom_site_symmetry_multiplicity
  _atom_site_fract_x
  _atom_site_fract_y
  _atom_site_fract_z
  _atom_site_occupancy
  Cu  Cu1       1.0  0.50000  0.00000  0.50000  1.0000
  O   O1        1.0  0.72700  0.45400  0.13500  1.0000
  O   O2        1.0  0.95200  0.90300  0.16700  1.0000
  O   O3        1.0  0.11400  0.73800  0.44200  1.0000
  O   O4        1.0  0.62400  0.73800  0.44200  1.0000
  O   O5        1.0  0.37600  0.26200  0.55800  1.0000
  O   O6        1.0  0.88600  0.26200  0.55800  1.0000
  O   O7        1.0  0.04840  0.09690  0.83300  1.0000
  O   O8        1.0  0.27300  0.54600  0.86500  1.0000
  P   P1        1.0  0.85700  0.71300  0.28900  1.0000
  P   P2        1.0  0.14300  0.28700  0.71100  1.0000
  Sr  Sr1       1.0  0.17100  0.34300  0.21700  1.0000
  Sr  Sr2       1.0  0.82900  0.65700  0.78300  1.0000
