data_image0
_chemical_formula_structural       Ba2Fe2La4S10
_chemical_formula_sum              "Ba2 Fe2 La4 S10"
_cell_length_a       7.98745
_cell_length_b       7.98745
_cell_length_c       8.79264
_cell_angle_alpha    117.014
_cell_angle_beta     117.014
_cell_angle_gamma    90

_space_group_name_H-M_alt    "P 1"
_space_group_IT_number       1

loop_
  _space_group_symop_operation_xyz
  'x, y, z'

loop_
  _atom_site_type_symbol
  _atom_site_label
  _atom_site_symmetry_multiplicity
  _atom_site_fract_x
  _atom_site_fract_y
  _atom_site_fract_z
  _atom_site_occupancy
  Ba  Ba1       1.0  0.25000  0.25000  0.50000  1.0000
  Ba  Ba2       1.0  0.75000  0.75000  0.50000  1.0000
  Fe  Fe1       1.0  0.75000  0.25000  0.50000  1.0000
  Fe  Fe2       1.0  0.25000  0.75000  0.50000  1.0000
  La  La1       1.0  0.66300  0.16300  0.00000  1.0000
  La  La2       1.0  0.16300  0.33700  0.00000  1.0000
  La  La3       1.0  0.83700  0.66300  0.00000  1.0000
  La  La4       1.0  0.33700  0.83700  0.00000  1.0000
  S   S1        1.0  0.00000  0.00000  0.00000  1.0000
  S   S2        1.0  0.50000  0.50000  0.00000  1.0000
  S   S3        1.0  0.48900  0.28500  0.27400  1.0000
  S   S4        1.0  0.98900  0.48900  0.27400  1.0000
  S   S5        1.0  0.28500  0.78500  0.27400  1.0000
  S   S6        1.0  0.78500  0.98900  0.27400  1.0000
  S   S7        1.0  0.21500  0.01090  0.72600  1.0000
  S   S8        1.0  0.71500  0.21500  0.72600  1.0000
  S   S9        1.0  0.01090  0.51100  0.72600  1.0000
  S   S10       1.0  0.51100  0.71500  0.72600  1.0000
