data_image0
_chemical_formula_structural       Cu2H4O12Se4
_chemical_formula_sum              "Cu2 H4 O12 Se4"
_cell_length_a       5.72908
_cell_length_b       7.27452
_cell_length_c       6.33571
_cell_angle_alpha    90
_cell_angle_beta     93.7085
_cell_angle_gamma    90

_space_group_name_H-M_alt    "P 1"
_space_group_IT_number       1

loop_
  _space_group_symop_operation_xyz
  'x, y, z'

loop_
  _atom_site_type_symbol
  _atom_site_label
  _atom_site_symmetry_multiplicity
  _atom_site_fract_x
  _atom_site_fract_y
  _atom_site_fract_z
  _atom_site_occupancy
  Cu  Cu1       1.0  0.00000  0.00000  0.00000  1.0000
  Cu  Cu2       1.0  0.50000  0.50000  0.50000  1.0000
  H   H1        1.0  0.09610  0.39700  0.16600  1.0000
  H   H2        1.0  0.40400  0.89700  0.33400  1.0000
  H   H3        1.0  0.59600  0.10300  0.66600  1.0000
  H   H4        1.0  0.90400  0.60300  0.83400  1.0000
  O   O1        1.0  0.95100  0.73600  0.02920  1.0000
  O   O2        1.0  0.37300  0.97700  0.20300  1.0000
  O   O3        1.0  0.66300  0.54500  0.24400  1.0000
  O   O4        1.0  0.83700  0.04520  0.25600  1.0000
  O   O5        1.0  0.12700  0.47700  0.29700  1.0000
  O   O6        1.0  0.54900  0.23600  0.47100  1.0000
  O   O7        1.0  0.45100  0.76400  0.52900  1.0000
  O   O8        1.0  0.87300  0.52300  0.70300  1.0000
  O   O9        1.0  0.16300  0.95500  0.74400  1.0000
  O   O10       1.0  0.33700  0.45500  0.75600  1.0000
  O   O11       1.0  0.62700  0.02250  0.79700  1.0000
  O   O12       1.0  0.04910  0.26400  0.97100  1.0000
  Se  Se1       1.0  0.58200  0.16500  0.21300  1.0000
  Se  Se2       1.0  0.91800  0.66500  0.28700  1.0000
  Se  Se3       1.0  0.08170  0.33500  0.71300  1.0000
  Se  Se4       1.0  0.41800  0.83500  0.78700  1.0000
