data_image0
_chemical_formula_structural       Li4Mn4O36P12
_chemical_formula_sum              "Li4 Mn4 O36 P12"
_cell_length_a       8.25442
_cell_length_b       8.41736
_cell_length_c       8.52613
_cell_angle_alpha    90
_cell_angle_beta     90
_cell_angle_gamma    90

_space_group_name_H-M_alt    "P 1"
_space_group_IT_number       1

loop_
  _space_group_symop_operation_xyz
  'x, y, z'

loop_
  _atom_site_type_symbol
  _atom_site_label
  _atom_site_symmetry_multiplicity
  _atom_site_fract_x
  _atom_site_fract_y
  _atom_site_fract_z
  _atom_site_occupancy
  Li  Li1       1.0  0.64900  0.36000  0.62000  1.0000
  Li  Li2       1.0  0.85100  0.64000  0.12000  1.0000
  Li  Li3       1.0  0.14900  0.14000  0.38000  1.0000
  Li  Li4       1.0  0.35100  0.86000  0.88000  1.0000
  Mn  Mn1       1.0  0.87300  0.36400  0.34700  1.0000
  Mn  Mn2       1.0  0.62700  0.63600  0.84700  1.0000
  Mn  Mn3       1.0  0.37300  0.13600  0.65300  1.0000
  Mn  Mn4       1.0  0.12700  0.86400  0.15300  1.0000
  O   O1        1.0  0.84300  0.36200  0.10400  1.0000
  O   O2        1.0  0.65700  0.63800  0.60400  1.0000
  O   O3        1.0  0.34300  0.13800  0.89600  1.0000
  O   O4        1.0  0.15700  0.86200  0.39600  1.0000
  O   O5        1.0  0.68200  0.39400  0.85000  1.0000
  O   O6        1.0  0.81800  0.60600  0.35000  1.0000
  O   O7        1.0  0.18200  0.10600  0.15000  1.0000
  O   O8        1.0  0.31800  0.89400  0.65000  1.0000
  O   O9        1.0  0.72700  0.12400  0.96300  1.0000
  O   O10       1.0  0.77300  0.87600  0.46300  1.0000
  O   O11       1.0  0.22700  0.37600  0.03740  1.0000
  O   O12       1.0  0.27300  0.62400  0.53700  1.0000
  O   O13       1.0  0.96200  0.26100  0.85600  1.0000
  O   O14       1.0  0.53800  0.73900  0.35600  1.0000
  O   O15       1.0  0.46200  0.23900  0.14400  1.0000
  O   O16       1.0  0.03770  0.76100  0.64400  1.0000
  O   O17       1.0  0.63200  0.11900  0.67600  1.0000
  O   O18       1.0  0.86800  0.88100  0.17600  1.0000
  O   O19       1.0  0.13200  0.38100  0.32400  1.0000
  O   O20       1.0  0.36800  0.61900  0.82400  1.0000
  O   O21       1.0  0.86500  0.95800  0.76300  1.0000
  O   O22       1.0  0.63500  0.04180  0.26300  1.0000
  O   O23       1.0  0.36500  0.54200  0.23700  1.0000
  O   O24       1.0  0.13500  0.45800  0.73700  1.0000
  O   O25       1.0  0.41400  0.38300  0.63700  1.0000
  O   O26       1.0  0.08590  0.61700  0.13700  1.0000
  O   O27       1.0  0.91400  0.11700  0.36300  1.0000
  O   O28       1.0  0.58600  0.88300  0.86300  1.0000
  O   O29       1.0  0.11600  0.87600  0.90700  1.0000
  O   O30       1.0  0.38400  0.12400  0.40700  1.0000
  O   O31       1.0  0.61600  0.62400  0.09310  1.0000
  O   O32       1.0  0.88400  0.37600  0.59300  1.0000
  O   O33       1.0  0.87900  0.68200  0.88300  1.0000
  O   O34       1.0  0.62100  0.31800  0.38300  1.0000
  O   O35       1.0  0.37900  0.81800  0.11700  1.0000
  O   O36       1.0  0.12100  0.18200  0.61700  1.0000
  P   P1        1.0  0.79700  0.30000  0.94800  1.0000
  P   P2        1.0  0.70300  0.70000  0.44800  1.0000
  P   P3        1.0  0.29700  0.20000  0.05210  1.0000
  P   P4        1.0  0.20300  0.80000  0.55200  1.0000
  P   P5        1.0  0.97800  0.81300  0.81400  1.0000
  P   P6        1.0  0.52200  0.18700  0.31400  1.0000
  P   P7        1.0  0.47800  0.68700  0.18600  1.0000
  P   P8        1.0  0.02240  0.31300  0.68600  1.0000
  P   P9        1.0  0.69000  0.01730  0.81000  1.0000
  P   P10       1.0  0.81000  0.98300  0.31000  1.0000
  P   P11       1.0  0.19000  0.48300  0.19000  1.0000
  P   P12       1.0  0.31000  0.51700  0.69000  1.0000
