data_image0
_chemical_formula_structural       Rh2Si6Y6
_chemical_formula_sum              "Rh2 Si6 Y6"
_cell_length_a       4.23165
_cell_length_b       5.6999
_cell_length_c       12.8897
_cell_angle_alpha    91.4653
_cell_angle_beta     99.4478
_cell_angle_gamma    68.2101

_space_group_name_H-M_alt    "P 1"
_space_group_IT_number       1

loop_
  _space_group_symop_operation_xyz
  'x, y, z'

loop_
  _atom_site_type_symbol
  _atom_site_label
  _atom_site_symmetry_multiplicity
  _atom_site_fract_x
  _atom_site_fract_y
  _atom_site_fract_z
  _atom_site_occupancy
  Rh  Rh1       1.0  0.16800  0.07900  0.41500  1.0000
  Rh  Rh2       1.0  0.83200  0.92100  0.58500  1.0000
  Si  Si1       1.0  0.96200  0.15000  0.07510  1.0000
  Si  Si2       1.0  0.19100  0.85500  0.23700  1.0000
  Si  Si3       1.0  0.58700  0.28200  0.45600  1.0000
  Si  Si4       1.0  0.41300  0.71800  0.54400  1.0000
  Si  Si5       1.0  0.80900  0.14500  0.76300  1.0000
  Si  Si6       1.0  0.03760  0.85000  0.92500  1.0000
  Y   Y1        1.0  0.68200  0.71500  0.07900  1.0000
  Y   Y2        1.0  0.48500  0.25900  0.22800  1.0000
  Y   Y3        1.0  0.85400  0.66900  0.37600  1.0000
  Y   Y4        1.0  0.14600  0.33100  0.62400  1.0000
  Y   Y5        1.0  0.51500  0.74100  0.77200  1.0000
  Y   Y6        1.0  0.31800  0.28500  0.92100  1.0000
