data_image0
_chemical_formula_structural       Ir4Sb4Sm4
_chemical_formula_sum              "Ir4 Sb4 Sm4"
_cell_length_a       7.3029
_cell_length_b       4.57071
_cell_length_c       7.95108
_cell_angle_alpha    90
_cell_angle_beta     90
_cell_angle_gamma    90

_space_group_name_H-M_alt    "P 1"
_space_group_IT_number       1

loop_
  _space_group_symop_operation_xyz
  'x, y, z'

loop_
  _atom_site_type_symbol
  _atom_site_label
  _atom_site_symmetry_multiplicity
  _atom_site_fract_x
  _atom_site_fract_y
  _atom_site_fract_z
  _atom_site_occupancy
  Ir  Ir1       1.0  0.79600  0.25000  0.08870  1.0000
  Ir  Ir2       1.0  0.29600  0.25000  0.41100  1.0000
  Ir  Ir3       1.0  0.70400  0.75000  0.58900  1.0000
  Ir  Ir4       1.0  0.20400  0.75000  0.91100  1.0000
  Sb  Sb1       1.0  0.17800  0.25000  0.08800  1.0000
  Sb  Sb2       1.0  0.67800  0.25000  0.41200  1.0000
  Sb  Sb3       1.0  0.32200  0.75000  0.58800  1.0000
  Sb  Sb4       1.0  0.82200  0.75000  0.91200  1.0000
  Sm  Sm1       1.0  0.48800  0.75000  0.19200  1.0000
  Sm  Sm2       1.0  0.98800  0.75000  0.30800  1.0000
  Sm  Sm3       1.0  0.01230  0.25000  0.69200  1.0000
  Sm  Sm4       1.0  0.51200  0.25000  0.80800  1.0000
