data_image0
_chemical_formula_structural       In2Li4
_chemical_formula_sum              "In2 Li4"
_cell_length_a       4.68331
_cell_length_b       4.672
_cell_length_c       5.47347
_cell_angle_alpha    64.7363
_cell_angle_beta     90
_cell_angle_gamma    90

_space_group_name_H-M_alt    "P 1"
_space_group_IT_number       1

loop_
  _space_group_symop_operation_xyz
  'x, y, z'

loop_
  _atom_site_type_symbol
  _atom_site_label
  _atom_site_symmetry_multiplicity
  _atom_site_fract_x
  _atom_site_fract_y
  _atom_site_fract_z
  _atom_site_occupancy
  In  In1       1.0  0.25000  0.91100  0.17800  1.0000
  In  In2       1.0  0.75000  0.08880  0.82200  1.0000
  Li  Li1       1.0  0.75000  0.41000  0.18000  1.0000
  Li  Li2       1.0  0.75000  0.75800  0.48400  1.0000
  Li  Li3       1.0  0.25000  0.24200  0.51600  1.0000
  Li  Li4       1.0  0.25000  0.59000  0.82000  1.0000
