data_image0
_chemical_formula_structural       Ba2Fe2S10Sm4
_chemical_formula_sum              "Ba2 Fe2 S10 Sm4"
_cell_length_a       7.79986
_cell_length_b       7.79986
_cell_length_c       8.70624
_cell_angle_alpha    116.612
_cell_angle_beta     116.612
_cell_angle_gamma    90

_space_group_name_H-M_alt    "P 1"
_space_group_IT_number       1

loop_
  _space_group_symop_operation_xyz
  'x, y, z'

loop_
  _atom_site_type_symbol
  _atom_site_label
  _atom_site_symmetry_multiplicity
  _atom_site_fract_x
  _atom_site_fract_y
  _atom_site_fract_z
  _atom_site_occupancy
  Ba  Ba1       1.0  0.25000  0.25000  0.50000  1.0000
  Ba  Ba2       1.0  0.75000  0.75000  0.50000  1.0000
  Fe  Fe1       1.0  0.75000  0.25000  0.50000  1.0000
  Fe  Fe2       1.0  0.25000  0.75000  0.50000  1.0000
  S   S1        1.0  0.00000  0.00000  0.00000  1.0000
  S   S2        1.0  0.50000  0.50000  0.00000  1.0000
  S   S3        1.0  0.78200  0.28200  0.26800  1.0000
  S   S4        1.0  0.28200  0.48600  0.26800  1.0000
  S   S5        1.0  0.98600  0.78200  0.26800  1.0000
  S   S6        1.0  0.48600  0.98600  0.26800  1.0000
  S   S7        1.0  0.51400  0.01390  0.73200  1.0000
  S   S8        1.0  0.01390  0.21800  0.73200  1.0000
  S   S9        1.0  0.71800  0.51400  0.73200  1.0000
  S   S10       1.0  0.21800  0.71800  0.73200  1.0000
  Sm  Sm1       1.0  0.33900  0.16100  0.00000  1.0000
  Sm  Sm2       1.0  0.83900  0.33900  0.00000  1.0000
  Sm  Sm3       1.0  0.16100  0.66100  0.00000  1.0000
  Sm  Sm4       1.0  0.66100  0.83900  0.00000  1.0000
