data_image0
_chemical_formula_structural       Rh4Si4Tb4
_chemical_formula_sum              "Rh4 Si4 Tb4"
_cell_length_a       5.75861
_cell_length_b       4.46055
_cell_length_c       8.58055
_cell_angle_alpha    90
_cell_angle_beta     90
_cell_angle_gamma    90

_space_group_name_H-M_alt    "P 1"
_space_group_IT_number       1

loop_
  _space_group_symop_operation_xyz
  'x, y, z'

loop_
  _atom_site_type_symbol
  _atom_site_label
  _atom_site_symmetry_multiplicity
  _atom_site_fract_x
  _atom_site_fract_y
  _atom_site_fract_z
  _atom_site_occupancy
  Rh  Rh1       1.0  0.18600  0.75000  0.11400  1.0000
  Rh  Rh2       1.0  0.68600  0.75000  0.38600  1.0000
  Rh  Rh3       1.0  0.31400  0.25000  0.61400  1.0000
  Rh  Rh4       1.0  0.81400  0.25000  0.88600  1.0000
  Si  Si1       1.0  0.98400  0.25000  0.22200  1.0000
  Si  Si2       1.0  0.48400  0.25000  0.27800  1.0000
  Si  Si3       1.0  0.51600  0.75000  0.72200  1.0000
  Si  Si4       1.0  0.01650  0.75000  0.77800  1.0000
  Tb  Tb1       1.0  0.69500  0.75000  0.07190  1.0000
  Tb  Tb2       1.0  0.19500  0.75000  0.42800  1.0000
  Tb  Tb3       1.0  0.80500  0.25000  0.57200  1.0000
  Tb  Tb4       1.0  0.30500  0.25000  0.92800  1.0000
