data_image0
_chemical_formula_structural       F6H4P2
_chemical_formula_sum              "F6 H4 P2"
_cell_length_a       4.52484
_cell_length_b       4.52484
_cell_length_c       5.78796
_cell_angle_alpha    90
_cell_angle_beta     90
_cell_angle_gamma    109.642

_space_group_name_H-M_alt    "P 1"
_space_group_IT_number       1

loop_
  _space_group_symop_operation_xyz
  'x, y, z'

loop_
  _atom_site_type_symbol
  _atom_site_label
  _atom_site_symmetry_multiplicity
  _atom_site_fract_x
  _atom_site_fract_y
  _atom_site_fract_z
  _atom_site_occupancy
  F   F1        1.0  0.35500  0.64500  0.03290  1.0000
  F   F2        1.0  0.89500  0.10500  0.30400  1.0000
  F   F3        1.0  0.27100  0.72900  0.46900  1.0000
  F   F4        1.0  0.64500  0.35500  0.53300  1.0000
  F   F5        1.0  0.10500  0.89500  0.80400  1.0000
  F   F6        1.0  0.72900  0.27100  0.96900  1.0000
  H   H1        1.0  0.36700  0.15600  0.23100  1.0000
  H   H2        1.0  0.84400  0.63300  0.23100  1.0000
  H   H3        1.0  0.15600  0.36700  0.73100  1.0000
  H   H4        1.0  0.63300  0.84400  0.73100  1.0000
  P   P1        1.0  0.68500  0.31500  0.24900  1.0000
  P   P2        1.0  0.31500  0.68500  0.74900  1.0000
