data_image0
_chemical_formula_structural       Rh9Si5Y4
_chemical_formula_sum              "Rh9 Si5 Y4"
_cell_length_a       5.53796
_cell_length_b       5.53796
_cell_length_c       11.7044
_cell_angle_alpha    103.684
_cell_angle_beta     76.3155
_cell_angle_gamma    120

_space_group_name_H-M_alt    "P 1"
_space_group_IT_number       1

loop_
  _space_group_symop_operation_xyz
  'x, y, z'

loop_
  _atom_site_type_symbol
  _atom_site_label
  _atom_site_symmetry_multiplicity
  _atom_site_fract_x
  _atom_site_fract_y
  _atom_site_fract_z
  _atom_site_occupancy
  Rh  Rh1       1.0  0.50000  0.00000  0.00000  1.0000
  Rh  Rh2       1.0  0.50000  0.50000  0.00000  1.0000
  Rh  Rh3       1.0  0.00000  0.50000  0.00000  1.0000
  Rh  Rh4       1.0  0.89100  0.60800  0.32500  1.0000
  Rh  Rh5       1.0  0.39200  0.10900  0.32500  1.0000
  Rh  Rh6       1.0  0.39200  0.60800  0.32500  1.0000
  Rh  Rh7       1.0  0.60800  0.39200  0.67500  1.0000
  Rh  Rh8       1.0  0.60800  0.89100  0.67500  1.0000
  Rh  Rh9       1.0  0.10900  0.39200  0.67500  1.0000
  Si  Si1       1.0  0.61200  0.38800  0.16500  1.0000
  Si  Si2       1.0  0.27800  0.72200  0.16500  1.0000
  Si  Si3       1.0  0.50000  0.50000  0.50000  1.0000
  Si  Si4       1.0  0.72200  0.27800  0.83500  1.0000
  Si  Si5       1.0  0.38800  0.61200  0.83500  1.0000
  Y   Y1        1.0  0.94900  0.05110  0.15300  1.0000
  Y   Y2        1.0  0.85100  0.14900  0.44600  1.0000
  Y   Y3        1.0  0.14900  0.85100  0.55400  1.0000
  Y   Y4        1.0  0.05110  0.94900  0.84700  1.0000
