data_image0
_chemical_formula_structural       In4La2
_chemical_formula_sum              "In4 La2"
_cell_length_a       4.77245
_cell_length_b       6.43626
_cell_length_c       6.43626
_cell_angle_alpha    91.0639
_cell_angle_beta     111.762
_cell_angle_gamma    111.762

_space_group_name_H-M_alt    "P 1"
_space_group_IT_number       1

loop_
  _space_group_symop_operation_xyz
  'x, y, z'

loop_
  _atom_site_type_symbol
  _atom_site_label
  _atom_site_symmetry_multiplicity
  _atom_site_fract_x
  _atom_site_fract_y
  _atom_site_fract_z
  _atom_site_occupancy
  In  In1       1.0  0.04640  0.88500  0.20700  1.0000
  In  In2       1.0  0.54600  0.70700  0.38500  1.0000
  In  In3       1.0  0.45400  0.29300  0.61500  1.0000
  In  In4       1.0  0.95400  0.11500  0.79300  1.0000
  La  La1       1.0  0.75000  0.30300  0.19700  1.0000
  La  La2       1.0  0.25000  0.69700  0.80300  1.0000
