data_image0
_chemical_formula_structural       Cs2H6Li4O6
_chemical_formula_sum              "Cs2 H6 Li4 O6"
_cell_length_a       6.13466
_cell_length_b       5.27982
_cell_length_c       6.22765
_cell_angle_alpha    90
_cell_angle_beta     103.239
_cell_angle_gamma    90

_space_group_name_H-M_alt    "P 1"
_space_group_IT_number       1

loop_
  _space_group_symop_operation_xyz
  'x, y, z'

loop_
  _atom_site_type_symbol
  _atom_site_label
  _atom_site_symmetry_multiplicity
  _atom_site_fract_x
  _atom_site_fract_y
  _atom_site_fract_z
  _atom_site_occupancy
  Cs  Cs1       1.0  0.15800  0.25000  0.27800  1.0000
  Cs  Cs2       1.0  0.84200  0.75000  0.72200  1.0000
  H   H1        1.0  0.25700  0.75000  0.12300  1.0000
  H   H2        1.0  0.00871  0.75000  0.33700  1.0000
  H   H3        1.0  0.38700  0.75000  0.46200  1.0000
  H   H4        1.0  0.61300  0.25000  0.53800  1.0000
  H   H5        1.0  0.99100  0.25000  0.66300  1.0000
  H   H6        1.0  0.74300  0.25000  0.87700  1.0000
  Li  Li1       1.0  0.65000  0.50200  0.18200  1.0000
  Li  Li2       1.0  0.65000  0.99800  0.18200  1.0000
  Li  Li3       1.0  0.35000  0.00237  0.81800  1.0000
  Li  Li4       1.0  0.35000  0.49800  0.81800  1.0000
  O   O1        1.0  0.39900  0.75000  0.07770  1.0000
  O   O2        1.0  0.89000  0.75000  0.20200  1.0000
  O   O3        1.0  0.68800  0.25000  0.41700  1.0000
  O   O4        1.0  0.31200  0.75000  0.58300  1.0000
  O   O5        1.0  0.11000  0.25000  0.79800  1.0000
  O   O6        1.0  0.60100  0.25000  0.92200  1.0000
