data_image0
_chemical_formula_structural       Cr2O8Tm2
_chemical_formula_sum              "Cr2 O8 Tm2"
_cell_length_a       5.85382
_cell_length_b       5.85382
_cell_length_c       5.85382
_cell_angle_alpha    106.209
_cell_angle_beta     116.214
_cell_angle_gamma    106.209

_space_group_name_H-M_alt    "P 1"
_space_group_IT_number       1

loop_
  _space_group_symop_operation_xyz
  'x, y, z'

loop_
  _atom_site_type_symbol
  _atom_site_label
  _atom_site_symmetry_multiplicity
  _atom_site_fract_x
  _atom_site_fract_y
  _atom_site_fract_z
  _atom_site_occupancy
  Cr  Cr1       1.0  0.62500  0.75000  0.37500  1.0000
  Cr  Cr2       1.0  0.37500  0.25000  0.62500  1.0000
  O   O1        1.0  0.26000  0.56300  0.19700  1.0000
  O   O2        1.0  0.63400  0.93700  0.19700  1.0000
  O   O3        1.0  0.19700  0.06300  0.26000  1.0000
  O   O4        1.0  0.80300  0.56300  0.36600  1.0000
  O   O5        1.0  0.19700  0.43700  0.63400  1.0000
  O   O6        1.0  0.80300  0.93700  0.74000  1.0000
  O   O7        1.0  0.36600  0.06300  0.80300  1.0000
  O   O8        1.0  0.74000  0.43700  0.80300  1.0000
  Tm  Tm1       1.0  0.87500  0.25000  0.12500  1.0000
  Tm  Tm2       1.0  0.12500  0.75000  0.87500  1.0000
