data_image0
_chemical_formula_structural       B2Ce4N5
_chemical_formula_sum              "B2 Ce4 N5"
_cell_length_a       3.64618
_cell_length_b       6.54914
_cell_length_c       7.28554
_cell_angle_alpha    97.2563
_cell_angle_beta     104.491
_cell_angle_gamma    73.837

_space_group_name_H-M_alt    "P 1"
_space_group_IT_number       1

loop_
  _space_group_symop_operation_xyz
  'x, y, z'

loop_
  _atom_site_type_symbol
  _atom_site_label
  _atom_site_symmetry_multiplicity
  _atom_site_fract_x
  _atom_site_fract_y
  _atom_site_fract_z
  _atom_site_occupancy
  B   B1        1.0  0.41100  0.56700  0.39000  1.0000
  B   B2        1.0  0.58900  0.43300  0.61000  1.0000
  Ce  Ce1       1.0  0.68700  0.73900  0.11300  1.0000
  Ce  Ce2       1.0  0.07630  0.19100  0.34400  1.0000
  Ce  Ce3       1.0  0.92400  0.80900  0.65600  1.0000
  Ce  Ce4       1.0  0.31300  0.26100  0.88700  1.0000
  N   N1        1.0  0.00000  0.00000  0.00000  1.0000
  N   N2        1.0  0.38400  0.43900  0.20600  1.0000
  N   N3        1.0  0.29800  0.80200  0.39800  1.0000
  N   N4        1.0  0.70200  0.19800  0.60200  1.0000
  N   N5        1.0  0.61600  0.56100  0.79400  1.0000
