data_image0
_chemical_formula_structural       Br2Hf2N2
_chemical_formula_sum              "Br2 Hf2 N2"
_cell_length_a       4.12089
_cell_length_b       3.56852
_cell_length_c       8.66962
_cell_angle_alpha    90
_cell_angle_beta     90
_cell_angle_gamma    90

_space_group_name_H-M_alt    "P 1"
_space_group_IT_number       1

loop_
  _space_group_symop_operation_xyz
  'x, y, z'

loop_
  _atom_site_type_symbol
  _atom_site_label
  _atom_site_symmetry_multiplicity
  _atom_site_fract_x
  _atom_site_fract_y
  _atom_site_fract_z
  _atom_site_occupancy
  Br  Br1       1.0  0.25000  0.25000  0.33900  1.0000
  Br  Br2       1.0  0.75000  0.75000  0.66100  1.0000
  Hf  Hf1       1.0  0.25000  0.75000  0.09910  1.0000
  Hf  Hf2       1.0  0.75000  0.25000  0.90100  1.0000
  N   N1        1.0  0.75000  0.75000  0.03570  1.0000
  N   N2        1.0  0.25000  0.25000  0.96400  1.0000
