data_image0
_chemical_formula_structural       Rh4Sb4Tb4
_chemical_formula_sum              "Rh4 Sb4 Tb4"
_cell_length_a       7.18013
_cell_length_b       4.56569
_cell_length_c       7.85844
_cell_angle_alpha    90
_cell_angle_beta     90
_cell_angle_gamma    90

_space_group_name_H-M_alt    "P 1"
_space_group_IT_number       1

loop_
  _space_group_symop_operation_xyz
  'x, y, z'

loop_
  _atom_site_type_symbol
  _atom_site_label
  _atom_site_symmetry_multiplicity
  _atom_site_fract_x
  _atom_site_fract_y
  _atom_site_fract_z
  _atom_site_occupancy
  Rh  Rh1       1.0  0.80600  0.25000  0.08150  1.0000
  Rh  Rh2       1.0  0.30600  0.25000  0.41900  1.0000
  Rh  Rh3       1.0  0.69400  0.75000  0.58100  1.0000
  Rh  Rh4       1.0  0.19400  0.75000  0.91900  1.0000
  Sb  Sb1       1.0  0.19700  0.25000  0.09160  1.0000
  Sb  Sb2       1.0  0.69700  0.25000  0.40800  1.0000
  Sb  Sb3       1.0  0.30300  0.75000  0.59200  1.0000
  Sb  Sb4       1.0  0.80300  0.75000  0.90800  1.0000
  Tb  Tb1       1.0  0.49300  0.75000  0.20200  1.0000
  Tb  Tb2       1.0  0.99300  0.75000  0.29800  1.0000
  Tb  Tb3       1.0  0.00722  0.25000  0.70200  1.0000
  Tb  Tb4       1.0  0.50700  0.25000  0.79800  1.0000
