data_image0
_chemical_formula_structural       Ge3Pd6
_chemical_formula_sum              "Ge3 Pd6"
_cell_length_a       6.77531
_cell_length_b       6.77531
_cell_length_c       3.49548
_cell_angle_alpha    90
_cell_angle_beta     90
_cell_angle_gamma    120.002

_space_group_name_H-M_alt    "P 1"
_space_group_IT_number       1

loop_
  _space_group_symop_operation_xyz
  'x, y, z'

loop_
  _atom_site_type_symbol
  _atom_site_label
  _atom_site_symmetry_multiplicity
  _atom_site_fract_x
  _atom_site_fract_y
  _atom_site_fract_z
  _atom_site_occupancy
  Ge  Ge1       1.0  0.66700  0.33300  0.00000  1.0000
  Ge  Ge2       1.0  0.33300  0.66700  0.00000  1.0000
  Ge  Ge3       1.0  0.00002  0.00002  0.50000  1.0000
  Pd  Pd1       1.0  0.26900  0.00001  0.00000  1.0000
  Pd  Pd2       1.0  0.00001  0.26900  0.00000  1.0000
  Pd  Pd3       1.0  0.73100  0.73100  0.00000  1.0000
  Pd  Pd4       1.0  0.60800  0.00001  0.50000  1.0000
  Pd  Pd5       1.0  0.39200  0.39200  0.50000  1.0000
  Pd  Pd6       1.0  0.00001  0.60800  0.50000  1.0000
