data_image0
_chemical_formula_structural       Hf2I2N2
_chemical_formula_sum              "Hf2 I2 N2"
_cell_length_a       3.69183
_cell_length_b       3.69183
_cell_length_c       10.7045
_cell_angle_alpha    90
_cell_angle_beta     80.0701
_cell_angle_gamma    120

_space_group_name_H-M_alt    "P 1"
_space_group_IT_number       1

loop_
  _space_group_symop_operation_xyz
  'x, y, z'

loop_
  _atom_site_type_symbol
  _atom_site_label
  _atom_site_symmetry_multiplicity
  _atom_site_fract_x
  _atom_site_fract_y
  _atom_site_fract_z
  _atom_site_occupancy
  Hf  Hf1       1.0  0.41400  0.20700  0.37900  1.0000
  Hf  Hf2       1.0  0.58600  0.79300  0.62100  1.0000
  I   I1        1.0  0.22100  0.61000  0.16900  1.0000
  I   I2        1.0  0.77900  0.39000  0.83100  1.0000
  N   N1        1.0  0.72200  0.86100  0.41700  1.0000
  N   N2        1.0  0.27800  0.13900  0.58300  1.0000
