data_image0
_chemical_formula_structural       Sb4V2
_chemical_formula_sum              "Sb4 V2"
_cell_length_a       5.43123
_cell_length_b       5.43123
_cell_length_c       5.43123
_cell_angle_alpha    118.189
_cell_angle_beta     105.296
_cell_angle_gamma    105.296

_space_group_name_H-M_alt    "P 1"
_space_group_IT_number       1

loop_
  _space_group_symop_operation_xyz
  'x, y, z'

loop_
  _atom_site_type_symbol
  _atom_site_label
  _atom_site_symmetry_multiplicity
  _atom_site_fract_x
  _atom_site_fract_y
  _atom_site_fract_z
  _atom_site_occupancy
  Sb  Sb1       1.0  0.50000  0.34300  0.15700  1.0000
  Sb  Sb2       1.0  0.18600  0.84300  0.34300  1.0000
  Sb  Sb3       1.0  0.81400  0.15700  0.65700  1.0000
  Sb  Sb4       1.0  0.50000  0.65700  0.84300  1.0000
  V   V1        1.0  0.00000  0.25000  0.25000  1.0000
  V   V2        1.0  0.00000  0.75000  0.75000  1.0000
