data_image0
_chemical_formula_structural       Ba4Ca4Si4
_chemical_formula_sum              "Ba4 Ca4 Si4"
_cell_length_a       8.54358
_cell_length_b       5.04673
_cell_length_c       9.22024
_cell_angle_alpha    90
_cell_angle_beta     90
_cell_angle_gamma    90

_space_group_name_H-M_alt    "P 1"
_space_group_IT_number       1

loop_
  _space_group_symop_operation_xyz
  'x, y, z'

loop_
  _atom_site_type_symbol
  _atom_site_label
  _atom_site_symmetry_multiplicity
  _atom_site_fract_x
  _atom_site_fract_y
  _atom_site_fract_z
  _atom_site_occupancy
  Ba  Ba1       1.0  0.97400  0.75000  0.17600  1.0000
  Ba  Ba2       1.0  0.47400  0.75000  0.32400  1.0000
  Ba  Ba3       1.0  0.52600  0.25000  0.67600  1.0000
  Ba  Ba4       1.0  0.02630  0.25000  0.82400  1.0000
  Ca  Ca1       1.0  0.64200  0.25000  0.07320  1.0000
  Ca  Ca2       1.0  0.14200  0.25000  0.42700  1.0000
  Ca  Ca3       1.0  0.85800  0.75000  0.57300  1.0000
  Ca  Ca4       1.0  0.35800  0.75000  0.92700  1.0000
  Si  Si1       1.0  0.28000  0.25000  0.10900  1.0000
  Si  Si2       1.0  0.78000  0.25000  0.39100  1.0000
  Si  Si3       1.0  0.22000  0.75000  0.60900  1.0000
  Si  Si4       1.0  0.72000  0.75000  0.89100  1.0000
