data_image0
_chemical_formula_structural       I2O8Rb2
_chemical_formula_sum              "I2 O8 Rb2"
_cell_length_a       5.83754
_cell_length_b       5.83754
_cell_length_c       7.61911
_cell_angle_alpha    112.525
_cell_angle_beta     112.525
_cell_angle_gamma    90

_space_group_name_H-M_alt    "P 1"
_space_group_IT_number       1

loop_
  _space_group_symop_operation_xyz
  'x, y, z'

loop_
  _atom_site_type_symbol
  _atom_site_label
  _atom_site_symmetry_multiplicity
  _atom_site_fract_x
  _atom_site_fract_y
  _atom_site_fract_z
  _atom_site_occupancy
  I   I1        1.0  0.00000  0.00000  0.00000  1.0000
  I   I2        1.0  0.25000  0.75000  0.50000  1.0000
  O   O1        1.0  0.29700  0.20800  0.15700  1.0000
  O   O2        1.0  0.86000  0.94900  0.15700  1.0000
  O   O3        1.0  0.95300  0.54200  0.34300  1.0000
  O   O4        1.0  0.39000  0.80100  0.34300  1.0000
  O   O5        1.0  0.19900  0.04700  0.65700  1.0000
  O   O6        1.0  0.45800  0.61000  0.65700  1.0000
  O   O7        1.0  0.79200  0.14000  0.84300  1.0000
  O   O8        1.0  0.05130  0.70300  0.84300  1.0000
  Rb  Rb1       1.0  0.50000  0.50000  0.00000  1.0000
  Rb  Rb2       1.0  0.75000  0.25000  0.50000  1.0000
