data_image0
_chemical_formula_structural       Fe4Ni2O8
_chemical_formula_sum              "Fe4 Ni2 O8"
_cell_length_a       5.90933
_cell_length_b       5.90933
_cell_length_c       5.91225
_cell_angle_alpha    119.765
_cell_angle_beta     120.064
_cell_angle_gamma    90.1201

_space_group_name_H-M_alt    "P 1"
_space_group_IT_number       1

loop_
  _space_group_symop_operation_xyz
  'x, y, z'

loop_
  _atom_site_type_symbol
  _atom_site_label
  _atom_site_symmetry_multiplicity
  _atom_site_fract_x
  _atom_site_fract_y
  _atom_site_fract_z
  _atom_site_occupancy
  Fe  Fe1       1.0  0.00448  0.00448  0.00000  1.0000
  Fe  Fe2       1.0  0.37500  0.62500  0.25000  1.0000
  Fe  Fe3       1.0  0.74600  0.24600  0.50000  1.0000
  Fe  Fe4       1.0  0.37500  0.12500  0.75000  1.0000
  Ni  Ni1       1.0  0.87500  0.62500  0.25000  1.0000
  Ni  Ni2       1.0  0.37500  0.62500  0.75000  1.0000
  O   O1        1.0  0.61300  0.37800  0.23500  1.0000
  O   O2        1.0  0.61600  0.85500  0.23900  1.0000
  O   O3        1.0  0.13400  0.39500  0.26100  1.0000
  O   O4        1.0  0.13700  0.87200  0.26500  1.0000
  O   O5        1.0  0.60600  0.87100  0.73500  1.0000
  O   O6        1.0  0.13400  0.87300  0.73900  1.0000
  O   O7        1.0  0.61600  0.37700  0.76100  1.0000
  O   O8        1.0  0.14400  0.37900  0.76500  1.0000
