data_image0
_chemical_formula_structural       Al2Ba3Ge2
_chemical_formula_sum              "Al2 Ba3 Ge2"
_cell_length_a       4.37136
_cell_length_b       5.15169
_cell_length_c       10.6207
_cell_angle_alpha    104.036
_cell_angle_beta     101.876
_cell_angle_gamma    90

_space_group_name_H-M_alt    "P 1"
_space_group_IT_number       1

loop_
  _space_group_symop_operation_xyz
  'x, y, z'

loop_
  _atom_site_type_symbol
  _atom_site_label
  _atom_site_symmetry_multiplicity
  _atom_site_fract_x
  _atom_site_fract_y
  _atom_site_fract_z
  _atom_site_occupancy
  Al  Al1       1.0  0.06470  0.56500  0.12900  1.0000
  Al  Al2       1.0  0.93500  0.43500  0.87100  1.0000
  Ba  Ba1       1.0  0.50000  0.00000  0.00000  1.0000
  Ba  Ba2       1.0  0.18500  0.18500  0.36900  1.0000
  Ba  Ba3       1.0  0.81500  0.81500  0.63100  1.0000
  Ge  Ge1       1.0  0.63600  0.63600  0.27100  1.0000
  Ge  Ge2       1.0  0.36400  0.36400  0.72900  1.0000
