data_image0
_chemical_formula_structural       Al2Sc4Si4
_chemical_formula_sum              "Al2 Sc4 Si4"
_cell_length_a       6.60255
_cell_length_b       6.60255
_cell_length_c       3.99106
_cell_angle_alpha    90
_cell_angle_beta     90
_cell_angle_gamma    90

_space_group_name_H-M_alt    "P 1"
_space_group_IT_number       1

loop_
  _space_group_symop_operation_xyz
  'x, y, z'

loop_
  _atom_site_type_symbol
  _atom_site_label
  _atom_site_symmetry_multiplicity
  _atom_site_fract_x
  _atom_site_fract_y
  _atom_site_fract_z
  _atom_site_occupancy
  Al  Al1       1.0  0.00000  0.00000  0.00000  1.0000
  Al  Al2       1.0  0.50000  0.50000  0.00000  1.0000
  Sc  Sc1       1.0  0.32400  0.17600  0.50000  1.0000
  Sc  Sc2       1.0  0.82400  0.32400  0.50000  1.0000
  Sc  Sc3       1.0  0.17600  0.67600  0.50000  1.0000
  Sc  Sc4       1.0  0.67600  0.82400  0.50000  1.0000
  Si  Si1       1.0  0.62600  0.12600  0.00000  1.0000
  Si  Si2       1.0  0.12600  0.37400  0.00000  1.0000
  Si  Si3       1.0  0.87400  0.62600  0.00000  1.0000
  Si  Si4       1.0  0.37400  0.87400  0.00000  1.0000
