data_image0
_chemical_formula_structural       Sb4V5
_chemical_formula_sum              "Sb4 V5"
_cell_length_a       3.43386
_cell_length_b       7.17236
_cell_length_c       7.17236
_cell_angle_alpha    93.2851
_cell_angle_beta     76.1499
_cell_angle_gamma    103.85

_space_group_name_H-M_alt    "P 1"
_space_group_IT_number       1

loop_
  _space_group_symop_operation_xyz
  'x, y, z'

loop_
  _atom_site_type_symbol
  _atom_site_label
  _atom_site_symmetry_multiplicity
  _atom_site_fract_x
  _atom_site_fract_y
  _atom_site_fract_z
  _atom_site_occupancy
  Sb  Sb1       1.0  0.06320  0.35400  0.22700  1.0000
  Sb  Sb2       1.0  0.71000  0.77300  0.35400  1.0000
  Sb  Sb3       1.0  0.29000  0.22700  0.64600  1.0000
  Sb  Sb4       1.0  0.93700  0.64600  0.77300  1.0000
  V   V1        1.0  0.00000  0.00000  0.00000  1.0000
  V   V2        1.0  0.31900  0.70500  0.06760  1.0000
  V   V3        1.0  0.38600  0.06760  0.29500  1.0000
  V   V4        1.0  0.61400  0.93200  0.70500  1.0000
  V   V5        1.0  0.68100  0.29500  0.93200  1.0000
