data_image0
_chemical_formula_structural       Br2Fe
_chemical_formula_sum              "Br2 Fe1"
_cell_length_a       3.7346
_cell_length_b       3.73447
_cell_length_c       6.3275
_cell_angle_alpha    90
_cell_angle_beta     90.013
_cell_angle_gamma    119.999

_space_group_name_H-M_alt    "P 1"
_space_group_IT_number       1

loop_
  _space_group_symop_operation_xyz
  'x, y, z'

loop_
  _atom_site_type_symbol
  _atom_site_label
  _atom_site_symmetry_multiplicity
  _atom_site_fract_x
  _atom_site_fract_y
  _atom_site_fract_z
  _atom_site_occupancy
  Br  Br1       1.0  0.33300  0.66700  0.23500  1.0000
  Br  Br2       1.0  0.66700  0.33300  0.76500  1.0000
  Fe  Fe1       1.0  0.00000  0.00000  0.00000  1.0000
