data_image0
_chemical_formula_structural       Al2Ca3Ge2
_chemical_formula_sum              "Al2 Ca3 Ge2"
_cell_length_a       4.12134
_cell_length_b       4.5568
_cell_length_c       9.80391
_cell_angle_alpha    103.438
_cell_angle_beta     102.133
_cell_angle_gamma    90

_space_group_name_H-M_alt    "P 1"
_space_group_IT_number       1

loop_
  _space_group_symop_operation_xyz
  'x, y, z'

loop_
  _atom_site_type_symbol
  _atom_site_label
  _atom_site_symmetry_multiplicity
  _atom_site_fract_x
  _atom_site_fract_y
  _atom_site_fract_z
  _atom_site_occupancy
  Al  Al1       1.0  0.06800  0.56800  0.13600  1.0000
  Al  Al2       1.0  0.93200  0.43200  0.86400  1.0000
  Ca  Ca1       1.0  0.50000  0.00000  0.00000  1.0000
  Ca  Ca2       1.0  0.18600  0.18600  0.37200  1.0000
  Ca  Ca3       1.0  0.81400  0.81400  0.62800  1.0000
  Ge  Ge1       1.0  0.64600  0.64600  0.29200  1.0000
  Ge  Ge2       1.0  0.35400  0.35400  0.70800  1.0000
