data_image0
_chemical_formula_structural       Na2O8Re2
_chemical_formula_sum              "Na2 O8 Re2"
_cell_length_a       5.30337
_cell_length_b       5.30337
_cell_length_c       6.85487
_cell_angle_alpha    112.758
_cell_angle_beta     112.758
_cell_angle_gamma    90

_space_group_name_H-M_alt    "P 1"
_space_group_IT_number       1

loop_
  _space_group_symop_operation_xyz
  'x, y, z'

loop_
  _atom_site_type_symbol
  _atom_site_label
  _atom_site_symmetry_multiplicity
  _atom_site_fract_x
  _atom_site_fract_y
  _atom_site_fract_z
  _atom_site_occupancy
  Na  Na1       1.0  0.50000  0.50000  0.00000  1.0000
  Na  Na2       1.0  0.75000  0.25000  0.50000  1.0000
  O   O1        1.0  0.32100  0.22800  0.17300  1.0000
  O   O2        1.0  0.85200  0.94500  0.17300  1.0000
  O   O3        1.0  0.92900  0.52200  0.32700  1.0000
  O   O4        1.0  0.39800  0.80500  0.32700  1.0000
  O   O5        1.0  0.19500  0.07070  0.67300  1.0000
  O   O6        1.0  0.47800  0.60200  0.67300  1.0000
  O   O7        1.0  0.77200  0.14800  0.82700  1.0000
  O   O8        1.0  0.05520  0.67900  0.82700  1.0000
  Re  Re1       1.0  0.00000  0.00000  0.00000  1.0000
  Re  Re2       1.0  0.25000  0.75000  0.50000  1.0000
