data_image0
_chemical_formula_structural       Ag6Cs2Se4
_chemical_formula_sum              "Ag6 Cs2 Se4"
_cell_length_a       4.45325
_cell_length_b       8.6936
_cell_length_c       9.1746
_cell_angle_alpha    111.953
_cell_angle_beta     90
_cell_angle_gamma    104.84

_space_group_name_H-M_alt    "P 1"
_space_group_IT_number       1

loop_
  _space_group_symop_operation_xyz
  'x, y, z'

loop_
  _atom_site_type_symbol
  _atom_site_label
  _atom_site_symmetry_multiplicity
  _atom_site_fract_x
  _atom_site_fract_y
  _atom_site_fract_z
  _atom_site_occupancy
  Ag  Ag1       1.0  0.41000  0.82000  0.36100  1.0000
  Ag  Ag2       1.0  0.05680  0.11400  0.40200  1.0000
  Ag  Ag3       1.0  0.68900  0.37800  0.44000  1.0000
  Ag  Ag4       1.0  0.31100  0.62200  0.56000  1.0000
  Ag  Ag5       1.0  0.94300  0.88600  0.59800  1.0000
  Ag  Ag6       1.0  0.59000  0.18000  0.63900  1.0000
  Cs  Cs1       1.0  0.13700  0.27500  0.04630  1.0000
  Cs  Cs2       1.0  0.86300  0.72500  0.95400  1.0000
  Se  Se1       1.0  0.52100  0.04280  0.22400  1.0000
  Se  Se2       1.0  0.80500  0.60900  0.31200  1.0000
  Se  Se3       1.0  0.19500  0.39100  0.68800  1.0000
  Se  Se4       1.0  0.47900  0.95700  0.77600  1.0000
