data_image0
_chemical_formula_structural       Ag2I2O8
_chemical_formula_sum              "Ag2 I2 O8"
_cell_length_a       5.31443
_cell_length_b       5.31443
_cell_length_c       7.02385
_cell_angle_alpha    112.229
_cell_angle_beta     112.229
_cell_angle_gamma    90

_space_group_name_H-M_alt    "P 1"
_space_group_IT_number       1

loop_
  _space_group_symop_operation_xyz
  'x, y, z'

loop_
  _atom_site_type_symbol
  _atom_site_label
  _atom_site_symmetry_multiplicity
  _atom_site_fract_x
  _atom_site_fract_y
  _atom_site_fract_z
  _atom_site_occupancy
  Ag  Ag1       1.0  0.62500  0.87500  0.25000  1.0000
  Ag  Ag2       1.0  0.37500  0.12500  0.75000  1.0000
  I   I1        1.0  0.12500  0.37500  0.25000  1.0000
  I   I2        1.0  0.87500  0.62500  0.75000  1.0000
  O   O1        1.0  0.28600  0.13700  0.08530  1.0000
  O   O2        1.0  0.80000  0.44900  0.08530  1.0000
  O   O3        1.0  0.05140  0.21400  0.41500  1.0000
  O   O4        1.0  0.36300  0.70000  0.41500  1.0000
  O   O5        1.0  0.63700  0.30000  0.58500  1.0000
  O   O6        1.0  0.94900  0.78600  0.58500  1.0000
  O   O7        1.0  0.20000  0.55100  0.91500  1.0000
  O   O8        1.0  0.71400  0.86300  0.91500  1.0000
