data_image0
_chemical_formula_structural       Sb2Se2Te
_chemical_formula_sum              "Sb2 Se2 Te1"
_cell_length_a       4.15397
_cell_length_b       4.15397
_cell_length_c       10.4754
_cell_angle_alpha    90
_cell_angle_beta     101.436
_cell_angle_gamma    120

_space_group_name_H-M_alt    "P 1"
_space_group_IT_number       1

loop_
  _space_group_symop_operation_xyz
  'x, y, z'

loop_
  _atom_site_type_symbol
  _atom_site_label
  _atom_site_symmetry_multiplicity
  _atom_site_fract_x
  _atom_site_fract_y
  _atom_site_fract_z
  _atom_site_occupancy
  Sb  Sb1       1.0  0.80200  0.40100  0.20300  1.0000
  Sb  Sb2       1.0  0.19800  0.59900  0.79700  1.0000
  Se  Se1       1.0  0.56700  0.78400  0.35100  1.0000
  Se  Se2       1.0  0.43300  0.21600  0.64900  1.0000
  Te  Te1       1.0  0.00000  0.00000  0.00000  1.0000
