data_image0
_chemical_formula_structural       Ba2O6Pr2
_chemical_formula_sum              "Ba2 O6 Pr2"
_cell_length_a       6.4082
_cell_length_b       6.36118
_cell_length_c       6.36118
_cell_angle_alpha    90.1998
_cell_angle_beta     59.7511
_cell_angle_gamma    120.249

_space_group_name_H-M_alt    "P 1"
_space_group_IT_number       1

loop_
  _space_group_symop_operation_xyz
  'x, y, z'

loop_
  _atom_site_type_symbol
  _atom_site_label
  _atom_site_symmetry_multiplicity
  _atom_site_fract_x
  _atom_site_fract_y
  _atom_site_fract_z
  _atom_site_occupancy
  Ba  Ba1       1.0  0.01700  0.25000  0.25000  1.0000
  Ba  Ba2       1.0  0.98300  0.75000  0.75000  1.0000
  O   O1        1.0  0.50000  0.68900  0.18900  1.0000
  O   O2        1.0  0.60300  0.25000  0.25000  1.0000
  O   O3        1.0  0.00000  0.81100  0.31100  1.0000
  O   O4        1.0  1.00000  0.18900  0.68900  1.0000
  O   O5        1.0  0.39700  0.75000  0.75000  1.0000
  O   O6        1.0  0.50000  0.31100  0.81100  1.0000
  Pr  Pr1       1.0  0.50000  0.00000  1.00000  1.0000
  Pr  Pr2       1.0  0.50000  0.50000  0.50000  1.0000
