data_image0
_chemical_formula_structural       Ag2LaSi2
_chemical_formula_sum              "Ag2 La1 Si2"
_cell_length_a       4.30286
_cell_length_b       4.30286
_cell_length_c       6.1389
_cell_angle_alpha    110.515
_cell_angle_beta     110.515
_cell_angle_gamma    90

_space_group_name_H-M_alt    "P 1"
_space_group_IT_number       1

loop_
  _space_group_symop_operation_xyz
  'x, y, z'

loop_
  _atom_site_type_symbol
  _atom_site_label
  _atom_site_symmetry_multiplicity
  _atom_site_fract_x
  _atom_site_fract_y
  _atom_site_fract_z
  _atom_site_occupancy
  Ag  Ag1       1.0  0.75000  0.25000  0.50000  1.0000
  Ag  Ag2       1.0  0.25000  0.75000  0.50000  1.0000
  La  La1       1.0  0.00000  0.00000  0.00000  1.0000
  Si  Si1       1.0  0.61000  0.61000  0.21900  1.0000
  Si  Si2       1.0  0.39000  0.39000  0.78100  1.0000
