data_image0
_chemical_formula_structural       O8Rb2Re2
_chemical_formula_sum              "O8 Rb2 Re2"
_cell_length_a       5.74448
_cell_length_b       5.74448
_cell_length_c       7.72116
_cell_angle_alpha    111.839
_cell_angle_beta     111.839
_cell_angle_gamma    90

_space_group_name_H-M_alt    "P 1"
_space_group_IT_number       1

loop_
  _space_group_symop_operation_xyz
  'x, y, z'

loop_
  _atom_site_type_symbol
  _atom_site_label
  _atom_site_symmetry_multiplicity
  _atom_site_fract_x
  _atom_site_fract_y
  _atom_site_fract_z
  _atom_site_occupancy
  O   O1        1.0  0.30100  0.18700  0.15300  1.0000
  O   O2        1.0  0.85200  0.96600  0.15300  1.0000
  O   O3        1.0  0.94900  0.56300  0.34700  1.0000
  O   O4        1.0  0.39800  0.78400  0.34700  1.0000
  O   O5        1.0  0.21600  0.05120  0.65300  1.0000
  O   O6        1.0  0.43700  0.60200  0.65300  1.0000
  O   O7        1.0  0.81300  0.14800  0.84700  1.0000
  O   O8        1.0  0.03440  0.69900  0.84700  1.0000
  Rb  Rb1       1.0  0.50000  0.50000  0.00000  1.0000
  Rb  Rb2       1.0  0.75000  0.25000  0.50000  1.0000
  Re  Re1       1.0  0.00000  0.00000  0.00000  1.0000
  Re  Re2       1.0  0.25000  0.75000  0.50000  1.0000
