data_image0
_chemical_formula_structural       Sb4Ta2
_chemical_formula_sum              "Sb4 Ta2"
_cell_length_a       3.6934
_cell_length_b       5.4927
_cell_length_c       7.50924
_cell_angle_alpha    91.8184
_cell_angle_beta     104.236
_cell_angle_gamma    109.646

_space_group_name_H-M_alt    "P 1"
_space_group_IT_number       1

loop_
  _space_group_symop_operation_xyz
  'x, y, z'

loop_
  _atom_site_type_symbol
  _atom_site_label
  _atom_site_symmetry_multiplicity
  _atom_site_fract_x
  _atom_site_fract_y
  _atom_site_fract_z
  _atom_site_occupancy
  Sb  Sb1       1.0  0.88600  0.73800  0.03440  1.0000
  Sb  Sb2       1.0  0.79300  0.19800  0.38800  1.0000
  Sb  Sb3       1.0  0.20700  0.80200  0.61200  1.0000
  Sb  Sb4       1.0  0.11400  0.26200  0.96600  1.0000
  Ta  Ta1       1.0  0.46200  0.61300  0.31100  1.0000
  Ta  Ta2       1.0  0.53800  0.38700  0.68900  1.0000
