data_image0
_chemical_formula_structural       I2O8Tl2
_chemical_formula_sum              "I2 O8 Tl2"
_cell_length_a       5.75212
_cell_length_b       5.75212
_cell_length_c       7.64414
_cell_angle_alpha    112.101
_cell_angle_beta     112.101
_cell_angle_gamma    90

_space_group_name_H-M_alt    "P 1"
_space_group_IT_number       1

loop_
  _space_group_symop_operation_xyz
  'x, y, z'

loop_
  _atom_site_type_symbol
  _atom_site_label
  _atom_site_symmetry_multiplicity
  _atom_site_fract_x
  _atom_site_fract_y
  _atom_site_fract_z
  _atom_site_occupancy
  I   I1        1.0  0.00000  0.00000  0.00000  1.0000
  I   I2        1.0  0.25000  0.75000  0.50000  1.0000
  O   O1        1.0  0.30500  0.20200  0.15800  1.0000
  O   O2        1.0  0.85300  0.95600  0.15800  1.0000
  O   O3        1.0  0.94500  0.54800  0.34200  1.0000
  O   O4        1.0  0.39700  0.79400  0.34200  1.0000
  O   O5        1.0  0.20600  0.05500  0.65800  1.0000
  O   O6        1.0  0.45200  0.60300  0.65800  1.0000
  O   O7        1.0  0.79800  0.14700  0.84200  1.0000
  O   O8        1.0  0.04450  0.69500  0.84200  1.0000
  Tl  Tl1       1.0  0.50000  0.50000  0.00000  1.0000
  Tl  Tl2       1.0  0.75000  0.25000  0.50000  1.0000
