data_image0
_chemical_formula_structural       Te4V3
_chemical_formula_sum              "Te4 V3"
_cell_length_a       3.92266
_cell_length_b       6.8486
_cell_length_c       7.27257
_cell_angle_alpha    116.34
_cell_angle_beta     105.646
_cell_angle_gamma    90

_space_group_name_H-M_alt    "P 1"
_space_group_IT_number       1

loop_
  _space_group_symop_operation_xyz
  'x, y, z'

loop_
  _atom_site_type_symbol
  _atom_site_label
  _atom_site_symmetry_multiplicity
  _atom_site_fract_x
  _atom_site_fract_y
  _atom_site_fract_z
  _atom_site_occupancy
  Te  Te1       1.0  0.11000  0.45200  0.22100  1.0000
  Te  Te2       1.0  0.63700  0.97500  0.27400  1.0000
  Te  Te3       1.0  0.36300  0.02480  0.72600  1.0000
  Te  Te4       1.0  0.89000  0.54800  0.77900  1.0000
  V   V1        1.0  0.00000  0.00000  0.00000  1.0000
  V   V2        1.0  0.74500  0.70600  0.49000  1.0000
  V   V3        1.0  0.25500  0.29400  0.51000  1.0000
