data_image0
_chemical_formula_structural       Sb4Sr2
_chemical_formula_sum              "Sb4 Sr2"
_cell_length_a       4.94479
_cell_length_b       4.34712
_cell_length_c       9.2645
_cell_angle_alpha    90
_cell_angle_beta     101.733
_cell_angle_gamma    90

_space_group_name_H-M_alt    "P 1"
_space_group_IT_number       1

loop_
  _space_group_symop_operation_xyz
  'x, y, z'

loop_
  _atom_site_type_symbol
  _atom_site_label
  _atom_site_symmetry_multiplicity
  _atom_site_fract_x
  _atom_site_fract_y
  _atom_site_fract_z
  _atom_site_occupancy
  Sb  Sb1       1.0  0.80900  0.25000  0.01920  1.0000
  Sb  Sb2       1.0  0.94600  0.75000  0.38800  1.0000
  Sb  Sb3       1.0  0.05410  0.25000  0.61200  1.0000
  Sb  Sb4       1.0  0.19100  0.75000  0.98100  1.0000
  Sr  Sr1       1.0  0.40700  0.25000  0.28600  1.0000
  Sr  Sr2       1.0  0.59300  0.75000  0.71400  1.0000
