data_image0
_chemical_formula_structural       Cd2Dy4S8
_chemical_formula_sum              "Cd2 Dy4 S8"
_cell_length_a       7.97281
_cell_length_b       7.97281
_cell_length_c       7.97281
_cell_angle_alpha    120
_cell_angle_beta     90
_cell_angle_gamma    120

_space_group_name_H-M_alt    "P 1"
_space_group_IT_number       1

loop_
  _space_group_symop_operation_xyz
  'x, y, z'

loop_
  _atom_site_type_symbol
  _atom_site_label
  _atom_site_symmetry_multiplicity
  _atom_site_fract_x
  _atom_site_fract_y
  _atom_site_fract_z
  _atom_site_occupancy
  Cd  Cd1       1.0  0.00000  0.00000  0.00000  1.0000
  Cd  Cd2       1.0  0.75000  0.50000  0.25000  1.0000
  Dy  Dy1       1.0  0.37500  0.75000  0.12500  1.0000
  Dy  Dy2       1.0  0.87500  0.25000  0.62500  1.0000
  Dy  Dy3       1.0  0.37500  0.25000  0.62500  1.0000
  Dy  Dy4       1.0  0.37500  0.75000  0.62500  1.0000
  S   S1        1.0  0.61800  0.23500  0.38200  1.0000
  S   S2        1.0  0.14700  0.76500  0.38200  1.0000
  S   S3        1.0  0.61800  0.76500  0.38200  1.0000
  S   S4        1.0  0.13200  0.26500  0.39700  1.0000
  S   S5        1.0  0.61800  0.23500  0.85300  1.0000
  S   S6        1.0  0.13200  0.26500  0.86800  1.0000
  S   S7        1.0  0.13200  0.73500  0.86800  1.0000
  S   S8        1.0  0.60300  0.73500  0.86800  1.0000
