data_image0
_chemical_formula_structural       CdInS2
_chemical_formula_sum              "Cd1 In1 S2"
_cell_length_a       3.84854
_cell_length_b       3.84851
_cell_length_c       6.80691
_cell_angle_alpha    89.9999
_cell_angle_beta     89.9988
_cell_angle_gamma    120

_space_group_name_H-M_alt    "P 1"
_space_group_IT_number       1

loop_
  _space_group_symop_operation_xyz
  'x, y, z'

loop_
  _atom_site_type_symbol
  _atom_site_label
  _atom_site_symmetry_multiplicity
  _atom_site_fract_x
  _atom_site_fract_y
  _atom_site_fract_z
  _atom_site_occupancy
  Cd  Cd1       1.0  0.00000  0.00000  0.00000  1.0000
  In  In1       1.0  0.00000  0.00000  0.50000  1.0000
  S   S1        1.0  0.33300  0.66700  0.24500  1.0000
  S   S2        1.0  0.66700  0.33300  0.75500  1.0000
