data_image0
_chemical_formula_structural       Cr4Hg2S8
_chemical_formula_sum              "Cr4 Hg2 S8"
_cell_length_a       7.29382
_cell_length_b       7.29382
_cell_length_c       7.29382
_cell_angle_alpha    120
_cell_angle_beta     90
_cell_angle_gamma    120

_space_group_name_H-M_alt    "P 1"
_space_group_IT_number       1

loop_
  _space_group_symop_operation_xyz
  'x, y, z'

loop_
  _atom_site_type_symbol
  _atom_site_label
  _atom_site_symmetry_multiplicity
  _atom_site_fract_x
  _atom_site_fract_y
  _atom_site_fract_z
  _atom_site_occupancy
  Cr  Cr1       1.0  0.37500  0.75000  0.12500  1.0000
  Cr  Cr2       1.0  0.87500  0.25000  0.62500  1.0000
  Cr  Cr3       1.0  0.37500  0.25000  0.62500  1.0000
  Cr  Cr4       1.0  0.37500  0.75000  0.62500  1.0000
  Hg  Hg1       1.0  0.00000  0.00000  0.00000  1.0000
  Hg  Hg2       1.0  0.75000  0.50000  0.25000  1.0000
  S   S1        1.0  0.60800  0.21600  0.39200  1.0000
  S   S2        1.0  0.17600  0.78400  0.39200  1.0000
  S   S3        1.0  0.60800  0.78400  0.39200  1.0000
  S   S4        1.0  0.14200  0.28400  0.42600  1.0000
  S   S5        1.0  0.60800  0.21600  0.82400  1.0000
  S   S6        1.0  0.14200  0.28400  0.85800  1.0000
  S   S7        1.0  0.14200  0.71600  0.85800  1.0000
  S   S8        1.0  0.57400  0.71600  0.85800  1.0000
