data_image0
_chemical_formula_structural       Cr4Se8Zn2
_chemical_formula_sum              "Cr4 Se8 Zn2"
_cell_length_a       7.48013
_cell_length_b       7.48013
_cell_length_c       7.48013
_cell_angle_alpha    120
_cell_angle_beta     90
_cell_angle_gamma    120

_space_group_name_H-M_alt    "P 1"
_space_group_IT_number       1

loop_
  _space_group_symop_operation_xyz
  'x, y, z'

loop_
  _atom_site_type_symbol
  _atom_site_label
  _atom_site_symmetry_multiplicity
  _atom_site_fract_x
  _atom_site_fract_y
  _atom_site_fract_z
  _atom_site_occupancy
  Cr  Cr1       1.0  0.37500  0.75000  0.12500  1.0000
  Cr  Cr2       1.0  0.87500  0.25000  0.62500  1.0000
  Cr  Cr3       1.0  0.37500  0.25000  0.62500  1.0000
  Cr  Cr4       1.0  0.37500  0.75000  0.62500  1.0000
  Se  Se1       1.0  0.61400  0.22900  0.38600  1.0000
  Se  Se2       1.0  0.15700  0.77100  0.38600  1.0000
  Se  Se3       1.0  0.61400  0.77100  0.38600  1.0000
  Se  Se4       1.0  0.13600  0.27100  0.40700  1.0000
  Se  Se5       1.0  0.61400  0.22900  0.84300  1.0000
  Se  Se6       1.0  0.13600  0.72900  0.86400  1.0000
  Se  Se7       1.0  0.59300  0.72900  0.86400  1.0000
  Se  Se8       1.0  0.13600  0.27100  0.86400  1.0000
  Zn  Zn1       1.0  0.00000  0.00000  0.00000  1.0000
  Zn  Zn2       1.0  0.75000  0.50000  0.25000  1.0000
