data_image0
_chemical_formula_structural       Cr4Nb4P4
_chemical_formula_sum              "Cr4 Nb4 P4"
_cell_length_a       6.27189
_cell_length_b       3.53555
_cell_length_c       7.3918
_cell_angle_alpha    90
_cell_angle_beta     90
_cell_angle_gamma    90

_space_group_name_H-M_alt    "P 1"
_space_group_IT_number       1

loop_
  _space_group_symop_operation_xyz
  'x, y, z'

loop_
  _atom_site_type_symbol
  _atom_site_label
  _atom_site_symmetry_multiplicity
  _atom_site_fract_x
  _atom_site_fract_y
  _atom_site_fract_z
  _atom_site_occupancy
  Cr  Cr1       1.0  0.35800  0.75000  0.05930  1.0000
  Cr  Cr2       1.0  0.85800  0.75000  0.44100  1.0000
  Cr  Cr3       1.0  0.14200  0.25000  0.55900  1.0000
  Cr  Cr4       1.0  0.64200  0.25000  0.94100  1.0000
  Nb  Nb1       1.0  0.03220  0.25000  0.17300  1.0000
  Nb  Nb2       1.0  0.53200  0.25000  0.32700  1.0000
  Nb  Nb3       1.0  0.46800  0.75000  0.67300  1.0000
  Nb  Nb4       1.0  0.96800  0.75000  0.82700  1.0000
  P   P1        1.0  0.73100  0.75000  0.13200  1.0000
  P   P2        1.0  0.23100  0.75000  0.36800  1.0000
  P   P3        1.0  0.76900  0.25000  0.63200  1.0000
  P   P4        1.0  0.26900  0.25000  0.86800  1.0000
