data_image0
_chemical_formula_structural       Cu4Ge2Zr3
_chemical_formula_sum              "Cu4 Ge2 Zr3"
_cell_length_a       6.46077
_cell_length_b       6.46077
_cell_length_c       4.00987
_cell_angle_alpha    90
_cell_angle_beta     90
_cell_angle_gamma    120.001

_space_group_name_H-M_alt    "P 1"
_space_group_IT_number       1

loop_
  _space_group_symop_operation_xyz
  'x, y, z'

loop_
  _atom_site_type_symbol
  _atom_site_label
  _atom_site_symmetry_multiplicity
  _atom_site_fract_x
  _atom_site_fract_y
  _atom_site_fract_z
  _atom_site_occupancy
  Cu  Cu1       1.0  0.24000  0.00001  0.00000  1.0000
  Cu  Cu2       1.0  0.00001  0.24000  0.00000  1.0000
  Cu  Cu3       1.0  0.76000  0.76000  0.00000  1.0000
  Cu  Cu4       1.0  0.00001  0.00001  0.50000  1.0000
  Ge  Ge1       1.0  0.66700  0.33300  0.00000  1.0000
  Ge  Ge2       1.0  0.33300  0.66700  0.00000  1.0000
  Zr  Zr1       1.0  0.59000  0.00003  0.50000  1.0000
  Zr  Zr2       1.0  0.41000  0.41000  0.50000  1.0000
  Zr  Zr3       1.0  0.00003  0.59000  0.50000  1.0000
