data_image0
_chemical_formula_structural       Cr2MnS4
_chemical_formula_sum              "Cr2 Mn1 S4"
_cell_length_a       3.49986
_cell_length_b       6.05519
_cell_length_c       6.72919
_cell_angle_alpha    116.716
_cell_angle_beta     105.073
_cell_angle_gamma    90

_space_group_name_H-M_alt    "P 1"
_space_group_IT_number       1

loop_
  _space_group_symop_operation_xyz
  'x, y, z'

loop_
  _atom_site_type_symbol
  _atom_site_label
  _atom_site_symmetry_multiplicity
  _atom_site_fract_x
  _atom_site_fract_y
  _atom_site_fract_z
  _atom_site_occupancy
  Cr  Cr1       1.0  0.73900  0.72700  0.47900  1.0000
  Cr  Cr2       1.0  0.26100  0.27300  0.52100  1.0000
  Mn  Mn1       1.0  0.00000  0.00000  0.00000  1.0000
  S   S1        1.0  0.13000  0.45400  0.26000  1.0000
  S   S2        1.0  0.63800  0.98000  0.27600  1.0000
  S   S3        1.0  0.36200  0.02010  0.72400  1.0000
  S   S4        1.0  0.87000  0.54600  0.74000  1.0000
