data_image0
_chemical_formula_structural       Ce2Pt4Si4
_chemical_formula_sum              "Ce2 Pt4 Si4"
_cell_length_a       4.30455
_cell_length_b       4.30455
_cell_length_c       9.89232
_cell_angle_alpha    90
_cell_angle_beta     90
_cell_angle_gamma    90

_space_group_name_H-M_alt    "P 1"
_space_group_IT_number       1

loop_
  _space_group_symop_operation_xyz
  'x, y, z'

loop_
  _atom_site_type_symbol
  _atom_site_label
  _atom_site_symmetry_multiplicity
  _atom_site_fract_x
  _atom_site_fract_y
  _atom_site_fract_z
  _atom_site_occupancy
  Ce  Ce1       1.0  0.75000  0.75000  0.25500  1.0000
  Ce  Ce2       1.0  0.25000  0.25000  0.74500  1.0000
  Pt  Pt1       1.0  0.75000  0.25000  0.00000  1.0000
  Pt  Pt2       1.0  0.25000  0.75000  0.00000  1.0000
  Pt  Pt3       1.0  0.25000  0.25000  0.38000  1.0000
  Pt  Pt4       1.0  0.75000  0.75000  0.62000  1.0000
  Si  Si1       1.0  0.25000  0.25000  0.13100  1.0000
  Si  Si2       1.0  0.75000  0.25000  0.50000  1.0000
  Si  Si3       1.0  0.25000  0.75000  0.50000  1.0000
  Si  Si4       1.0  0.75000  0.75000  0.86900  1.0000
