data_image0
_chemical_formula_structural       Ca4Li4Sb4
_chemical_formula_sum              "Ca4 Li4 Sb4"
_cell_length_a       7.60664
_cell_length_b       4.64589
_cell_length_c       8.2608
_cell_angle_alpha    90
_cell_angle_beta     90
_cell_angle_gamma    90

_space_group_name_H-M_alt    "P 1"
_space_group_IT_number       1

loop_
  _space_group_symop_operation_xyz
  'x, y, z'

loop_
  _atom_site_type_symbol
  _atom_site_label
  _atom_site_symmetry_multiplicity
  _atom_site_fract_x
  _atom_site_fract_y
  _atom_site_fract_z
  _atom_site_occupancy
  Ca  Ca1       1.0  0.99300  0.75000  0.20600  1.0000
  Ca  Ca2       1.0  0.49300  0.75000  0.29400  1.0000
  Ca  Ca3       1.0  0.50700  0.25000  0.70600  1.0000
  Ca  Ca4       1.0  0.00683  0.25000  0.79400  1.0000
  Li  Li1       1.0  0.65800  0.25000  0.07570  1.0000
  Li  Li2       1.0  0.15800  0.25000  0.42400  1.0000
  Li  Li3       1.0  0.84200  0.75000  0.57600  1.0000
  Li  Li4       1.0  0.34200  0.75000  0.92400  1.0000
  Sb  Sb1       1.0  0.27000  0.25000  0.09580  1.0000
  Sb  Sb2       1.0  0.77000  0.25000  0.40400  1.0000
  Sb  Sb3       1.0  0.23000  0.75000  0.59600  1.0000
  Sb  Sb4       1.0  0.73000  0.75000  0.90400  1.0000
