data_image0
_chemical_formula_structural       Cs4S8Zn6
_chemical_formula_sum              "Cs4 S8 Zn6"
_cell_length_a       5.86947
_cell_length_b       9.48218
_cell_length_c       9.48218
_cell_angle_alpha    94.9306
_cell_angle_beta     108.029
_cell_angle_gamma    108.029

_space_group_name_H-M_alt    "P 1"
_space_group_IT_number       1

loop_
  _space_group_symop_operation_xyz
  'x, y, z'

loop_
  _atom_site_type_symbol
  _atom_site_label
  _atom_site_symmetry_multiplicity
  _atom_site_fract_x
  _atom_site_fract_y
  _atom_site_fract_z
  _atom_site_occupancy
  Cs  Cs1       1.0  0.88700  0.12000  0.12000  1.0000
  Cs  Cs2       1.0  0.64600  0.38000  0.38000  1.0000
  Cs  Cs3       1.0  0.35400  0.62000  0.62000  1.0000
  Cs  Cs4       1.0  0.11300  0.88000  0.88000  1.0000
  S   S1        1.0  0.58600  0.71000  0.02240  1.0000
  S   S2        1.0  0.14700  0.52200  0.21000  1.0000
  S   S3        1.0  0.41400  0.97800  0.29000  1.0000
  S   S4        1.0  0.85300  0.79000  0.47800  1.0000
  S   S5        1.0  0.14700  0.21000  0.52200  1.0000
  S   S6        1.0  0.58600  0.02240  0.71000  1.0000
  S   S7        1.0  0.85300  0.47800  0.79000  1.0000
  S   S8        1.0  0.41400  0.29000  0.97800  1.0000
  Zn  Zn1       1.0  0.77500  0.52500  0.02530  1.0000
  Zn  Zn2       1.0  0.50000  0.75000  0.25000  1.0000
  Zn  Zn3       1.0  0.22500  0.97500  0.47500  1.0000
  Zn  Zn4       1.0  0.77500  0.02530  0.52500  1.0000
  Zn  Zn5       1.0  0.50000  0.25000  0.75000  1.0000
  Zn  Zn6       1.0  0.22500  0.47500  0.97500  1.0000
