data_image0
_chemical_formula_structural       Hf3P3Ru3
_chemical_formula_sum              "Hf3 P3 Ru3"
_cell_length_a       6.43885
_cell_length_b       6.43885
_cell_length_c       3.77798
_cell_angle_alpha    90
_cell_angle_beta     90
_cell_angle_gamma    119.991

_space_group_name_H-M_alt    "P 1"
_space_group_IT_number       1

loop_
  _space_group_symop_operation_xyz
  'x, y, z'

loop_
  _atom_site_type_symbol
  _atom_site_label
  _atom_site_symmetry_multiplicity
  _atom_site_fract_x
  _atom_site_fract_y
  _atom_site_fract_z
  _atom_site_occupancy
  Hf  Hf1       1.0  0.58400  0.00003  0.50000  1.0000
  Hf  Hf2       1.0  0.41500  0.41500  0.50000  1.0000
  Hf  Hf3       1.0  0.00003  0.58400  0.50000  1.0000
  P   P1        1.0  0.66700  0.33300  0.00000  1.0000
  P   P2        1.0  0.33300  0.66700  0.00000  1.0000
  P   P3        1.0  0.00002  0.00002  0.50000  1.0000
  Ru  Ru1       1.0  0.24600  0.00002  0.00000  1.0000
  Ru  Ru2       1.0  0.00002  0.24600  0.00000  1.0000
  Ru  Ru3       1.0  0.75400  0.75400  0.00000  1.0000
