data_image0
_chemical_formula_structural       Cs4Te6
_chemical_formula_sum              "Cs4 Te6"
_cell_length_a       7.59204
_cell_length_b       7.59204
_cell_length_c       8.70479
_cell_angle_alpha    90
_cell_angle_beta     90
_cell_angle_gamma    110.187

_space_group_name_H-M_alt    "P 1"
_space_group_IT_number       1

loop_
  _space_group_symop_operation_xyz
  'x, y, z'

loop_
  _atom_site_type_symbol
  _atom_site_label
  _atom_site_symmetry_multiplicity
  _atom_site_fract_x
  _atom_site_fract_y
  _atom_site_fract_z
  _atom_site_occupancy
  Cs  Cs1       1.0  0.58200  0.41800  0.15600  1.0000
  Cs  Cs2       1.0  0.09120  0.90900  0.44100  1.0000
  Cs  Cs3       1.0  0.41800  0.58200  0.65600  1.0000
  Cs  Cs4       1.0  0.90900  0.09120  0.94100  1.0000
  Te  Te1       1.0  0.21900  0.78100  0.00077  1.0000
  Te  Te2       1.0  0.08210  0.42000  0.30600  1.0000
  Te  Te3       1.0  0.58000  0.91800  0.30600  1.0000
  Te  Te4       1.0  0.78100  0.21900  0.50100  1.0000
  Te  Te5       1.0  0.42000  0.08210  0.80600  1.0000
  Te  Te6       1.0  0.91800  0.58000  0.80600  1.0000
