data_image0
_chemical_formula_structural       Fe6Te6Tl2
_chemical_formula_sum              "Fe6 Te6 Tl2"
_cell_length_a       9.33526
_cell_length_b       9.3355
_cell_length_c       4.21881
_cell_angle_alpha    90
_cell_angle_beta     90
_cell_angle_gamma    120.003

_space_group_name_H-M_alt    "P 1"
_space_group_IT_number       1

loop_
  _space_group_symop_operation_xyz
  'x, y, z'

loop_
  _atom_site_type_symbol
  _atom_site_label
  _atom_site_symmetry_multiplicity
  _atom_site_fract_x
  _atom_site_fract_y
  _atom_site_fract_z
  _atom_site_occupancy
  Fe  Fe1       1.0  0.85800  0.02140  0.25000  1.0000
  Fe  Fe2       1.0  0.16400  0.14200  0.25000  1.0000
  Fe  Fe3       1.0  0.97900  0.83600  0.25000  1.0000
  Fe  Fe4       1.0  0.02140  0.16400  0.75000  1.0000
  Fe  Fe5       1.0  0.83600  0.85800  0.75000  1.0000
  Fe  Fe6       1.0  0.14200  0.97900  0.75000  1.0000
  Te  Te1       1.0  0.04690  0.35100  0.25000  1.0000
  Te  Te2       1.0  0.64900  0.69600  0.25000  1.0000
  Te  Te3       1.0  0.30400  0.95300  0.25000  1.0000
  Te  Te4       1.0  0.69600  0.04690  0.75000  1.0000
  Te  Te5       1.0  0.35100  0.30400  0.75000  1.0000
  Te  Te6       1.0  0.95300  0.64900  0.75000  1.0000
  Tl  Tl1       1.0  0.66700  0.33300  0.25000  1.0000
  Tl  Tl2       1.0  0.33300  0.66700  0.75000  1.0000
