data_image0
_chemical_formula_structural       GdGe2Pt2
_chemical_formula_sum              "Gd1 Ge2 Pt2"
_cell_length_a       4.39665
_cell_length_b       4.39665
_cell_length_c       5.82901
_cell_angle_alpha    112.156
_cell_angle_beta     112.156
_cell_angle_gamma    90

_space_group_name_H-M_alt    "P 1"
_space_group_IT_number       1

loop_
  _space_group_symop_operation_xyz
  'x, y, z'

loop_
  _atom_site_type_symbol
  _atom_site_label
  _atom_site_symmetry_multiplicity
  _atom_site_fract_x
  _atom_site_fract_y
  _atom_site_fract_z
  _atom_site_occupancy
  Gd  Gd1       1.0  0.00000  0.00000  0.00000  1.0000
  Ge  Ge1       1.0  0.62500  0.62500  0.24900  1.0000
  Ge  Ge2       1.0  0.37500  0.37500  0.75100  1.0000
  Pt  Pt1       1.0  0.75000  0.25000  0.50000  1.0000
  Pt  Pt2       1.0  0.25000  0.75000  0.50000  1.0000
