data_image0
_chemical_formula_structural       Ge7Mg6Ni16
_chemical_formula_sum              "Ge7 Mg6 Ni16"
_cell_length_a       8.17062
_cell_length_b       8.17062
_cell_length_c       8.17062
_cell_angle_alpha    120
_cell_angle_beta     90
_cell_angle_gamma    120

_space_group_name_H-M_alt    "P 1"
_space_group_IT_number       1

loop_
  _space_group_symop_operation_xyz
  'x, y, z'

loop_
  _atom_site_type_symbol
  _atom_site_label
  _atom_site_symmetry_multiplicity
  _atom_site_fract_x
  _atom_site_fract_y
  _atom_site_fract_z
  _atom_site_occupancy
  Ge  Ge1       1.0  0.50000  0.00000  0.00000  1.0000
  Ge  Ge2       1.0  0.00000  0.50000  0.00000  1.0000
  Ge  Ge3       1.0  0.50000  0.50000  0.00000  1.0000
  Ge  Ge4       1.0  0.00000  0.00000  0.50000  1.0000
  Ge  Ge5       1.0  0.50000  0.00000  0.50000  1.0000
  Ge  Ge6       1.0  0.00000  0.50000  0.50000  1.0000
  Ge  Ge7       1.0  0.50000  0.50000  0.50000  1.0000
  Mg  Mg1       1.0  0.79600  0.00000  0.20400  1.0000
  Mg  Mg2       1.0  0.20400  0.00000  0.20400  1.0000
  Mg  Mg3       1.0  0.20400  0.40900  0.20400  1.0000
  Mg  Mg4       1.0  0.79600  0.00000  0.79600  1.0000
  Mg  Mg5       1.0  0.20400  0.00000  0.79600  1.0000
  Mg  Mg6       1.0  0.79600  0.59100  0.79600  1.0000
  Ni  Ni1       1.0  0.38200  0.76300  0.14500  1.0000
  Ni  Ni2       1.0  0.50500  0.33700  0.16800  1.0000
  Ni  Ni3       1.0  0.83200  0.33700  0.16800  1.0000
  Ni  Ni4       1.0  0.83200  0.66300  0.16800  1.0000
  Ni  Ni5       1.0  0.61800  0.23700  0.38200  1.0000
  Ni  Ni6       1.0  0.14500  0.76300  0.38200  1.0000
  Ni  Ni7       1.0  0.61800  0.76300  0.38200  1.0000
  Ni  Ni8       1.0  0.83200  0.66300  0.49500  1.0000
  Ni  Ni9       1.0  0.16800  0.33700  0.50500  1.0000
  Ni  Ni10      1.0  0.85500  0.23700  0.61800  1.0000
  Ni  Ni11      1.0  0.38200  0.23700  0.61800  1.0000
  Ni  Ni12      1.0  0.38200  0.76300  0.61800  1.0000
  Ni  Ni13      1.0  0.16800  0.33700  0.83200  1.0000
  Ni  Ni14      1.0  0.16800  0.66300  0.83200  1.0000
  Ni  Ni15      1.0  0.49500  0.66300  0.83200  1.0000
  Ni  Ni16      1.0  0.61800  0.23700  0.85500  1.0000
