data_image0
_chemical_formula_structural       Fe2Nb8Si2
_chemical_formula_sum              "Fe2 Nb8 Si2"
_cell_length_a       6.17424
_cell_length_b       6.17424
_cell_length_c       5.09354
_cell_angle_alpha    90
_cell_angle_beta     90
_cell_angle_gamma    90

_space_group_name_H-M_alt    "P 1"
_space_group_IT_number       1

loop_
  _space_group_symop_operation_xyz
  'x, y, z'

loop_
  _atom_site_type_symbol
  _atom_site_label
  _atom_site_symmetry_multiplicity
  _atom_site_fract_x
  _atom_site_fract_y
  _atom_site_fract_z
  _atom_site_occupancy
  Fe  Fe1       1.0  0.00000  0.00000  0.25000  1.0000
  Fe  Fe2       1.0  0.00000  0.00000  0.75000  1.0000
  Nb  Nb1       1.0  0.33200  0.15200  0.00000  1.0000
  Nb  Nb2       1.0  0.84800  0.33200  0.00000  1.0000
  Nb  Nb3       1.0  0.15200  0.66800  0.00000  1.0000
  Nb  Nb4       1.0  0.66800  0.84800  0.00000  1.0000
  Nb  Nb5       1.0  0.66800  0.15200  0.50000  1.0000
  Nb  Nb6       1.0  0.15200  0.33200  0.50000  1.0000
  Nb  Nb7       1.0  0.84800  0.66800  0.50000  1.0000
  Nb  Nb8       1.0  0.33200  0.84800  0.50000  1.0000
  Si  Si1       1.0  0.50000  0.50000  0.25000  1.0000
  Si  Si2       1.0  0.50000  0.50000  0.75000  1.0000
