data_image0
_chemical_formula_structural       FeS8Ti4
_chemical_formula_sum              "Fe1 S8 Ti4"
_cell_length_a       6.61502
_cell_length_b       6.61502
_cell_length_c       6.77569
_cell_angle_alpha    104.958
_cell_angle_beta     104.846
_cell_angle_gamma    118.24

_space_group_name_H-M_alt    "P 1"
_space_group_IT_number       1

loop_
  _space_group_symop_operation_xyz
  'x, y, z'

loop_
  _atom_site_type_symbol
  _atom_site_label
  _atom_site_symmetry_multiplicity
  _atom_site_fract_x
  _atom_site_fract_y
  _atom_site_fract_z
  _atom_site_occupancy
  Fe  Fe1       1.0  0.00000  0.00000  0.00000  1.0000
  S   S1        1.0  0.45300  0.21100  0.16700  1.0000
  S   S2        1.0  0.95600  0.71400  0.16700  1.0000
  S   S3        1.0  0.04060  0.29100  0.33200  1.0000
  S   S4        1.0  0.54500  0.78900  0.33400  1.0000
  S   S5        1.0  0.45500  0.21100  0.66600  1.0000
  S   S6        1.0  0.95900  0.70900  0.66800  1.0000
  S   S7        1.0  0.04430  0.28600  0.83300  1.0000
  S   S8        1.0  0.54700  0.78900  0.83300  1.0000
  Ti  Ti1       1.0  0.74500  0.24900  0.99400  1.0000
  Ti  Ti2       1.0  0.25500  0.75100  0.00631  1.0000
  Ti  Ti3       1.0  0.74100  0.24100  0.50000  1.0000
  Ti  Ti4       1.0  0.25900  0.75900  0.50000  1.0000
