data_image0
_chemical_formula_structural       GaMo4S8Si
_chemical_formula_sum              "Ga1 Mo4 S8 Si1"
_cell_length_a       7.43258
_cell_length_b       7.43258
_cell_length_c       7.43258
_cell_angle_alpha    120
_cell_angle_beta     90
_cell_angle_gamma    120

_space_group_name_H-M_alt    "P 1"
_space_group_IT_number       1

loop_
  _space_group_symop_operation_xyz
  'x, y, z'

loop_
  _atom_site_type_symbol
  _atom_site_label
  _atom_site_symmetry_multiplicity
  _atom_site_fract_x
  _atom_site_fract_y
  _atom_site_fract_z
  _atom_site_occupancy
  Ga  Ga1       1.0  0.00000  0.00000  0.00000  1.0000
  Mo  Mo1       1.0  0.59500  0.18900  0.40500  1.0000
  Mo  Mo2       1.0  0.21600  0.81100  0.40500  1.0000
  Mo  Mo3       1.0  0.59500  0.81100  0.40500  1.0000
  Mo  Mo4       1.0  0.59500  0.18900  0.78400  1.0000
  S   S1        1.0  0.37500  0.74900  0.12400  1.0000
  S   S2        1.0  0.40600  0.27100  0.13500  1.0000
  S   S3        1.0  0.86500  0.27100  0.13500  1.0000
  S   S4        1.0  0.86500  0.72900  0.13500  1.0000
  S   S5        1.0  0.86500  0.72900  0.59400  1.0000
  S   S6        1.0  0.37500  0.25100  0.62500  1.0000
  S   S7        1.0  0.37500  0.74900  0.62500  1.0000
  S   S8        1.0  0.87600  0.25100  0.62500  1.0000
  Si  Si1       1.0  0.75000  0.50000  0.25000  1.0000
