data_image0
_chemical_formula_structural       Er2Rh6Si4
_chemical_formula_sum              "Er2 Rh6 Si4"
_cell_length_a       5.54418
_cell_length_b       6.60324
_cell_length_c       6.60324
_cell_angle_alpha    93.2048
_cell_angle_beta     114.822
_cell_angle_gamma    114.822

_space_group_name_H-M_alt    "P 1"
_space_group_IT_number       1

loop_
  _space_group_symop_operation_xyz
  'x, y, z'

loop_
  _atom_site_type_symbol
  _atom_site_label
  _atom_site_symmetry_multiplicity
  _atom_site_fract_x
  _atom_site_fract_y
  _atom_site_fract_z
  _atom_site_occupancy
  Er  Er1       1.0  0.29000  0.75000  0.25000  1.0000
  Er  Er2       1.0  0.71000  0.25000  0.75000  1.0000
  Rh  Rh1       1.0  0.50000  0.50000  0.00000  1.0000
  Rh  Rh2       1.0  0.71500  0.21500  0.21500  1.0000
  Rh  Rh3       1.0  0.28500  0.28500  0.28500  1.0000
  Rh  Rh4       1.0  0.00000  0.00000  0.50000  1.0000
  Rh  Rh5       1.0  0.71500  0.71500  0.71500  1.0000
  Rh  Rh6       1.0  0.28500  0.78500  0.78500  1.0000
  Si  Si1       1.0  0.80500  0.92100  0.07890  1.0000
  Si  Si2       1.0  0.80500  0.57900  0.42100  1.0000
  Si  Si3       1.0  0.19500  0.42100  0.57900  1.0000
  Si  Si4       1.0  0.19500  0.07890  0.92100  1.0000
