data_image0
_chemical_formula_structural       Fe6Si2Zr4
_chemical_formula_sum              "Fe6 Si2 Zr4"
_cell_length_a       4.97403
_cell_length_b       4.97394
_cell_length_c       8.03541
_cell_angle_alpha    90
_cell_angle_beta     90
_cell_angle_gamma    120.001

_space_group_name_H-M_alt    "P 1"
_space_group_IT_number       1

loop_
  _space_group_symop_operation_xyz
  'x, y, z'

loop_
  _atom_site_type_symbol
  _atom_site_label
  _atom_site_symmetry_multiplicity
  _atom_site_fract_x
  _atom_site_fract_y
  _atom_site_fract_z
  _atom_site_occupancy
  Fe  Fe1       1.0  0.34000  0.17000  0.25000  1.0000
  Fe  Fe2       1.0  0.83000  0.17000  0.25000  1.0000
  Fe  Fe3       1.0  0.83000  0.66000  0.25000  1.0000
  Fe  Fe4       1.0  0.17000  0.34000  0.75000  1.0000
  Fe  Fe5       1.0  0.17000  0.83000  0.75000  1.0000
  Fe  Fe6       1.0  0.66000  0.83000  0.75000  1.0000
  Si  Si1       1.0  0.00000  0.00000  0.00000  1.0000
  Si  Si2       1.0  0.00000  0.00000  0.50000  1.0000
  Zr  Zr1       1.0  0.33300  0.66700  0.06360  1.0000
  Zr  Zr2       1.0  0.33300  0.66700  0.43600  1.0000
  Zr  Zr3       1.0  0.66700  0.33300  0.56400  1.0000
  Zr  Zr4       1.0  0.66700  0.33300  0.93600  1.0000
