data_image0
_chemical_formula_structural       Ge4La3Ni4
_chemical_formula_sum              "Ge4 La3 Ni4"
_cell_length_a       4.20876
_cell_length_b       4.23588
_cell_length_c       12.4395
_cell_angle_alpha    99.8029
_cell_angle_beta     99.7395
_cell_angle_gamma    90

_space_group_name_H-M_alt    "P 1"
_space_group_IT_number       1

loop_
  _space_group_symop_operation_xyz
  'x, y, z'

loop_
  _atom_site_type_symbol
  _atom_site_label
  _atom_site_symmetry_multiplicity
  _atom_site_fract_x
  _atom_site_fract_y
  _atom_site_fract_z
  _atom_site_occupancy
  Ge  Ge1       1.0  0.55300  0.55300  0.10700  1.0000
  Ge  Ge2       1.0  0.70000  0.20000  0.40000  1.0000
  Ge  Ge3       1.0  0.30000  0.80000  0.60000  1.0000
  Ge  Ge4       1.0  0.44700  0.44700  0.89300  1.0000
  La  La1       1.0  0.00000  0.00000  0.00000  1.0000
  La  La2       1.0  0.15100  0.65100  0.30200  1.0000
  La  La3       1.0  0.84900  0.34900  0.69800  1.0000
  Ni  Ni1       1.0  0.59900  0.09930  0.19900  1.0000
  Ni  Ni2       1.0  0.24900  0.24900  0.49800  1.0000
  Ni  Ni3       1.0  0.75100  0.75100  0.50200  1.0000
  Ni  Ni4       1.0  0.40100  0.90100  0.80100  1.0000
