data_image0
_chemical_formula_structural       Ge4Ir2Nd4
_chemical_formula_sum              "Ge4 Ir2 Nd4"
_cell_length_a       4.9379
_cell_length_b       4.8176
_cell_length_c       11.998
_cell_angle_alpha    102.654
_cell_angle_beta     101.875
_cell_angle_gamma    59.1705

_space_group_name_H-M_alt    "P 1"
_space_group_IT_number       1

loop_
  _space_group_symop_operation_xyz
  'x, y, z'

loop_
  _atom_site_type_symbol
  _atom_site_label
  _atom_site_symmetry_multiplicity
  _atom_site_fract_x
  _atom_site_fract_y
  _atom_site_fract_z
  _atom_site_occupancy
  Ge  Ge1       1.0  0.95300  0.48300  0.38900  1.0000
  Ge  Ge2       1.0  0.29400  0.84800  0.43700  1.0000
  Ge  Ge3       1.0  0.70600  0.15200  0.56300  1.0000
  Ge  Ge4       1.0  0.04710  0.51700  0.61100  1.0000
  Ir  Ir1       1.0  0.21400  0.74500  0.17300  1.0000
  Ir  Ir2       1.0  0.78600  0.25500  0.82700  1.0000
  Nd  Nd1       1.0  0.85700  0.37400  0.08860  1.0000
  Nd  Nd2       1.0  0.58200  0.11900  0.28300  1.0000
  Nd  Nd3       1.0  0.41800  0.88100  0.71700  1.0000
  Nd  Nd4       1.0  0.14300  0.62600  0.91100  1.0000
