data_image0
_chemical_formula_structural       Cu2S4
_chemical_formula_sum              "Cu2 S4"
_cell_length_a       4.70078
_cell_length_b       5.81906
_cell_length_c       3.59658
_cell_angle_alpha    90
_cell_angle_beta     90
_cell_angle_gamma    90

_space_group_name_H-M_alt    "P 1"
_space_group_IT_number       1

loop_
  _space_group_symop_operation_xyz
  'x, y, z'

loop_
  _atom_site_type_symbol
  _atom_site_label
  _atom_site_symmetry_multiplicity
  _atom_site_fract_x
  _atom_site_fract_y
  _atom_site_fract_z
  _atom_site_occupancy
  Cu  Cu1       1.0  0.00000  0.00000  0.00000  1.0000
  Cu  Cu2       1.0  0.50000  0.50000  0.50000  1.0000
  S   S1        1.0  0.17300  0.39500  0.00000  1.0000
  S   S2        1.0  0.82700  0.60500  0.00000  1.0000
  S   S3        1.0  0.67300  0.10500  0.50000  1.0000
  S   S4        1.0  0.32700  0.89500  0.50000  1.0000
