data_image0
_chemical_formula_structural       Ga2HgTe4
_chemical_formula_sum              "Ga2 Hg1 Te4"
_cell_length_a       6.26735
_cell_length_b       6.26735
_cell_length_c       7.46917
_cell_angle_alpha    114.806
_cell_angle_beta     114.806
_cell_angle_gamma    90

_space_group_name_H-M_alt    "P 1"
_space_group_IT_number       1

loop_
  _space_group_symop_operation_xyz
  'x, y, z'

loop_
  _atom_site_type_symbol
  _atom_site_label
  _atom_site_symmetry_multiplicity
  _atom_site_fract_x
  _atom_site_fract_y
  _atom_site_fract_z
  _atom_site_occupancy
  Ga  Ga1       1.0  0.50000  0.50000  0.00000  1.0000
  Ga  Ga2       1.0  0.25000  0.75000  0.50000  1.0000
  Hg  Hg1       1.0  0.00000  0.00000  0.00000  1.0000
  Te  Te1       1.0  0.41500  0.39300  0.27700  1.0000
  Te  Te2       1.0  0.86200  0.88400  0.27700  1.0000
  Te  Te3       1.0  0.60700  0.13800  0.72300  1.0000
  Te  Te4       1.0  0.11600  0.58500  0.72300  1.0000
