data_image0
_chemical_formula_structural       Dy2Ge4Pt4
_chemical_formula_sum              "Dy2 Ge4 Pt4"
_cell_length_a       4.28968
_cell_length_b       4.30131
_cell_length_c       10.2081
_cell_angle_alpha    90
_cell_angle_beta     90.2972
_cell_angle_gamma    90

_space_group_name_H-M_alt    "P 1"
_space_group_IT_number       1

loop_
  _space_group_symop_operation_xyz
  'x, y, z'

loop_
  _atom_site_type_symbol
  _atom_site_label
  _atom_site_symmetry_multiplicity
  _atom_site_fract_x
  _atom_site_fract_y
  _atom_site_fract_z
  _atom_site_occupancy
  Dy  Dy1       1.0  0.75100  0.74600  0.24600  1.0000
  Dy  Dy2       1.0  0.24900  0.24600  0.75400  1.0000
  Ge  Ge1       1.0  0.24700  0.25200  0.13300  1.0000
  Ge  Ge2       1.0  0.24900  0.73900  0.49900  1.0000
  Ge  Ge3       1.0  0.75100  0.23900  0.50100  1.0000
  Ge  Ge4       1.0  0.75300  0.75200  0.86700  1.0000
  Pt  Pt1       1.0  0.25400  0.75300  0.00077  1.0000
  Pt  Pt2       1.0  0.24900  0.23800  0.37000  1.0000
  Pt  Pt3       1.0  0.75100  0.73800  0.63000  1.0000
  Pt  Pt4       1.0  0.74600  0.25300  0.99900  1.0000
