data_image0
_chemical_formula_structural       Ce2Cr2O2Se4
_chemical_formula_sum              "Ce2 Cr2 O2 Se4"
_cell_length_a       3.92604
_cell_length_b       6.20927
_cell_length_c       8.41111
_cell_angle_alpha    90.0956
_cell_angle_beta     90
_cell_angle_gamma    108.43

_space_group_name_H-M_alt    "P 1"
_space_group_IT_number       1

loop_
  _space_group_symop_operation_xyz
  'x, y, z'

loop_
  _atom_site_type_symbol
  _atom_site_label
  _atom_site_symmetry_multiplicity
  _atom_site_fract_x
  _atom_site_fract_y
  _atom_site_fract_z
  _atom_site_occupancy
  Ce  Ce1       1.0  0.77100  0.54200  0.19400  1.0000
  Ce  Ce2       1.0  0.22900  0.45800  0.80600  1.0000
  Cr  Cr1       1.0  0.50000  0.00000  0.00000  1.0000
  Cr  Cr2       1.0  0.00000  0.00000  0.50000  1.0000
  O   O1        1.0  0.33400  0.66800  0.05840  1.0000
  O   O2        1.0  0.66600  0.33200  0.94200  1.0000
  Se  Se1       1.0  0.04670  0.09330  0.20000  1.0000
  Se  Se2       1.0  0.35900  0.71900  0.47300  1.0000
  Se  Se3       1.0  0.64100  0.28100  0.52700  1.0000
  Se  Se4       1.0  0.95300  0.90700  0.80000  1.0000
