data_image0
_chemical_formula_structural       Ni4Sn4Tb4
_chemical_formula_sum              "Ni4 Sn4 Tb4"
_cell_length_a       7.19516
_cell_length_b       4.48364
_cell_length_c       7.70621
_cell_angle_alpha    90
_cell_angle_beta     90
_cell_angle_gamma    90

_space_group_name_H-M_alt    "P 1"
_space_group_IT_number       1

loop_
  _space_group_symop_operation_xyz
  'x, y, z'

loop_
  _atom_site_type_symbol
  _atom_site_label
  _atom_site_symmetry_multiplicity
  _atom_site_fract_x
  _atom_site_fract_y
  _atom_site_fract_z
  _atom_site_occupancy
  Ni  Ni1       1.0  0.19600  0.25000  0.08720  1.0000
  Ni  Ni2       1.0  0.69600  0.25000  0.41300  1.0000
  Ni  Ni3       1.0  0.30400  0.75000  0.58700  1.0000
  Ni  Ni4       1.0  0.80400  0.75000  0.91300  1.0000
  Sn  Sn1       1.0  0.80800  0.25000  0.08590  1.0000
  Sn  Sn2       1.0  0.30800  0.25000  0.41400  1.0000
  Sn  Sn3       1.0  0.69200  0.75000  0.58600  1.0000
  Sn  Sn4       1.0  0.19200  0.75000  0.91400  1.0000
  Tb  Tb1       1.0  0.51300  0.75000  0.20300  1.0000
  Tb  Tb2       1.0  0.01270  0.75000  0.29700  1.0000
  Tb  Tb3       1.0  0.98700  0.25000  0.70300  1.0000
  Tb  Tb4       1.0  0.48700  0.25000  0.79700  1.0000
