data_image0
_chemical_formula_structural       O8P2RbTa
_chemical_formula_sum              "O8 P2 Rb1 Ta1"
_cell_length_a       5.0116
_cell_length_b       5.0116
_cell_length_c       8.19976
_cell_angle_alpha    92.8239
_cell_angle_beta     92.8239
_cell_angle_gamma    62.9075

_space_group_name_H-M_alt    "P 1"
_space_group_IT_number       1

loop_
  _space_group_symop_operation_xyz
  'x, y, z'

loop_
  _atom_site_type_symbol
  _atom_site_label
  _atom_site_symmetry_multiplicity
  _atom_site_fract_x
  _atom_site_fract_y
  _atom_site_fract_z
  _atom_site_occupancy
  O   O1        1.0  0.68600  0.68600  0.11800  1.0000
  O   O2        1.0  0.77800  0.30300  0.33300  1.0000
  O   O3        1.0  0.30300  0.77800  0.33300  1.0000
  O   O4        1.0  0.78100  0.78100  0.42100  1.0000
  O   O5        1.0  0.21900  0.21900  0.57900  1.0000
  O   O6        1.0  0.69700  0.22200  0.66700  1.0000
  O   O7        1.0  0.22200  0.69700  0.66700  1.0000
  O   O8        1.0  0.31400  0.31400  0.88200  1.0000
  P   P1        1.0  0.64100  0.64100  0.29000  1.0000
  P   P2        1.0  0.35900  0.35900  0.71000  1.0000
  Rb  Rb1       1.0  0.00000  0.00000  0.00000  1.0000
  Ta  Ta1       1.0  1.00000  0.00000  0.50000  1.0000
