data_image0
_chemical_formula_structural       Cl8O4Si4
_chemical_formula_sum              "Cl8 O4 Si4"
_cell_length_a       5.99807
_cell_length_b       8.16496
_cell_length_c       8.23248
_cell_angle_alpha    77.2928
_cell_angle_beta     80.7697
_cell_angle_gamma    72.2748

_space_group_name_H-M_alt    "P 1"
_space_group_IT_number       1

loop_
  _space_group_symop_operation_xyz
  'x, y, z'

loop_
  _atom_site_type_symbol
  _atom_site_label
  _atom_site_symmetry_multiplicity
  _atom_site_fract_x
  _atom_site_fract_y
  _atom_site_fract_z
  _atom_site_occupancy
  Cl  Cl1       1.0  0.43500  0.71700  0.10000  1.0000
  Cl  Cl2       1.0  0.87000  0.88000  0.21600  1.0000
  Cl  Cl3       1.0  0.28900  0.11400  0.33100  1.0000
  Cl  Cl4       1.0  0.73800  0.33400  0.42400  1.0000
  Cl  Cl5       1.0  0.26200  0.66600  0.57600  1.0000
  Cl  Cl6       1.0  0.71100  0.88600  0.66900  1.0000
  Cl  Cl7       1.0  0.13000  0.12000  0.78400  1.0000
  Cl  Cl8       1.0  0.56500  0.28300  0.90000  1.0000
  O   O1        1.0  0.95200  0.30300  0.07550  1.0000
  O   O2        1.0  0.10400  0.49900  0.22700  1.0000
  O   O3        1.0  0.89600  0.50100  0.77300  1.0000
  O   O4        1.0  0.04800  0.69700  0.92400  1.0000
  Si  Si1       1.0  0.10900  0.68700  0.11100  1.0000
  Si  Si2       1.0  0.02160  0.32200  0.25100  1.0000
  Si  Si3       1.0  0.97800  0.67800  0.74900  1.0000
  Si  Si4       1.0  0.89100  0.31300  0.88900  1.0000
