data_image0
_chemical_formula_structural       O12Sn2Ta4
_chemical_formula_sum              "O12 Sn2 Ta4"
_cell_length_a       4.87119
_cell_length_b       5.54268
_cell_length_c       8.91755
_cell_angle_alpha    90.8171
_cell_angle_beta     105.85
_cell_angle_gamma    90

_space_group_name_H-M_alt    "P 1"
_space_group_IT_number       1

loop_
  _space_group_symop_operation_xyz
  'x, y, z'

loop_
  _atom_site_type_symbol
  _atom_site_label
  _atom_site_symmetry_multiplicity
  _atom_site_fract_x
  _atom_site_fract_y
  _atom_site_fract_z
  _atom_site_occupancy
  O   O1        1.0  0.14800  0.59500  0.14500  1.0000
  O   O2        1.0  0.99600  0.09470  0.14500  1.0000
  O   O3        1.0  0.60000  0.93500  0.28300  1.0000
  O   O4        1.0  0.68400  0.43500  0.28300  1.0000
  O   O5        1.0  0.15600  0.85300  0.43900  1.0000
  O   O6        1.0  0.28300  0.35300  0.43900  1.0000
  O   O7        1.0  0.84500  0.15000  0.56300  1.0000
  O   O8        1.0  0.71700  0.65000  0.56300  1.0000
  O   O9        1.0  0.31400  0.56600  0.71800  1.0000
  O   O10       1.0  0.40400  0.06640  0.71800  1.0000
  O   O11       1.0  0.84900  0.41000  0.85700  1.0000
  O   O12       1.0  0.00830  0.91000  0.85700  1.0000
  Sn  Sn1       1.0  0.24200  0.25600  0.00018  1.0000
  Sn  Sn2       1.0  0.75800  0.75600  0.00018  1.0000
  Ta  Ta1       1.0  0.41200  0.66700  0.33900  1.0000
  Ta  Ta2       1.0  0.92700  0.16700  0.33900  1.0000
  Ta  Ta3       1.0  0.07370  0.83600  0.66200  1.0000
  Ta  Ta4       1.0  0.58900  0.33600  0.66200  1.0000
