data_image0
_chemical_formula_structural       Li8Sn8Tm8
_chemical_formula_sum              "Li8 Sn8 Tm8"
_cell_length_a       9.27596
_cell_length_b       9.27594
_cell_length_c       7.16448
_cell_angle_alpha    90
_cell_angle_beta     90
_cell_angle_gamma    120

_space_group_name_H-M_alt    "P 1"
_space_group_IT_number       1

loop_
  _space_group_symop_operation_xyz
  'x, y, z'

loop_
  _atom_site_type_symbol
  _atom_site_label
  _atom_site_symmetry_multiplicity
  _atom_site_fract_x
  _atom_site_fract_y
  _atom_site_fract_z
  _atom_site_occupancy
  Li  Li1       1.0  0.16700  0.33400  0.21100  1.0000
  Li  Li2       1.0  0.16700  0.83300  0.21100  1.0000
  Li  Li3       1.0  0.66600  0.83300  0.21100  1.0000
  Li  Li4       1.0  0.66700  0.33300  0.32800  1.0000
  Li  Li5       1.0  0.83300  0.66600  0.71100  1.0000
  Li  Li6       1.0  0.33400  0.16700  0.71100  1.0000
  Li  Li7       1.0  0.83300  0.16700  0.71100  1.0000
  Li  Li8       1.0  0.33300  0.66700  0.82800  1.0000
  Sn  Sn1       1.0  0.33300  0.66700  0.23900  1.0000
  Sn  Sn2       1.0  0.83300  0.66700  0.26900  1.0000
  Sn  Sn3       1.0  0.33300  0.16700  0.26900  1.0000
  Sn  Sn4       1.0  0.83300  0.16700  0.26900  1.0000
  Sn  Sn5       1.0  0.66700  0.33300  0.73900  1.0000
  Sn  Sn6       1.0  0.16700  0.33300  0.76900  1.0000
  Sn  Sn7       1.0  0.16700  0.83300  0.76900  1.0000
  Sn  Sn8       1.0  0.66700  0.83300  0.76900  1.0000
  Tm  Tm1       1.0  0.00000  0.00000  0.00089  1.0000
  Tm  Tm2       1.0  0.51200  0.02420  0.00641  1.0000
  Tm  Tm3       1.0  0.51200  0.48800  0.00642  1.0000
  Tm  Tm4       1.0  0.97600  0.48800  0.00642  1.0000
  Tm  Tm5       1.0  0.00000  0.00000  0.50100  1.0000
  Tm  Tm6       1.0  0.48800  0.97600  0.50600  1.0000
  Tm  Tm7       1.0  0.02420  0.51200  0.50600  1.0000
  Tm  Tm8       1.0  0.48800  0.51200  0.50600  1.0000
