data_image0
_chemical_formula_structural       C8Ca4
_chemical_formula_sum              "C8 Ca4"
_cell_length_a       3.94242
_cell_length_b       7.51846
_cell_length_c       6.84286
_cell_angle_alpha    73.2808
_cell_angle_beta     90.7814
_cell_angle_gamma    82.5695

_space_group_name_H-M_alt    "P 1"
_space_group_IT_number       1

loop_
  _space_group_symop_operation_xyz
  'x, y, z'

loop_
  _atom_site_type_symbol
  _atom_site_label
  _atom_site_symmetry_multiplicity
  _atom_site_fract_x
  _atom_site_fract_y
  _atom_site_fract_z
  _atom_site_occupancy
  C   C1        1.0  0.32000  0.06060  0.18500  1.0000
  C   C2        1.0  0.68800  0.42900  0.24100  1.0000
  C   C3        1.0  0.81000  0.57100  0.25900  1.0000
  C   C4        1.0  0.18100  0.93900  0.31400  1.0000
  C   C5        1.0  0.81900  0.06060  0.68600  1.0000
  C   C6        1.0  0.19000  0.42900  0.74100  1.0000
  C   C7        1.0  0.31200  0.57100  0.75900  1.0000
  C   C8        1.0  0.68000  0.93900  0.81500  1.0000
  Ca  Ca1       1.0  0.25400  0.75500  0.02730  1.0000
  Ca  Ca2       1.0  0.24400  0.24600  0.47200  1.0000
  Ca  Ca3       1.0  0.75600  0.75400  0.52800  1.0000
  Ca  Ca4       1.0  0.74600  0.24500  0.97300  1.0000
