data_image0
_chemical_formula_structural       Mn4Si4Tb4
_chemical_formula_sum              "Mn4 Si4 Tb4"
_cell_length_a       7.0051
_cell_length_b       4.11179
_cell_length_c       7.57883
_cell_angle_alpha    90
_cell_angle_beta     90
_cell_angle_gamma    90

_space_group_name_H-M_alt    "P 1"
_space_group_IT_number       1

loop_
  _space_group_symop_operation_xyz
  'x, y, z'

loop_
  _atom_site_type_symbol
  _atom_site_label
  _atom_site_symmetry_multiplicity
  _atom_site_fract_x
  _atom_site_fract_y
  _atom_site_fract_z
  _atom_site_occupancy
  Mn  Mn1       1.0  0.36300  0.75000  0.05860  1.0000
  Mn  Mn2       1.0  0.86300  0.75000  0.44100  1.0000
  Mn  Mn3       1.0  0.13700  0.25000  0.55900  1.0000
  Mn  Mn4       1.0  0.63700  0.25000  0.94100  1.0000
  Si  Si1       1.0  0.71100  0.75000  0.11000  1.0000
  Si  Si2       1.0  0.21100  0.75000  0.39000  1.0000
  Si  Si3       1.0  0.78900  0.25000  0.61000  1.0000
  Si  Si4       1.0  0.28900  0.25000  0.89000  1.0000
  Tb  Tb1       1.0  0.00878  0.25000  0.18500  1.0000
  Tb  Tb2       1.0  0.50900  0.25000  0.31500  1.0000
  Tb  Tb3       1.0  0.49100  0.75000  0.68500  1.0000
  Tb  Tb4       1.0  0.99100  0.75000  0.81500  1.0000
