data_image0
_chemical_formula_structural       Br12In4Zr2
_chemical_formula_sum              "Br12 In4 Zr2"
_cell_length_a       7.41416
_cell_length_b       7.41416
_cell_length_c       10.8312
_cell_angle_alpha    90
_cell_angle_beta     90
_cell_angle_gamma    90

_space_group_name_H-M_alt    "P 1"
_space_group_IT_number       1

loop_
  _space_group_symop_operation_xyz
  'x, y, z'

loop_
  _atom_site_type_symbol
  _atom_site_label
  _atom_site_symmetry_multiplicity
  _atom_site_fract_x
  _atom_site_fract_y
  _atom_site_fract_z
  _atom_site_occupancy
  Br  Br1       1.0  0.30200  0.19000  0.00000  1.0000
  Br  Br2       1.0  0.81000  0.30200  0.00000  1.0000
  Br  Br3       1.0  0.19000  0.69800  0.00000  1.0000
  Br  Br4       1.0  0.69800  0.81000  0.00000  1.0000
  Br  Br5       1.0  0.00000  0.00000  0.24400  1.0000
  Br  Br6       1.0  0.50000  0.50000  0.25600  1.0000
  Br  Br7       1.0  0.31000  0.19800  0.50000  1.0000
  Br  Br8       1.0  0.80200  0.31000  0.50000  1.0000
  Br  Br9       1.0  0.19800  0.69000  0.50000  1.0000
  Br  Br10      1.0  0.69000  0.80200  0.50000  1.0000
  Br  Br11      1.0  0.50000  0.50000  0.74400  1.0000
  Br  Br12      1.0  0.00000  0.00000  0.75600  1.0000
  In  In1       1.0  0.50000  0.00000  0.25000  1.0000
  In  In2       1.0  0.00000  0.50000  0.25000  1.0000
  In  In3       1.0  0.50000  0.00000  0.75000  1.0000
  In  In4       1.0  0.00000  0.50000  0.75000  1.0000
  Zr  Zr1       1.0  0.00000  0.00000  0.00000  1.0000
  Zr  Zr2       1.0  0.50000  0.50000  0.50000  1.0000
