data_image0
_chemical_formula_structural       Ge4Sr8
_chemical_formula_sum              "Ge4 Sr8"
_cell_length_a       8.15142
_cell_length_b       5.18114
_cell_length_c       9.65319
_cell_angle_alpha    90
_cell_angle_beta     90
_cell_angle_gamma    90

_space_group_name_H-M_alt    "P 1"
_space_group_IT_number       1

loop_
  _space_group_symop_operation_xyz
  'x, y, z'

loop_
  _atom_site_type_symbol
  _atom_site_label
  _atom_site_symmetry_multiplicity
  _atom_site_fract_x
  _atom_site_fract_y
  _atom_site_fract_z
  _atom_site_occupancy
  Ge  Ge1       1.0  0.25300  0.25000  0.10200  1.0000
  Ge  Ge2       1.0  0.75300  0.25000  0.39800  1.0000
  Ge  Ge3       1.0  0.24700  0.75000  0.60200  1.0000
  Ge  Ge4       1.0  0.74700  0.75000  0.89800  1.0000
  Sr  Sr1       1.0  0.65300  0.25000  0.07820  1.0000
  Sr  Sr2       1.0  0.98100  0.75000  0.17500  1.0000
  Sr  Sr3       1.0  0.48100  0.75000  0.32500  1.0000
  Sr  Sr4       1.0  0.15300  0.25000  0.42200  1.0000
  Sr  Sr5       1.0  0.84700  0.75000  0.57800  1.0000
  Sr  Sr6       1.0  0.51900  0.25000  0.67500  1.0000
  Sr  Sr7       1.0  0.01850  0.25000  0.82500  1.0000
  Sr  Sr8       1.0  0.34700  0.75000  0.92200  1.0000
