data_image0
_chemical_formula_structural       Pb4Pt2
_chemical_formula_sum              "Pb4 Pt2"
_cell_length_a       5.75889
_cell_length_b       5.75889
_cell_length_c       5.75889
_cell_angle_alpha    104.775
_cell_angle_beta     104.775
_cell_angle_gamma    119.337

_space_group_name_H-M_alt    "P 1"
_space_group_IT_number       1

loop_
  _space_group_symop_operation_xyz
  'x, y, z'

loop_
  _atom_site_type_symbol
  _atom_site_label
  _atom_site_symmetry_multiplicity
  _atom_site_fract_x
  _atom_site_fract_y
  _atom_site_fract_z
  _atom_site_occupancy
  Pb  Pb1       1.0  0.83900  0.33900  0.17800  1.0000
  Pb  Pb2       1.0  0.33900  0.16100  0.50000  1.0000
  Pb  Pb3       1.0  0.66100  0.83900  0.50000  1.0000
  Pb  Pb4       1.0  0.16100  0.66100  0.82200  1.0000
  Pt  Pt1       1.0  0.25000  0.25000  0.00000  1.0000
  Pt  Pt2       1.0  0.75000  0.75000  0.00000  1.0000
