data_image0
_chemical_formula_structural       Br6Ca2In2
_chemical_formula_sum              "Br6 Ca2 In2"
_cell_length_a       4.26985
_cell_length_b       7.39007
_cell_length_c       10.9243
_cell_angle_alpha    90
_cell_angle_beta     90
_cell_angle_gamma    73.2084

_space_group_name_H-M_alt    "P 1"
_space_group_IT_number       1

loop_
  _space_group_symop_operation_xyz
  'x, y, z'

loop_
  _atom_site_type_symbol
  _atom_site_label
  _atom_site_symmetry_multiplicity
  _atom_site_fract_x
  _atom_site_fract_y
  _atom_site_fract_z
  _atom_site_occupancy
  Br  Br1       1.0  0.13500  0.72900  0.04730  1.0000
  Br  Br2       1.0  0.43300  0.13500  0.25000  1.0000
  Br  Br3       1.0  0.13500  0.72900  0.45300  1.0000
  Br  Br4       1.0  0.86500  0.27100  0.54700  1.0000
  Br  Br5       1.0  0.56700  0.86500  0.75000  1.0000
  Br  Br6       1.0  0.86500  0.27100  0.95300  1.0000
  Ca  Ca1       1.0  0.50000  0.00000  0.00000  1.0000
  Ca  Ca2       1.0  0.50000  0.00000  0.50000  1.0000
  In  In1       1.0  0.76200  0.47700  0.25000  1.0000
  In  In2       1.0  0.23800  0.52300  0.75000  1.0000
