data_image0
_chemical_formula_structural       Pd8Zr6
_chemical_formula_sum              "Pd8 Zr6"
_cell_length_a       5.57399
_cell_length_b       7.5038
_cell_length_c       7.5038
_cell_angle_alpha    114.082
_cell_angle_beta     104.336
_cell_angle_gamma    104.336

_space_group_name_H-M_alt    "P 1"
_space_group_IT_number       1

loop_
  _space_group_symop_operation_xyz
  'x, y, z'

loop_
  _atom_site_type_symbol
  _atom_site_label
  _atom_site_symmetry_multiplicity
  _atom_site_fract_x
  _atom_site_fract_y
  _atom_site_fract_z
  _atom_site_occupancy
  Pd  Pd1       1.0  0.00000  0.00000  0.00000  1.0000
  Pd  Pd2       1.0  0.50000  0.00000  0.00000  1.0000
  Pd  Pd3       1.0  0.92200  0.48200  0.16000  1.0000
  Pd  Pd4       1.0  0.76100  0.84000  0.32200  1.0000
  Pd  Pd5       1.0  0.56100  0.32200  0.48200  1.0000
  Pd  Pd6       1.0  0.43900  0.67800  0.51800  1.0000
  Pd  Pd7       1.0  0.23900  0.16000  0.67800  1.0000
  Pd  Pd8       1.0  0.07810  0.51800  0.84000  1.0000
  Zr  Zr1       1.0  0.39600  0.39100  0.13000  1.0000
  Zr  Zr2       1.0  0.26600  0.87000  0.26100  1.0000
  Zr  Zr3       1.0  0.99500  0.26100  0.39100  1.0000
  Zr  Zr4       1.0  0.00530  0.73900  0.60900  1.0000
  Zr  Zr5       1.0  0.73400  0.13000  0.73900  1.0000
  Zr  Zr6       1.0  0.60400  0.60900  0.87000  1.0000
