data_image0
_chemical_formula_structural       Ge4Rh4Tb4
_chemical_formula_sum              "Ge4 Rh4 Tb4"
_cell_length_a       6.98026
_cell_length_b       4.3468
_cell_length_c       7.54599
_cell_angle_alpha    90
_cell_angle_beta     90
_cell_angle_gamma    90

_space_group_name_H-M_alt    "P 1"
_space_group_IT_number       1

loop_
  _space_group_symop_operation_xyz
  'x, y, z'

loop_
  _atom_site_type_symbol
  _atom_site_label
  _atom_site_symmetry_multiplicity
  _atom_site_fract_x
  _atom_site_fract_y
  _atom_site_fract_z
  _atom_site_occupancy
  Ge  Ge1       1.0  0.70900  0.75000  0.10400  1.0000
  Ge  Ge2       1.0  0.20900  0.75000  0.39600  1.0000
  Ge  Ge3       1.0  0.79100  0.25000  0.60400  1.0000
  Ge  Ge4       1.0  0.29100  0.25000  0.89600  1.0000
  Rh  Rh1       1.0  0.34300  0.75000  0.06970  1.0000
  Rh  Rh2       1.0  0.84300  0.75000  0.43000  1.0000
  Rh  Rh3       1.0  0.15700  0.25000  0.57000  1.0000
  Rh  Rh4       1.0  0.65700  0.25000  0.93000  1.0000
  Tb  Tb1       1.0  0.99900  0.25000  0.19500  1.0000
  Tb  Tb2       1.0  0.49900  0.25000  0.30500  1.0000
  Tb  Tb3       1.0  0.50100  0.75000  0.69500  1.0000
  Tb  Tb4       1.0  0.00145  0.75000  0.80500  1.0000
