data_image0
_chemical_formula_structural       Sn4Te4
_chemical_formula_sum              "Sn4 Te4"
_cell_length_a       12.2718
_cell_length_b       4.47507
_cell_length_c       4.70547
_cell_angle_alpha    90
_cell_angle_beta     90
_cell_angle_gamma    90

_space_group_name_H-M_alt    "P 1"
_space_group_IT_number       1

loop_
  _space_group_symop_operation_xyz
  'x, y, z'

loop_
  _atom_site_type_symbol
  _atom_site_label
  _atom_site_symmetry_multiplicity
  _atom_site_fract_x
  _atom_site_fract_y
  _atom_site_fract_z
  _atom_site_occupancy
  Sn  Sn1       1.0  0.11600  0.25000  0.09290  1.0000
  Sn  Sn2       1.0  0.61600  0.25000  0.40700  1.0000
  Sn  Sn3       1.0  0.38400  0.75000  0.59300  1.0000
  Sn  Sn4       1.0  0.88400  0.75000  0.90700  1.0000
  Te  Te1       1.0  0.35800  0.25000  0.02110  1.0000
  Te  Te2       1.0  0.85800  0.25000  0.47900  1.0000
  Te  Te3       1.0  0.14200  0.75000  0.52100  1.0000
  Te  Te4       1.0  0.64200  0.75000  0.97900  1.0000
