data_image0
_chemical_formula_structural       Ge6Ni10
_chemical_formula_sum              "Ge6 Ni10"
_cell_length_a       6.36699
_cell_length_b       6.3899
_cell_length_c       6.3899
_cell_angle_alpha    116.153
_cell_angle_beta     64.1608
_cell_angle_gamma    115.839

_space_group_name_H-M_alt    "P 1"
_space_group_IT_number       1

loop_
  _space_group_symop_operation_xyz
  'x, y, z'

loop_
  _atom_site_type_symbol
  _atom_site_label
  _atom_site_symmetry_multiplicity
  _atom_site_fract_x
  _atom_site_fract_y
  _atom_site_fract_z
  _atom_site_occupancy
  Ge  Ge1       1.0  0.00000  0.02130  0.02130  1.0000
  Ge  Ge2       1.0  0.80100  0.50500  0.19800  1.0000
  Ge  Ge3       1.0  0.29500  0.63300  0.33600  1.0000
  Ge  Ge4       1.0  0.19900  0.19800  0.50500  1.0000
  Ge  Ge5       1.0  0.70500  0.33600  0.63300  1.0000
  Ge  Ge6       1.0  0.50000  0.80400  0.80400  1.0000
  Ni  Ni1       1.0  0.65800  0.66000  0.00451  1.0000
  Ni  Ni2       1.0  0.39500  0.25100  0.10600  1.0000
  Ni  Ni3       1.0  0.17300  0.83100  0.17400  1.0000
  Ni  Ni4       1.0  0.60500  0.10600  0.25100  1.0000
  Ni  Ni5       1.0  0.76000  0.92000  0.41100  1.0000
  Ni  Ni6       1.0  0.90100  0.73800  0.58700  1.0000
  Ni  Ni7       1.0  0.34200  0.00451  0.66000  1.0000
  Ni  Ni8       1.0  0.09890  0.58700  0.73800  1.0000
  Ni  Ni9       1.0  0.82700  0.17400  0.83100  1.0000
  Ni  Ni10      1.0  0.24000  0.41100  0.92000  1.0000
