data_image0
_chemical_formula_structural       Ba2O6Se2
_chemical_formula_sum              "Ba2 O6 Se2"
_cell_length_a       4.67758
_cell_length_b       5.65474
_cell_length_c       6.81401
_cell_angle_alpha    90
_cell_angle_beta     106.861
_cell_angle_gamma    90

_space_group_name_H-M_alt    "P 1"
_space_group_IT_number       1

loop_
  _space_group_symop_operation_xyz
  'x, y, z'

loop_
  _atom_site_type_symbol
  _atom_site_label
  _atom_site_symmetry_multiplicity
  _atom_site_fract_x
  _atom_site_fract_y
  _atom_site_fract_z
  _atom_site_occupancy
  Ba  Ba1       1.0  0.65700  0.25000  0.29300  1.0000
  Ba  Ba2       1.0  0.34300  0.75000  0.70700  1.0000
  O   O1        1.0  0.68700  0.75000  0.11700  1.0000
  O   O2        1.0  0.17800  0.51400  0.32400  1.0000
  O   O3        1.0  0.17800  0.98600  0.32400  1.0000
  O   O4        1.0  0.82200  0.01420  0.67600  1.0000
  O   O5        1.0  0.82200  0.48600  0.67600  1.0000
  O   O6        1.0  0.31300  0.25000  0.88300  1.0000
  Se  Se1       1.0  0.06880  0.75000  0.15900  1.0000
  Se  Se2       1.0  0.93100  0.25000  0.84100  1.0000
