data_image0
_chemical_formula_structural       Ag8K4Se6
_chemical_formula_sum              "Ag8 K4 Se6"
_cell_length_a       4.46769
_cell_length_b       9.30154
_cell_length_c       11.9875
_cell_angle_alpha    107.796
_cell_angle_beta     90
_cell_angle_gamma    103.896

_space_group_name_H-M_alt    "P 1"
_space_group_IT_number       1

loop_
  _space_group_symop_operation_xyz
  'x, y, z'

loop_
  _atom_site_type_symbol
  _atom_site_label
  _atom_site_symmetry_multiplicity
  _atom_site_fract_x
  _atom_site_fract_y
  _atom_site_fract_z
  _atom_site_occupancy
  Ag  Ag1       1.0  0.58800  0.17700  0.08510  1.0000
  Ag  Ag2       1.0  0.99100  0.98200  0.12200  1.0000
  Ag  Ag3       1.0  0.98100  0.96300  0.37000  1.0000
  Ag  Ag4       1.0  0.41000  0.82000  0.48300  1.0000
  Ag  Ag5       1.0  0.59000  0.18000  0.51700  1.0000
  Ag  Ag6       1.0  0.01870  0.03750  0.63000  1.0000
  Ag  Ag7       1.0  0.00911  0.01820  0.87800  1.0000
  Ag  Ag8       1.0  0.41200  0.82300  0.91500  1.0000
  K   K1        1.0  0.33700  0.67500  0.16200  1.0000
  K   K2        1.0  0.18600  0.37200  0.34400  1.0000
  K   K3        1.0  0.81400  0.62800  0.65600  1.0000
  K   K4        1.0  0.66300  0.32500  0.83800  1.0000
  Se  Se1       1.0  0.14700  0.29400  0.04090  1.0000
  Se  Se2       1.0  0.53500  0.06930  0.27700  1.0000
  Se  Se3       1.0  0.83600  0.67300  0.38300  1.0000
  Se  Se4       1.0  0.16400  0.32700  0.61700  1.0000
  Se  Se5       1.0  0.46500  0.93100  0.72300  1.0000
  Se  Se6       1.0  0.85300  0.70600  0.95900  1.0000
