data_image0
_chemical_formula_structural       I4O12Zn2
_chemical_formula_sum              "I4 O12 Zn2"
_cell_length_a       5.45603
_cell_length_b       10.8707
_cell_length_c       4.98571
_cell_angle_alpha    90
_cell_angle_beta     90
_cell_angle_gamma    120.294

_space_group_name_H-M_alt    "P 1"
_space_group_IT_number       1

loop_
  _space_group_symop_operation_xyz
  'x, y, z'

loop_
  _atom_site_type_symbol
  _atom_site_label
  _atom_site_symmetry_multiplicity
  _atom_site_fract_x
  _atom_site_fract_y
  _atom_site_fract_z
  _atom_site_occupancy
  I   I1        1.0  0.32900  0.06730  0.98000  1.0000
  I   I2        1.0  0.33400  0.59900  0.99500  1.0000
  I   I3        1.0  0.67100  0.93300  0.48000  1.0000
  I   I4        1.0  0.66600  0.40100  0.49500  1.0000
  O   O1        1.0  0.29800  0.43400  0.14000  1.0000
  O   O2        1.0  0.65800  0.20100  0.15100  1.0000
  O   O3        1.0  0.09310  0.11600  0.16100  1.0000
  O   O4        1.0  0.04670  0.60000  0.18900  1.0000
  O   O5        1.0  0.27100  0.91800  0.19600  1.0000
  O   O6        1.0  0.63900  0.73000  0.19700  1.0000
  O   O7        1.0  0.70200  0.56600  0.64000  1.0000
  O   O8        1.0  0.34200  0.79900  0.65100  1.0000
  O   O9        1.0  0.90700  0.88400  0.66100  1.0000
  O   O10       1.0  0.95300  0.40000  0.68900  1.0000
  O   O11       1.0  0.72900  0.08250  0.69600  1.0000
  O   O12       1.0  0.36100  0.27000  0.69700  1.0000
  Zn  Zn1       1.0  0.98000  0.74500  0.42700  1.0000
  Zn  Zn2       1.0  0.02010  0.25500  0.92700  1.0000
