data_image0
_chemical_formula_structural       Bi2Cu6I2O16Se4
_chemical_formula_sum              "Bi2 Cu6 I2 O16 Se4"
_cell_length_a       6.28807
_cell_length_b       9.61505
_cell_length_c       7.13127
_cell_angle_alpha    90
_cell_angle_beta     90
_cell_angle_gamma    90

_space_group_name_H-M_alt    "P 1"
_space_group_IT_number       1

loop_
  _space_group_symop_operation_xyz
  'x, y, z'

loop_
  _atom_site_type_symbol
  _atom_site_label
  _atom_site_symmetry_multiplicity
  _atom_site_fract_x
  _atom_site_fract_y
  _atom_site_fract_z
  _atom_site_occupancy
  Bi  Bi1       1.0  0.75000  0.75000  0.74400  1.0000
  Bi  Bi2       1.0  0.25000  0.25000  0.25600  1.0000
  Cu  Cu1       1.0  0.25000  0.25000  0.79200  1.0000
  Cu  Cu2       1.0  0.75000  0.75000  0.20800  1.0000
  Cu  Cu3       1.0  0.00000  0.00000  0.00000  1.0000
  Cu  Cu4       1.0  0.50000  0.50000  0.00000  1.0000
  Cu  Cu5       1.0  0.50000  0.00000  0.00000  1.0000
  Cu  Cu6       1.0  0.00000  0.50000  0.00000  1.0000
  I   I1        1.0  0.25000  0.75000  0.15900  1.0000
  I   I2        1.0  0.75000  0.25000  0.84100  1.0000
  O   O1        1.0  0.25000  0.12200  0.57900  1.0000
  O   O2        1.0  0.25000  0.37800  0.57900  1.0000
  O   O3        1.0  0.75000  0.87800  0.42100  1.0000
  O   O4        1.0  0.75000  0.62200  0.42100  1.0000
  O   O5        1.0  0.03550  0.58300  0.74300  1.0000
  O   O6        1.0  0.46500  0.91700  0.74300  1.0000
  O   O7        1.0  0.53500  0.41700  0.25700  1.0000
  O   O8        1.0  0.96500  0.08250  0.25700  1.0000
  O   O9        1.0  0.96500  0.41700  0.25700  1.0000
  O   O10       1.0  0.53500  0.08250  0.25700  1.0000
  O   O11       1.0  0.46500  0.58300  0.74300  1.0000
  O   O12       1.0  0.03550  0.91700  0.74300  1.0000
  O   O13       1.0  0.25000  0.11300  0.98500  1.0000
  O   O14       1.0  0.25000  0.38700  0.98500  1.0000
  O   O15       1.0  0.75000  0.88700  0.01490  1.0000
  O   O16       1.0  0.75000  0.61300  0.01490  1.0000
  Se  Se1       1.0  0.25000  0.55600  0.59500  1.0000
  Se  Se2       1.0  0.25000  0.94400  0.59500  1.0000
  Se  Se3       1.0  0.75000  0.44400  0.40500  1.0000
  Se  Se4       1.0  0.75000  0.05590  0.40500  1.0000
