data_image0
_chemical_formula_structural       Mg3Pd3Y3
_chemical_formula_sum              "Mg3 Pd3 Y3"
_cell_length_a       7.462
_cell_length_b       7.462
_cell_length_c       4.05232
_cell_angle_alpha    90
_cell_angle_beta     90
_cell_angle_gamma    120.001

_space_group_name_H-M_alt    "P 1"
_space_group_IT_number       1

loop_
  _space_group_symop_operation_xyz
  'x, y, z'

loop_
  _atom_site_type_symbol
  _atom_site_label
  _atom_site_symmetry_multiplicity
  _atom_site_fract_x
  _atom_site_fract_y
  _atom_site_fract_z
  _atom_site_occupancy
  Mg  Mg1       1.0  0.24500  0.00001  0.00000  1.0000
  Mg  Mg2       1.0  0.00001  0.24500  0.00000  1.0000
  Mg  Mg3       1.0  0.75500  0.75500  0.00000  1.0000
  Pd  Pd1       1.0  0.66700  0.33300  0.00000  1.0000
  Pd  Pd2       1.0  0.33300  0.66700  0.00000  1.0000
  Pd  Pd3       1.0  0.00001  0.00001  0.50000  1.0000
  Y   Y1        1.0  0.58900  0.00002  0.50000  1.0000
  Y   Y2        1.0  0.41100  0.41100  0.50000  1.0000
  Y   Y3        1.0  0.00002  0.58900  0.50000  1.0000
