data_image0
_chemical_formula_structural       Mn2P2Se6
_chemical_formula_sum              "Mn2 P2 Se6"
_cell_length_a       6.37965
_cell_length_b       6.37965
_cell_length_c       7.76298
_cell_angle_alpha    114.262
_cell_angle_beta     65.7385
_cell_angle_gamma    120

_space_group_name_H-M_alt    "P 1"
_space_group_IT_number       1

loop_
  _space_group_symop_operation_xyz
  'x, y, z'

loop_
  _atom_site_type_symbol
  _atom_site_label
  _atom_site_symmetry_multiplicity
  _atom_site_fract_x
  _atom_site_fract_y
  _atom_site_fract_z
  _atom_site_occupancy
  Mn  Mn1       1.0  0.16700  0.83300  0.49800  1.0000
  Mn  Mn2       1.0  0.83300  0.16700  0.50200  1.0000
  P   P1        1.0  0.55500  0.44500  0.33600  1.0000
  P   P2        1.0  0.44500  0.55500  0.66400  1.0000
  Se  Se1       1.0  0.24500  0.08170  0.25200  1.0000
  Se  Se2       1.0  0.91800  0.41500  0.25200  1.0000
  Se  Se3       1.0  0.58500  0.75500  0.25200  1.0000
  Se  Se4       1.0  0.41500  0.24500  0.74800  1.0000
  Se  Se5       1.0  0.08170  0.58500  0.74800  1.0000
  Se  Se6       1.0  0.75500  0.91800  0.74800  1.0000
