data_image0
_chemical_formula_structural       Fe2P2Se6
_chemical_formula_sum              "Fe2 P2 Se6"
_cell_length_a       6.24932
_cell_length_b       6.24932
_cell_length_c       7.69455
_cell_angle_alpha    113.959
_cell_angle_beta     66.0407
_cell_angle_gamma    120

_space_group_name_H-M_alt    "P 1"
_space_group_IT_number       1

loop_
  _space_group_symop_operation_xyz
  'x, y, z'

loop_
  _atom_site_type_symbol
  _atom_site_label
  _atom_site_symmetry_multiplicity
  _atom_site_fract_x
  _atom_site_fract_y
  _atom_site_fract_z
  _atom_site_occupancy
  Fe  Fe1       1.0  0.16800  0.83200  0.49500  1.0000
  Fe  Fe2       1.0  0.83500  0.16500  0.49600  1.0000
  P   P1        1.0  0.55700  0.44300  0.33000  1.0000
  P   P2        1.0  0.44800  0.55200  0.65600  1.0000
  Se  Se1       1.0  0.58200  0.07070  0.25400  1.0000
  Se  Se2       1.0  0.23500  0.41800  0.25400  1.0000
  Se  Se3       1.0  0.92900  0.76500  0.25400  1.0000
  Se  Se4       1.0  0.07550  0.23100  0.73500  1.0000
  Se  Se5       1.0  0.76900  0.57900  0.73500  1.0000
  Se  Se6       1.0  0.42100  0.92500  0.73500  1.0000
