data_image0
_chemical_formula_structural       Pd4Sn4Tb4
_chemical_formula_sum              "Pd4 Sn4 Tb4"
_cell_length_a       7.229
_cell_length_b       4.63321
_cell_length_c       7.97885
_cell_angle_alpha    90
_cell_angle_beta     90
_cell_angle_gamma    90

_space_group_name_H-M_alt    "P 1"
_space_group_IT_number       1

loop_
  _space_group_symop_operation_xyz
  'x, y, z'

loop_
  _atom_site_type_symbol
  _atom_site_label
  _atom_site_symmetry_multiplicity
  _atom_site_fract_x
  _atom_site_fract_y
  _atom_site_fract_z
  _atom_site_occupancy
  Pd  Pd1       1.0  0.20700  0.25000  0.08630  1.0000
  Pd  Pd2       1.0  0.70700  0.25000  0.41400  1.0000
  Pd  Pd3       1.0  0.29300  0.75000  0.58600  1.0000
  Pd  Pd4       1.0  0.79300  0.75000  0.91400  1.0000
  Sn  Sn1       1.0  0.80800  0.25000  0.08610  1.0000
  Sn  Sn2       1.0  0.30800  0.25000  0.41400  1.0000
  Sn  Sn3       1.0  0.69200  0.75000  0.58600  1.0000
  Sn  Sn4       1.0  0.19200  0.75000  0.91400  1.0000
  Tb  Tb1       1.0  0.50800  0.75000  0.20500  1.0000
  Tb  Tb2       1.0  0.00789  0.75000  0.29500  1.0000
  Tb  Tb3       1.0  0.99200  0.25000  0.70500  1.0000
  Tb  Tb4       1.0  0.49200  0.25000  0.79500  1.0000
