data_image0
_chemical_formula_structural       Ru4Sn6Y
_chemical_formula_sum              "Ru4 Sn6 Y1"
_cell_length_a       6.89969
_cell_length_b       6.89969
_cell_length_c       6.94191
_cell_angle_alpha    119.799
_cell_angle_beta     119.799
_cell_angle_gamma    90

_space_group_name_H-M_alt    "P 1"
_space_group_IT_number       1

loop_
  _space_group_symop_operation_xyz
  'x, y, z'

loop_
  _atom_site_type_symbol
  _atom_site_label
  _atom_site_symmetry_multiplicity
  _atom_site_fract_x
  _atom_site_fract_y
  _atom_site_fract_z
  _atom_site_occupancy
  Ru  Ru1       1.0  0.40400  0.40400  0.15500  1.0000
  Ru  Ru2       1.0  0.75000  0.75000  0.15500  1.0000
  Ru  Ru3       1.0  0.59600  0.25000  0.84500  1.0000
  Ru  Ru4       1.0  0.25000  0.59600  0.84500  1.0000
  Sn  Sn1       1.0  0.50000  0.00000  0.00000  1.0000
  Sn  Sn2       1.0  0.00000  0.50000  0.00000  1.0000
  Sn  Sn3       1.0  0.88300  0.53000  0.41400  1.0000
  Sn  Sn4       1.0  0.53000  0.88300  0.41400  1.0000
  Sn  Sn5       1.0  0.11700  0.11700  0.58600  1.0000
  Sn  Sn6       1.0  0.47000  0.47000  0.58600  1.0000
  Y   Y1        1.0  0.00000  0.00000  0.00000  1.0000
