data_image0
_chemical_formula_structural       Cu5H4O12V2
_chemical_formula_sum              "Cu5 H4 O12 V2"
_cell_length_a       5.30853
_cell_length_b       6.2291
_cell_length_c       6.77278
_cell_angle_alpha    86.4952
_cell_angle_beta     91.6992
_cell_angle_gamma    92.15

_space_group_name_H-M_alt    "P 1"
_space_group_IT_number       1

loop_
  _space_group_symop_operation_xyz
  'x, y, z'

loop_
  _atom_site_type_symbol
  _atom_site_label
  _atom_site_symmetry_multiplicity
  _atom_site_fract_x
  _atom_site_fract_y
  _atom_site_fract_z
  _atom_site_occupancy
  Cu  Cu1       1.0  0.00000  0.50000  0.00000  1.0000
  Cu  Cu2       1.0  0.49600  0.31800  0.17700  1.0000
  Cu  Cu3       1.0  0.99500  0.15400  0.33700  1.0000
  Cu  Cu4       1.0  0.00452  0.84600  0.66300  1.0000
  Cu  Cu5       1.0  0.50400  0.68200  0.82300  1.0000
  H   H1        1.0  0.80200  0.88600  0.01840  1.0000
  H   H2        1.0  0.81200  0.53600  0.35300  1.0000
  H   H3        1.0  0.18800  0.46400  0.64700  1.0000
  H   H4        1.0  0.19800  0.11400  0.98200  1.0000
  O   O1        1.0  0.15800  0.22100  0.07830  1.0000
  O   O2        1.0  0.37900  0.61300  0.14300  1.0000
  O   O3        1.0  0.61600  0.02210  0.19700  1.0000
  O   O4        1.0  0.83800  0.42600  0.25500  1.0000
  O   O5        1.0  0.14300  0.87800  0.39900  1.0000
  O   O6        1.0  0.63100  0.70600  0.49900  1.0000
  O   O7        1.0  0.36900  0.29400  0.50100  1.0000
  O   O8        1.0  0.85700  0.12200  0.60100  1.0000
  O   O9        1.0  0.16200  0.57400  0.74500  1.0000
  O   O10       1.0  0.38400  0.97800  0.80300  1.0000
  O   O11       1.0  0.62100  0.38700  0.85700  1.0000
  O   O12       1.0  0.84200  0.77900  0.92200  1.0000
  V   V1        1.0  0.44100  0.80800  0.31300  1.0000
  V   V2        1.0  0.55900  0.19200  0.68700  1.0000
