data_image0
_chemical_formula_structural       Bi2Se2Te
_chemical_formula_sum              "Bi2 Se2 Te1"
_cell_length_a       4.27502
_cell_length_b       4.27502
_cell_length_c       10.3455
_cell_angle_alpha    101.924
_cell_angle_beta     78.0761
_cell_angle_gamma    120

_space_group_name_H-M_alt    "P 1"
_space_group_IT_number       1

loop_
  _space_group_symop_operation_xyz
  'x, y, z'

loop_
  _atom_site_type_symbol
  _atom_site_label
  _atom_site_symmetry_multiplicity
  _atom_site_fract_x
  _atom_site_fract_y
  _atom_site_fract_z
  _atom_site_occupancy
  Bi  Bi1       1.0  0.59600  0.40400  0.21100  1.0000
  Bi  Bi2       1.0  0.40400  0.59600  0.78900  1.0000
  Se  Se1       1.0  0.21300  0.78700  0.36200  1.0000
  Se  Se2       1.0  0.78700  0.21300  0.63800  1.0000
  Te  Te1       1.0  0.00000  0.00000  0.00000  1.0000
