data_image0
_chemical_formula_structural       Cu20Sn4U4
_chemical_formula_sum              "Cu20 Sn4 U4"
_cell_length_a       4.86903
_cell_length_b       4.87042
_cell_length_c       19.7551
_cell_angle_alpha    90.0079
_cell_angle_beta     90.0019
_cell_angle_gamma    120.006

_space_group_name_H-M_alt    "P 1"
_space_group_IT_number       1

loop_
  _space_group_symop_operation_xyz
  'x, y, z'

loop_
  _atom_site_type_symbol
  _atom_site_label
  _atom_site_symmetry_multiplicity
  _atom_site_fract_x
  _atom_site_fract_y
  _atom_site_fract_z
  _atom_site_occupancy
  Cu  Cu1       1.0  0.33400  0.66700  0.25000  1.0000
  Cu  Cu2       1.0  0.66700  0.33300  0.75000  1.0000
  Cu  Cu3       1.0  0.33300  0.66600  0.04270  1.0000
  Cu  Cu4       1.0  0.66700  0.33400  0.54300  1.0000
  Cu  Cu5       1.0  0.66700  0.33400  0.95700  1.0000
  Cu  Cu6       1.0  0.33300  0.66600  0.45700  1.0000
  Cu  Cu7       1.0  0.16500  0.33100  0.14700  1.0000
  Cu  Cu8       1.0  0.83500  0.66900  0.64700  1.0000
  Cu  Cu9       1.0  0.66800  0.83400  0.14700  1.0000
  Cu  Cu10      1.0  0.16500  0.83400  0.14700  1.0000
  Cu  Cu11      1.0  0.83500  0.16600  0.64700  1.0000
  Cu  Cu12      1.0  0.33200  0.16600  0.64700  1.0000
  Cu  Cu13      1.0  0.83500  0.66900  0.85300  1.0000
  Cu  Cu14      1.0  0.83500  0.16600  0.85300  1.0000
  Cu  Cu15      1.0  0.33200  0.16600  0.85300  1.0000
  Cu  Cu16      1.0  0.66800  0.83400  0.35300  1.0000
  Cu  Cu17      1.0  0.16500  0.83400  0.35300  1.0000
  Cu  Cu18      1.0  0.16500  0.33100  0.35300  1.0000
  Cu  Cu19      1.0  0.00019  1.00000  0.25000  1.0000
  Cu  Cu20      1.0  0.00000  0.00011  0.75000  1.0000
  Sn  Sn1       1.0  0.66600  0.33200  0.08610  1.0000
  Sn  Sn2       1.0  0.33500  0.66700  0.58600  1.0000
  Sn  Sn3       1.0  0.33400  0.66800  0.91400  1.0000
  Sn  Sn4       1.0  0.66500  0.33300  0.41400  1.0000
  U   U1        1.0  0.66700  0.33300  0.25000  1.0000
  U   U2        1.0  0.33300  0.66700  0.75000  1.0000
  U   U3        1.0  0.00007  0.00000  0.00001  1.0000
  U   U4        1.0  0.00000  0.00006  0.50000  1.0000
