data_image0
_chemical_formula_structural       Ni6PbY12
_chemical_formula_sum              "Ni6 Pb1 Y12"
_cell_length_a       8.43626
_cell_length_b       8.43626
_cell_length_c       8.43626
_cell_angle_alpha    109.471
_cell_angle_beta     109.471
_cell_angle_gamma    109.471

_space_group_name_H-M_alt    "P 1"
_space_group_IT_number       1

loop_
  _space_group_symop_operation_xyz
  'x, y, z'

loop_
  _atom_site_type_symbol
  _atom_site_label
  _atom_site_symmetry_multiplicity
  _atom_site_fract_x
  _atom_site_fract_y
  _atom_site_fract_z
  _atom_site_occupancy
  Ni  Ni1       1.0  0.62200  0.50000  0.12200  1.0000
  Ni  Ni2       1.0  0.50000  0.87800  0.37800  1.0000
  Ni  Ni3       1.0  0.87800  0.37800  0.50000  1.0000
  Ni  Ni4       1.0  0.12200  0.62200  0.50000  1.0000
  Ni  Ni5       1.0  0.50000  0.12200  0.62200  1.0000
  Ni  Ni6       1.0  0.37800  0.50000  0.87800  1.0000
  Pb  Pb1       1.0  0.00000  0.00000  0.00000  1.0000
  Y   Y1        1.0  0.81000  0.30300  0.11300  1.0000
  Y   Y2        1.0  0.30300  0.49300  0.19000  1.0000
  Y   Y3        1.0  0.69700  0.88700  0.19000  1.0000
  Y   Y4        1.0  0.49300  0.19000  0.30300  1.0000
  Y   Y5        1.0  0.11300  0.81000  0.30300  1.0000
  Y   Y6        1.0  0.19000  0.30300  0.49300  1.0000
  Y   Y7        1.0  0.81000  0.69700  0.50700  1.0000
  Y   Y8        1.0  0.88700  0.19000  0.69700  1.0000
  Y   Y9        1.0  0.50700  0.81000  0.69700  1.0000
  Y   Y10       1.0  0.30300  0.11300  0.81000  1.0000
  Y   Y11       1.0  0.69700  0.50700  0.81000  1.0000
  Y   Y12       1.0  0.19000  0.69700  0.88700  1.0000
