data_image0
_chemical_formula_structural       CaMg2Ni9
_chemical_formula_sum              "Ca1 Mg2 Ni9"
_cell_length_a       4.85012
_cell_length_b       4.85012
_cell_length_c       8.32812
_cell_angle_alpha    106.929
_cell_angle_beta     90
_cell_angle_gamma    120

_space_group_name_H-M_alt    "P 1"
_space_group_IT_number       1

loop_
  _space_group_symop_operation_xyz
  'x, y, z'

loop_
  _atom_site_type_symbol
  _atom_site_label
  _atom_site_symmetry_multiplicity
  _atom_site_fract_x
  _atom_site_fract_y
  _atom_site_fract_z
  _atom_site_occupancy
  Ca  Ca1       1.0  0.00000  0.00000  0.00000  1.0000
  Mg  Mg1       1.0  0.14300  0.28600  0.42900  1.0000
  Mg  Mg2       1.0  0.85700  0.71400  0.57100  1.0000
  Ni  Ni1       1.0  0.66600  0.33300  0.99900  1.0000
  Ni  Ni2       1.0  0.33400  0.66700  0.00069  1.0000
  Ni  Ni3       1.0  0.08180  0.66800  0.25400  1.0000
  Ni  Ni4       1.0  0.58600  0.66800  0.25400  1.0000
  Ni  Ni5       1.0  0.58600  0.17300  0.25400  1.0000
  Ni  Ni6       1.0  0.50000  0.00000  0.50000  1.0000
  Ni  Ni7       1.0  0.41400  0.82700  0.74600  1.0000
  Ni  Ni8       1.0  0.41400  0.33200  0.74600  1.0000
  Ni  Ni9       1.0  0.91800  0.33200  0.74600  1.0000
