data_image0
_chemical_formula_structural       GeRh3Sm2
_chemical_formula_sum              "Ge1 Rh3 Sm2"
_cell_length_a       5.17141
_cell_length_b       5.17141
_cell_length_c       5.17141
_cell_angle_alpha    66.3207
_cell_angle_beta     113.679
_cell_angle_gamma    113.679

_space_group_name_H-M_alt    "P 1"
_space_group_IT_number       1

loop_
  _space_group_symop_operation_xyz
  'x, y, z'

loop_
  _atom_site_type_symbol
  _atom_site_label
  _atom_site_symmetry_multiplicity
  _atom_site_fract_x
  _atom_site_fract_y
  _atom_site_fract_z
  _atom_site_occupancy
  Ge  Ge1       1.0  0.50000  0.50000  0.50000  1.0000
  Rh  Rh1       1.0  0.50000  0.50000  0.00000  1.0000
  Rh  Rh2       1.0  0.00000  0.50000  0.50000  1.0000
  Rh  Rh3       1.0  0.50000  1.00000  0.50000  1.0000
  Sm  Sm1       1.0  0.87200  0.12800  0.12800  1.0000
  Sm  Sm2       1.0  0.12800  0.87200  0.87200  1.0000
