data_image0
_chemical_formula_structural       H16Li2O20P2U2
_chemical_formula_sum              "H16 Li2 O20 P2 U2"
_cell_length_a       6.64838
_cell_length_b       6.64838
_cell_length_c       8.51116
_cell_angle_alpha    90
_cell_angle_beta     90
_cell_angle_gamma    90

_space_group_name_H-M_alt    "P 1"
_space_group_IT_number       1

loop_
  _space_group_symop_operation_xyz
  'x, y, z'

loop_
  _atom_site_type_symbol
  _atom_site_label
  _atom_site_symmetry_multiplicity
  _atom_site_fract_x
  _atom_site_fract_y
  _atom_site_fract_z
  _atom_site_occupancy
  H   H1        1.0  0.06050  0.66400  0.27300  1.0000
  H   H2        1.0  0.44000  0.83600  0.27300  1.0000
  H   H3        1.0  0.66400  0.44000  0.27300  1.0000
  H   H4        1.0  0.83600  0.06050  0.27300  1.0000
  H   H5        1.0  0.94000  0.33600  0.72700  1.0000
  H   H6        1.0  0.56000  0.16400  0.72700  1.0000
  H   H7        1.0  0.33600  0.56000  0.72700  1.0000
  H   H8        1.0  0.16400  0.94000  0.72700  1.0000
  H   H9        1.0  0.89700  0.59800  0.39600  1.0000
  H   H10       1.0  0.60300  0.90200  0.39600  1.0000
  H   H11       1.0  0.59800  0.60300  0.39600  1.0000
  H   H12       1.0  0.90200  0.89700  0.39600  1.0000
  H   H13       1.0  0.10300  0.40200  0.60400  1.0000
  H   H14       1.0  0.39700  0.09790  0.60400  1.0000
  H   H15       1.0  0.40200  0.39700  0.60400  1.0000
  H   H16       1.0  0.09790  0.10300  0.60400  1.0000
  Li  Li1       1.0  0.75000  0.25000  0.50000  1.0000
  Li  Li2       1.0  0.25000  0.75000  0.50000  1.0000
  O   O1        1.0  0.75000  0.75000  0.68000  1.0000
  O   O2        1.0  0.25000  0.25000  0.32000  1.0000
  O   O3        1.0  0.75000  0.75000  0.09860  1.0000
  O   O4        1.0  0.25000  0.25000  0.90100  1.0000
  O   O5        1.0  0.66300  0.08550  0.89300  1.0000
  O   O6        1.0  0.83700  0.41400  0.89300  1.0000
  O   O7        1.0  0.08550  0.83700  0.89300  1.0000
  O   O8        1.0  0.41400  0.66300  0.89300  1.0000
  O   O9        1.0  0.33700  0.91400  0.10700  1.0000
  O   O10       1.0  0.16300  0.58600  0.10700  1.0000
  O   O11       1.0  0.91400  0.16300  0.10700  1.0000
  O   O12       1.0  0.58600  0.33700  0.10700  1.0000
  O   O13       1.0  0.01820  0.68900  0.38300  1.0000
  O   O14       1.0  0.48200  0.81100  0.38300  1.0000
  O   O15       1.0  0.68900  0.48200  0.38300  1.0000
  O   O16       1.0  0.81100  0.01820  0.38300  1.0000
  O   O17       1.0  0.98200  0.31100  0.61700  1.0000
  O   O18       1.0  0.51800  0.18900  0.61700  1.0000
  O   O19       1.0  0.31100  0.51800  0.61700  1.0000
  O   O20       1.0  0.18900  0.98200  0.61700  1.0000
  P   P1        1.0  0.75000  0.25000  0.00000  1.0000
  P   P2        1.0  0.25000  0.75000  0.00000  1.0000
  U   U1        1.0  0.75000  0.75000  0.89000  1.0000
  U   U2        1.0  0.25000  0.25000  0.11000  1.0000
