data_image0
_chemical_formula_structural       Ag4Hg4I4S4
_chemical_formula_sum              "Ag4 Hg4 I4 S4"
_cell_length_a       10.4282
_cell_length_b       4.64583
_cell_length_c       10.1611
_cell_angle_alpha    90
_cell_angle_beta     90
_cell_angle_gamma    90

_space_group_name_H-M_alt    "P 1"
_space_group_IT_number       1

loop_
  _space_group_symop_operation_xyz
  'x, y, z'

loop_
  _atom_site_type_symbol
  _atom_site_label
  _atom_site_symmetry_multiplicity
  _atom_site_fract_x
  _atom_site_fract_y
  _atom_site_fract_z
  _atom_site_occupancy
  Ag  Ag1       1.0  0.07410  0.00000  0.20900  1.0000
  Ag  Ag2       1.0  0.42600  0.00000  0.20900  1.0000
  Ag  Ag3       1.0  0.57400  0.00000  0.79100  1.0000
  Ag  Ag4       1.0  0.92600  0.00000  0.79100  1.0000
  Hg  Hg1       1.0  0.75000  0.50000  0.23600  1.0000
  Hg  Hg2       1.0  0.00000  0.50000  0.50000  1.0000
  Hg  Hg3       1.0  0.50000  0.50000  0.50000  1.0000
  Hg  Hg4       1.0  0.25000  0.50000  0.76400  1.0000
  I   I1        1.0  0.75000  0.00000  0.00443  1.0000
  I   I2        1.0  0.25000  0.00000  0.45800  1.0000
  I   I3        1.0  0.75000  0.00000  0.54200  1.0000
  I   I4        1.0  0.25000  0.00000  0.99600  1.0000
  S   S1        1.0  0.51800  0.50000  0.26200  1.0000
  S   S2        1.0  0.98200  0.50000  0.26200  1.0000
  S   S3        1.0  0.01810  0.50000  0.73800  1.0000
  S   S4        1.0  0.48200  0.50000  0.73800  1.0000
