data_image0
_chemical_formula_structural       Au8Ca6
_chemical_formula_sum              "Au8 Ca6"
_cell_length_a       5.95725
_cell_length_b       8.18281
_cell_length_c       8.18281
_cell_angle_alpha    114.309
_cell_angle_beta     104.044
_cell_angle_gamma    104.044

_space_group_name_H-M_alt    "P 1"
_space_group_IT_number       1

loop_
  _space_group_symop_operation_xyz
  'x, y, z'

loop_
  _atom_site_type_symbol
  _atom_site_label
  _atom_site_symmetry_multiplicity
  _atom_site_fract_x
  _atom_site_fract_y
  _atom_site_fract_z
  _atom_site_occupancy
  Au  Au1       1.0  0.00000  0.00000  0.00000  1.0000
  Au  Au2       1.0  0.50000  0.00000  0.00000  1.0000
  Au  Au3       1.0  0.22400  0.66800  0.16500  1.0000
  Au  Au4       1.0  0.55600  0.49800  0.33200  1.0000
  Au  Au5       1.0  0.94200  0.16500  0.49800  1.0000
  Au  Au6       1.0  0.05830  0.83500  0.50200  1.0000
  Au  Au7       1.0  0.44400  0.50200  0.66800  1.0000
  Au  Au8       1.0  0.77600  0.33200  0.83500  1.0000
  Ca  Ca1       1.0  0.71900  0.74500  0.11900  1.0000
  Ca  Ca2       1.0  0.97400  0.37400  0.25500  1.0000
  Ca  Ca3       1.0  0.40000  0.11900  0.37400  1.0000
  Ca  Ca4       1.0  0.60000  0.88100  0.62600  1.0000
  Ca  Ca5       1.0  0.02590  0.62600  0.74500  1.0000
  Ca  Ca6       1.0  0.28100  0.25500  0.88100  1.0000
