data_image0
_chemical_formula_structural       Ba6Co2O18Ru4
_chemical_formula_sum              "Ba6 Co2 O18 Ru4"
_cell_length_a       5.7099
_cell_length_b       5.70579
_cell_length_c       13.8954
_cell_angle_alpha    89.8214
_cell_angle_beta     90.0027
_cell_angle_gamma    120.019

_space_group_name_H-M_alt    "P 1"
_space_group_IT_number       1

loop_
  _space_group_symop_operation_xyz
  'x, y, z'

loop_
  _atom_site_type_symbol
  _atom_site_label
  _atom_site_symmetry_multiplicity
  _atom_site_fract_x
  _atom_site_fract_y
  _atom_site_fract_z
  _atom_site_occupancy
  Ba  Ba1       1.0  0.33400  0.66900  0.08770  1.0000
  Ba  Ba2       1.0  0.66700  0.33300  0.58800  1.0000
  Ba  Ba3       1.0  0.66600  0.33100  0.91200  1.0000
  Ba  Ba4       1.0  0.33300  0.66700  0.41200  1.0000
  Ba  Ba5       1.0  0.00074  0.00116  0.25000  1.0000
  Ba  Ba6       1.0  0.99900  0.99900  0.75000  1.0000
  Co  Co1       1.0  0.00000  0.00000  0.00000  1.0000
  Co  Co2       1.0  0.00002  0.00004  0.50000  1.0000
  O   O1        1.0  0.83100  0.66200  0.08310  1.0000
  O   O2        1.0  0.17000  0.34000  0.58400  1.0000
  O   O3        1.0  0.34100  0.17100  0.08410  1.0000
  O   O4        1.0  0.83000  0.17100  0.08400  1.0000
  O   O5        1.0  0.17000  0.83000  0.58400  1.0000
  O   O6        1.0  0.66000  0.83000  0.58400  1.0000
  O   O7        1.0  0.16900  0.33800  0.91700  1.0000
  O   O8        1.0  0.17000  0.82900  0.91600  1.0000
  O   O9        1.0  0.65900  0.82900  0.91600  1.0000
  O   O10       1.0  0.34000  0.17000  0.41600  1.0000
  O   O11       1.0  0.83000  0.17000  0.41600  1.0000
  O   O12       1.0  0.83000  0.66000  0.41600  1.0000
  O   O13       1.0  0.50500  0.00947  0.25000  1.0000
  O   O14       1.0  0.49500  0.99100  0.75000  1.0000
  O   O15       1.0  0.99200  0.49700  0.25000  1.0000
  O   O16       1.0  0.50500  0.49700  0.25000  1.0000
  O   O17       1.0  0.49500  0.50300  0.75000  1.0000
  O   O18       1.0  0.00825  0.50300  0.75000  1.0000
  Ru  Ru1       1.0  0.33300  0.66500  0.83900  1.0000
  Ru  Ru2       1.0  0.66700  0.33400  0.33900  1.0000
  Ru  Ru3       1.0  0.66700  0.33500  0.16100  1.0000
  Ru  Ru4       1.0  0.33300  0.66600  0.66100  1.0000
