data_image0
_chemical_formula_structural       Ni4Np4Sn4
_chemical_formula_sum              "Ni4 Np4 Sn4"
_cell_length_a       7.69042
_cell_length_b       4.22301
_cell_length_c       7.2576
_cell_angle_alpha    90
_cell_angle_beta     89.9977
_cell_angle_gamma    90

_space_group_name_H-M_alt    "P 1"
_space_group_IT_number       1

loop_
  _space_group_symop_operation_xyz
  'x, y, z'

loop_
  _atom_site_type_symbol
  _atom_site_label
  _atom_site_symmetry_multiplicity
  _atom_site_fract_x
  _atom_site_fract_y
  _atom_site_fract_z
  _atom_site_occupancy
  Ni  Ni1       1.0  0.18100  0.25000  0.12400  1.0000
  Ni  Ni2       1.0  0.68100  0.25000  0.37600  1.0000
  Ni  Ni3       1.0  0.31900  0.75000  0.62400  1.0000
  Ni  Ni4       1.0  0.81900  0.75000  0.87600  1.0000
  Np  Np1       1.0  0.52200  0.75000  0.13800  1.0000
  Np  Np2       1.0  0.02160  0.75000  0.36200  1.0000
  Np  Np3       1.0  0.97800  0.25000  0.63800  1.0000
  Np  Np4       1.0  0.47800  0.25000  0.86200  1.0000
  Sn  Sn1       1.0  0.84400  0.25000  0.07520  1.0000
  Sn  Sn2       1.0  0.34400  0.25000  0.42500  1.0000
  Sn  Sn3       1.0  0.65600  0.75000  0.57500  1.0000
  Sn  Sn4       1.0  0.15600  0.75000  0.92500  1.0000
