data_image0
_chemical_formula_structural       Ce6In14Pt11
_chemical_formula_sum              "Ce6 In14 Pt11"
_cell_length_a       11.5761
_cell_length_b       11.5761
_cell_length_c       14.9932
_cell_angle_alpha    61.8662
_cell_angle_beta     118.134
_cell_angle_gamma    157.895

_space_group_name_H-M_alt    "P 1"
_space_group_IT_number       1

loop_
  _space_group_symop_operation_xyz
  'x, y, z'

loop_
  _atom_site_type_symbol
  _atom_site_label
  _atom_site_symmetry_multiplicity
  _atom_site_fract_x
  _atom_site_fract_y
  _atom_site_fract_z
  _atom_site_occupancy
  Ce  Ce1       1.0  0.36800  0.63200  0.18400  1.0000
  Ce  Ce2       1.0  0.63200  0.36800  0.81600  1.0000
  Ce  Ce3       1.0  0.12100  0.87900  0.36000  1.0000
  Ce  Ce4       1.0  0.87900  0.12100  0.64000  1.0000
  Ce  Ce5       1.0  0.85900  0.14100  0.36300  1.0000
  Ce  Ce6       1.0  0.14100  0.85900  0.63700  1.0000
  In  In1       1.0  0.51500  0.48500  0.20300  1.0000
  In  In2       1.0  0.48500  0.51500  0.79700  1.0000
  In  In3       1.0  0.20200  0.79800  0.00448  1.0000
  In  In4       1.0  0.79800  0.20200  0.99600  1.0000
  In  In5       1.0  0.22900  0.77100  0.24200  1.0000
  In  In6       1.0  0.77100  0.22900  0.75800  1.0000
  In  In7       1.0  0.73800  0.26200  0.41800  1.0000
  In  In8       1.0  0.26200  0.73800  0.58200  1.0000
  In  In9       1.0  0.61300  0.38700  0.02180  1.0000
  In  In10      1.0  0.38700  0.61300  0.97800  1.0000
  In  In11      1.0  0.53700  0.46300  0.43200  1.0000
  In  In12      1.0  0.46300  0.53700  0.56800  1.0000
  In  In13      1.0  0.06400  0.93600  0.10100  1.0000
  In  In14      1.0  0.93600  0.06400  0.89900  1.0000
  Pt  Pt1       1.0  0.97400  0.02590  0.30100  1.0000
  Pt  Pt2       1.0  0.02590  0.97400  0.69900  1.0000
  Pt  Pt3       1.0  0.94000  0.06040  0.09720  1.0000
  Pt  Pt4       1.0  0.06040  0.94000  0.90300  1.0000
  Pt  Pt5       1.0  0.64100  0.35900  0.21900  1.0000
  Pt  Pt6       1.0  0.35900  0.64100  0.78100  1.0000
  Pt  Pt7       1.0  0.75300  0.24700  0.13800  1.0000
  Pt  Pt8       1.0  0.24700  0.75300  0.86200  1.0000
  Pt  Pt9       1.0  0.32200  0.67800  0.45800  1.0000
  Pt  Pt10      1.0  0.67800  0.32200  0.54200  1.0000
  Pt  Pt11      1.0  0.00000  1.00000  0.50000  1.0000
