data_image0
_chemical_formula_structural       As2Cs2F8
_chemical_formula_sum              "As2 Cs2 F8"
_cell_length_a       6.32594
_cell_length_b       4.56683
_cell_length_c       8.063
_cell_angle_alpha    90
_cell_angle_beta     110.734
_cell_angle_gamma    90

_space_group_name_H-M_alt    "P 1"
_space_group_IT_number       1

loop_
  _space_group_symop_operation_xyz
  'x, y, z'

loop_
  _atom_site_type_symbol
  _atom_site_label
  _atom_site_symmetry_multiplicity
  _atom_site_fract_x
  _atom_site_fract_y
  _atom_site_fract_z
  _atom_site_occupancy
  As  As1       1.0  0.45500  0.81600  0.31300  1.0000
  As  As2       1.0  0.54500  0.31600  0.68700  1.0000
  Cs  Cs1       1.0  0.89500  0.30700  0.21700  1.0000
  Cs  Cs2       1.0  0.10500  0.80700  0.78300  1.0000
  F   F1        1.0  0.51500  0.87200  0.11400  1.0000
  F   F2        1.0  0.14200  0.80500  0.16000  1.0000
  F   F3        1.0  0.44800  0.41700  0.29200  1.0000
  F   F4        1.0  0.78000  0.78500  0.42400  1.0000
  F   F5        1.0  0.22000  0.28500  0.57600  1.0000
  F   F6        1.0  0.55200  0.91700  0.70800  1.0000
  F   F7        1.0  0.85800  0.30500  0.84000  1.0000
  F   F8        1.0  0.48500  0.37200  0.88600  1.0000
