data_image0
_chemical_formula_structural       Er4In2Pd4
_chemical_formula_sum              "Er4 In2 Pd4"
_cell_length_a       7.69995
_cell_length_b       7.69995
_cell_length_c       3.63403
_cell_angle_alpha    90
_cell_angle_beta     90
_cell_angle_gamma    90

_space_group_name_H-M_alt    "P 1"
_space_group_IT_number       1

loop_
  _space_group_symop_operation_xyz
  'x, y, z'

loop_
  _atom_site_type_symbol
  _atom_site_label
  _atom_site_symmetry_multiplicity
  _atom_site_fract_x
  _atom_site_fract_y
  _atom_site_fract_z
  _atom_site_occupancy
  Er  Er1       1.0  0.32700  0.17300  0.50000  1.0000
  Er  Er2       1.0  0.82700  0.32700  0.50000  1.0000
  Er  Er3       1.0  0.17300  0.67300  0.50000  1.0000
  Er  Er4       1.0  0.67300  0.82700  0.50000  1.0000
  In  In1       1.0  0.00000  0.00000  0.00000  1.0000
  In  In2       1.0  0.50000  0.50000  0.00000  1.0000
  Pd  Pd1       1.0  0.62800  0.12800  0.00000  1.0000
  Pd  Pd2       1.0  0.12800  0.37200  0.00000  1.0000
  Pd  Pd3       1.0  0.87200  0.62800  0.00000  1.0000
  Pd  Pd4       1.0  0.37200  0.87200  0.00000  1.0000
