data_image0
_chemical_formula_structural       H14La2Ni10
_chemical_formula_sum              "H14 La2 Ni10"
_cell_length_a       5.27273
_cell_length_b       5.27273
_cell_length_c       8.5311
_cell_angle_alpha    89.9989
_cell_angle_beta     90.0011
_cell_angle_gamma    120.008

_space_group_name_H-M_alt    "P 1"
_space_group_IT_number       1

loop_
  _space_group_symop_operation_xyz
  'x, y, z'

loop_
  _atom_site_type_symbol
  _atom_site_label
  _atom_site_symmetry_multiplicity
  _atom_site_fract_x
  _atom_site_fract_y
  _atom_site_fract_z
  _atom_site_occupancy
  H   H1        1.0  0.14300  0.85700  0.27300  1.0000
  H   H2        1.0  0.85700  0.14300  0.77300  1.0000
  H   H3        1.0  0.14300  0.28500  0.27300  1.0000
  H   H4        1.0  0.71500  0.85700  0.27300  1.0000
  H   H5        1.0  0.28500  0.14300  0.77300  1.0000
  H   H6        1.0  0.85700  0.71500  0.77300  1.0000
  H   H7        1.0  0.50400  0.49600  0.06400  1.0000
  H   H8        1.0  0.49600  0.50400  0.56400  1.0000
  H   H9        1.0  0.50400  0.00884  0.06400  1.0000
  H   H10       1.0  0.99100  0.49600  0.06400  1.0000
  H   H11       1.0  0.00885  0.50400  0.56400  1.0000
  H   H12       1.0  0.49600  0.99100  0.56400  1.0000
  H   H13       1.0  0.33300  0.66700  0.81700  1.0000
  H   H14       1.0  0.66700  0.33300  0.31700  1.0000
  La  La1       1.0  0.00002  0.00000  0.02130  1.0000
  La  La2       1.0  0.00000  0.00002  0.52100  1.0000
  Ni  Ni1       1.0  0.33300  0.66700  0.49000  1.0000
  Ni  Ni2       1.0  0.66700  0.33300  0.99000  1.0000
  Ni  Ni3       1.0  0.49700  0.50300  0.25700  1.0000
  Ni  Ni4       1.0  0.50300  0.49700  0.75700  1.0000
  Ni  Ni5       1.0  0.49700  0.99400  0.25700  1.0000
  Ni  Ni6       1.0  0.00568  0.50300  0.25700  1.0000
  Ni  Ni7       1.0  0.99400  0.49700  0.75700  1.0000
  Ni  Ni8       1.0  0.50300  0.00567  0.75700  1.0000
  Ni  Ni9       1.0  0.33300  0.66700  0.00583  1.0000
  Ni  Ni10      1.0  0.66700  0.33300  0.50600  1.0000
