data_image0
_chemical_formula_structural       Ba2S6V2
_chemical_formula_sum              "Ba2 S6 V2"
_cell_length_a       6.72532
_cell_length_b       6.72532
_cell_length_c       5.69079
_cell_angle_alpha    90
_cell_angle_beta     90
_cell_angle_gamma    120

_space_group_name_H-M_alt    "P 1"
_space_group_IT_number       1

loop_
  _space_group_symop_operation_xyz
  'x, y, z'

loop_
  _atom_site_type_symbol
  _atom_site_label
  _atom_site_symmetry_multiplicity
  _atom_site_fract_x
  _atom_site_fract_y
  _atom_site_fract_z
  _atom_site_occupancy
  Ba  Ba1       1.0  0.66700  0.33300  0.25000  1.0000
  Ba  Ba2       1.0  0.33300  0.66700  0.75000  1.0000
  S   S1        1.0  0.16300  0.32600  0.25000  1.0000
  S   S2        1.0  0.16300  0.83700  0.25000  1.0000
  S   S3        1.0  0.67400  0.83700  0.25000  1.0000
  S   S4        1.0  0.32600  0.16300  0.75000  1.0000
  S   S5        1.0  0.83700  0.16300  0.75000  1.0000
  S   S6        1.0  0.83700  0.67400  0.75000  1.0000
  V   V1        1.0  0.00000  0.00000  0.00000  1.0000
  V   V2        1.0  0.00000  0.00000  0.50000  1.0000
