data_image0
_chemical_formula_structural       Pt2Sn8
_chemical_formula_sum              "Pt2 Sn8"
_cell_length_a       6.45919
_cell_length_b       6.4929
_cell_length_c       6.60057
_cell_angle_alpha    60.5382
_cell_angle_beta     90
_cell_angle_gamma    90

_space_group_name_H-M_alt    "P 1"
_space_group_IT_number       1

loop_
  _space_group_symop_operation_xyz
  'x, y, z'

loop_
  _atom_site_type_symbol
  _atom_site_label
  _atom_site_symmetry_multiplicity
  _atom_site_fract_x
  _atom_site_fract_y
  _atom_site_fract_z
  _atom_site_occupancy
  Pt  Pt1       1.0  0.25000  0.25000  0.50000  1.0000
  Pt  Pt2       1.0  0.75000  0.75000  0.50000  1.0000
  Sn  Sn1       1.0  0.08410  0.04260  0.24600  1.0000
  Sn  Sn2       1.0  0.58400  0.21100  0.24600  1.0000
  Sn  Sn3       1.0  0.91600  0.54300  0.24600  1.0000
  Sn  Sn4       1.0  0.41600  0.71100  0.24600  1.0000
  Sn  Sn5       1.0  0.58400  0.28900  0.75400  1.0000
  Sn  Sn6       1.0  0.08410  0.45700  0.75400  1.0000
  Sn  Sn7       1.0  0.41600  0.78900  0.75400  1.0000
  Sn  Sn8       1.0  0.91600  0.95700  0.75400  1.0000
