data_image0
_chemical_formula_structural       H12N2O8P2
_chemical_formula_sum              "H12 N2 O8 P2"
_cell_length_a       6.32867
_cell_length_b       6.32867
_cell_length_c       6.32867
_cell_angle_alpha    109.506
_cell_angle_beta     109.402
_cell_angle_gamma    109.506

_space_group_name_H-M_alt    "P 1"
_space_group_IT_number       1

loop_
  _space_group_symop_operation_xyz
  'x, y, z'

loop_
  _atom_site_type_symbol
  _atom_site_label
  _atom_site_symmetry_multiplicity
  _atom_site_fract_x
  _atom_site_fract_y
  _atom_site_fract_z
  _atom_site_occupancy
  H   H1        1.0  0.12500  0.40100  0.02580  1.0000
  H   H2        1.0  0.55400  0.36500  0.15200  1.0000
  H   H3        1.0  0.78700  0.63500  0.18800  1.0000
  H   H4        1.0  0.84800  0.40200  0.21300  1.0000
  H   H5        1.0  0.40200  0.86500  0.30400  1.0000
  H   H6        1.0  0.97400  0.09920  0.37500  1.0000
  H   H7        1.0  0.81200  0.59800  0.44600  1.0000
  H   H8        1.0  0.43800  0.13500  0.53700  1.0000
  H   H9        1.0  0.69600  0.09820  0.56200  1.0000
  H   H10       1.0  0.46300  0.90200  0.59800  1.0000
  H   H11       1.0  0.62500  0.59900  0.72400  1.0000
  H   H12       1.0  0.27600  0.90100  0.87500  1.0000
  N   N1        1.0  0.75000  0.50000  0.25000  1.0000
  N   N2        1.0  0.50000  0.00000  0.50000  1.0000
  O   O1        1.0  0.28200  0.56800  0.02170  1.0000
  O   O2        1.0  0.27200  0.06780  0.03180  1.0000
  O   O3        1.0  0.96800  0.24000  0.03600  1.0000
  O   O4        1.0  0.96400  0.93200  0.20400  1.0000
  O   O5        1.0  0.97800  0.26000  0.54600  1.0000
  O   O6        1.0  0.45400  0.43200  0.71400  1.0000
  O   O7        1.0  0.28600  0.74000  0.71800  1.0000
  O   O8        1.0  0.79600  0.76000  0.72800  1.0000
  P   P1        1.0  0.00000  0.00000  0.00000  1.0000
  P   P2        1.0  0.25000  0.50000  0.75000  1.0000
