data_image0
_chemical_formula_structural       AlMg4Si6
_chemical_formula_sum              "Al1 Mg4 Si6"
_cell_length_a       3.63072
_cell_length_b       6.76755
_cell_length_c       8.38068
_cell_angle_alpha    92.3561
_cell_angle_beta     102.51
_cell_angle_gamma    90

_space_group_name_H-M_alt    "P 1"
_space_group_IT_number       1

loop_
  _space_group_symop_operation_xyz
  'x, y, z'

loop_
  _atom_site_type_symbol
  _atom_site_label
  _atom_site_symmetry_multiplicity
  _atom_site_fract_x
  _atom_site_fract_y
  _atom_site_fract_z
  _atom_site_occupancy
  Al  Al1       1.0  0.50000  0.00000  0.00000  1.0000
  Mg  Mg1       1.0  0.58000  0.40400  0.16100  1.0000
  Mg  Mg2       1.0  0.66800  0.99000  0.33600  1.0000
  Mg  Mg3       1.0  0.33200  0.01040  0.66400  1.0000
  Mg  Mg4       1.0  0.42000  0.59600  0.83900  1.0000
  Si  Si1       1.0  0.05100  0.75300  0.10200  1.0000
  Si  Si2       1.0  0.19100  0.65400  0.38100  1.0000
  Si  Si3       1.0  0.21200  0.28700  0.42300  1.0000
  Si  Si4       1.0  0.78800  0.71300  0.57700  1.0000
  Si  Si5       1.0  0.80900  0.34600  0.61900  1.0000
  Si  Si6       1.0  0.94900  0.24700  0.89800  1.0000
