data_image0
_chemical_formula_structural       Dy4Ga4Pd4
_chemical_formula_sum              "Dy4 Ga4 Pd4"
_cell_length_a       6.93737
_cell_length_b       4.46378
_cell_length_c       7.66319
_cell_angle_alpha    90
_cell_angle_beta     90
_cell_angle_gamma    90

_space_group_name_H-M_alt    "P 1"
_space_group_IT_number       1

loop_
  _space_group_symop_operation_xyz
  'x, y, z'

loop_
  _atom_site_type_symbol
  _atom_site_label
  _atom_site_symmetry_multiplicity
  _atom_site_fract_x
  _atom_site_fract_y
  _atom_site_fract_z
  _atom_site_occupancy
  Dy  Dy1       1.0  0.51800  0.75000  0.19700  1.0000
  Dy  Dy2       1.0  0.01830  0.75000  0.30300  1.0000
  Dy  Dy3       1.0  0.98200  0.25000  0.69700  1.0000
  Dy  Dy4       1.0  0.48200  0.25000  0.80300  1.0000
  Ga  Ga1       1.0  0.82500  0.25000  0.07540  1.0000
  Ga  Ga2       1.0  0.32500  0.25000  0.42500  1.0000
  Ga  Ga3       1.0  0.67500  0.75000  0.57500  1.0000
  Ga  Ga4       1.0  0.17500  0.75000  0.92500  1.0000
  Pd  Pd1       1.0  0.21900  0.25000  0.09770  1.0000
  Pd  Pd2       1.0  0.71900  0.25000  0.40200  1.0000
  Pd  Pd3       1.0  0.28100  0.75000  0.59800  1.0000
  Pd  Pd4       1.0  0.78100  0.75000  0.90200  1.0000
