data_image0
_chemical_formula_structural       Ba2La2MnO12W2
_chemical_formula_sum              "Ba2 La2 Mn1 O12 W2"
_cell_length_a       5.71397
_cell_length_b       5.71397
_cell_length_c       9.67461
_cell_angle_alpha    72.824
_cell_angle_beta     107.176
_cell_angle_gamma    120

_space_group_name_H-M_alt    "P 1"
_space_group_IT_number       1

loop_
  _space_group_symop_operation_xyz
  'x, y, z'

loop_
  _atom_site_type_symbol
  _atom_site_label
  _atom_site_symmetry_multiplicity
  _atom_site_fract_x
  _atom_site_fract_y
  _atom_site_fract_z
  _atom_site_occupancy
  Ba  Ba1       1.0  0.13300  0.86700  0.39900  1.0000
  Ba  Ba2       1.0  0.86700  0.13300  0.60100  1.0000
  La  La1       1.0  0.70500  0.29500  0.11600  1.0000
  La  La2       1.0  0.29500  0.70500  0.88400  1.0000
  Mn  Mn1       1.0  0.00000  0.00000  0.00000  1.0000
  O   O1        1.0  0.67600  0.78000  0.11600  1.0000
  O   O2        1.0  0.22000  0.32400  0.11600  1.0000
  O   O3        1.0  0.22000  0.78000  0.11600  1.0000
  O   O4        1.0  0.61900  0.38100  0.35600  1.0000
  O   O5        1.0  0.61900  0.88300  0.35600  1.0000
  O   O6        1.0  0.11700  0.38100  0.35600  1.0000
  O   O7        1.0  0.88300  0.61900  0.64400  1.0000
  O   O8        1.0  0.38100  0.11700  0.64400  1.0000
  O   O9        1.0  0.38100  0.61900  0.64400  1.0000
  O   O10       1.0  0.78000  0.22000  0.88400  1.0000
  O   O11       1.0  0.78000  0.67600  0.88400  1.0000
  O   O12       1.0  0.32400  0.22000  0.88400  1.0000
  W   W1        1.0  0.42100  0.57900  0.26300  1.0000
  W   W2        1.0  0.57900  0.42100  0.73700  1.0000
