data_image0
_chemical_formula_structural       Mn8Nd4
_chemical_formula_sum              "Mn8 Nd4"
_cell_length_a       5.34783
_cell_length_b       8.78277
_cell_length_c       5.29916
_cell_angle_alpha    89.9994
_cell_angle_beta     118.595
_cell_angle_gamma    90.0004

_space_group_name_H-M_alt    "P 1"
_space_group_IT_number       1

loop_
  _space_group_symop_operation_xyz
  'x, y, z'

loop_
  _atom_site_type_symbol
  _atom_site_label
  _atom_site_symmetry_multiplicity
  _atom_site_fract_x
  _atom_site_fract_y
  _atom_site_fract_z
  _atom_site_occupancy
  Mn  Mn1       1.0  0.35200  0.50000  0.11600  1.0000
  Mn  Mn2       1.0  0.87200  0.50000  0.11700  1.0000
  Mn  Mn3       1.0  0.20200  0.00000  0.33300  1.0000
  Mn  Mn4       1.0  0.86600  0.50000  0.63500  1.0000
  Mn  Mn5       1.0  0.19900  0.00000  0.82400  1.0000
  Mn  Mn6       1.0  0.71900  0.00000  0.83300  1.0000
  Mn  Mn7       1.0  0.01980  0.75600  0.96500  1.0000
  Mn  Mn8       1.0  0.01980  0.24400  0.96500  1.0000
  Nd  Nd1       1.0  0.68900  0.81100  0.30700  1.0000
  Nd  Nd2       1.0  0.68900  0.18900  0.30700  1.0000
  Nd  Nd3       1.0  0.35300  0.31300  0.63100  1.0000
  Nd  Nd4       1.0  0.35300  0.68700  0.63100  1.0000
