data_image0
_chemical_formula_structural       H4O8P2Rb2
_chemical_formula_sum              "H4 O8 P2 Rb2"
_cell_length_a       7.51414
_cell_length_b       5.89193
_cell_length_c       4.81258
_cell_angle_alpha    90
_cell_angle_beta     110.685
_cell_angle_gamma    90

_space_group_name_H-M_alt    "P 1"
_space_group_IT_number       1

loop_
  _space_group_symop_operation_xyz
  'x, y, z'

loop_
  _atom_site_type_symbol
  _atom_site_label
  _atom_site_symmetry_multiplicity
  _atom_site_fract_x
  _atom_site_fract_y
  _atom_site_fract_z
  _atom_site_occupancy
  H   H1        1.0  0.38300  0.75000  0.19500  1.0000
  H   H2        1.0  0.00000  0.00000  0.50000  1.0000
  H   H3        1.0  0.00000  0.50000  0.50000  1.0000
  H   H4        1.0  0.61700  0.25000  0.80500  1.0000
  O   O1        1.0  0.66200  0.25000  0.12400  1.0000
  O   O2        1.0  0.13000  0.53400  0.41500  1.0000
  O   O3        1.0  0.13000  0.96600  0.41500  1.0000
  O   O4        1.0  0.42200  0.75000  0.42200  1.0000
  O   O5        1.0  0.57800  0.25000  0.57800  1.0000
  O   O6        1.0  0.87000  0.03430  0.58500  1.0000
  O   O7        1.0  0.87000  0.46600  0.58500  1.0000
  O   O8        1.0  0.33800  0.75000  0.87600  1.0000
  P   P1        1.0  0.74900  0.25000  0.46000  1.0000
  P   P2        1.0  0.25100  0.75000  0.54000  1.0000
  Rb  Rb1       1.0  0.25000  0.25000  0.02630  1.0000
  Rb  Rb2       1.0  0.75000  0.75000  0.97400  1.0000
