data_image0
_chemical_formula_structural       C8Ir2Sc6
_chemical_formula_sum              "C8 Ir2 Sc6"
_cell_length_a       5.61896
_cell_length_b       5.61936
_cell_length_c       6.74766
_cell_angle_alpha    65.3929
_cell_angle_beta     83.8453
_cell_angle_gamma    75.0794

_space_group_name_H-M_alt    "P 1"
_space_group_IT_number       1

loop_
  _space_group_symop_operation_xyz
  'x, y, z'

loop_
  _atom_site_type_symbol
  _atom_site_label
  _atom_site_symmetry_multiplicity
  _atom_site_fract_x
  _atom_site_fract_y
  _atom_site_fract_z
  _atom_site_occupancy
  C   C1        1.0  0.41900  0.79100  0.25500  1.0000
  C   C2        1.0  0.58100  0.95400  0.25500  1.0000
  C   C3        1.0  0.91900  0.29000  0.25700  1.0000
  C   C4        1.0  0.08110  0.45200  0.25700  1.0000
  C   C5        1.0  0.91900  0.54800  0.74300  1.0000
  C   C6        1.0  0.08110  0.71000  0.74300  1.0000
  C   C7        1.0  0.41900  0.04640  0.74500  1.0000
  C   C8        1.0  0.58100  0.20900  0.74500  1.0000
  Ir  Ir1       1.0  0.72900  0.27100  0.00000  1.0000
  Ir  Ir2       1.0  0.27100  0.72900  0.00000  1.0000
  Sc  Sc1       1.0  0.23700  0.23800  0.00000  1.0000
  Sc  Sc2       1.0  0.76300  0.76200  0.00000  1.0000
  Sc  Sc3       1.0  0.00000  0.81100  0.37900  1.0000
  Sc  Sc4       1.0  0.50000  0.30900  0.38300  1.0000
  Sc  Sc5       1.0  0.50000  0.69100  0.61700  1.0000
  Sc  Sc6       1.0  0.00000  0.18900  0.62100  1.0000
