data_image0
_chemical_formula_structural       Ga6Hf6Pt6
_chemical_formula_sum              "Ga6 Hf6 Pt6"
_cell_length_a       7.16233
_cell_length_b       7.16232
_cell_length_c       7.05381
_cell_angle_alpha    90
_cell_angle_beta     90
_cell_angle_gamma    120.006

_space_group_name_H-M_alt    "P 1"
_space_group_IT_number       1

loop_
  _space_group_symop_operation_xyz
  'x, y, z'

loop_
  _atom_site_type_symbol
  _atom_site_label
  _atom_site_symmetry_multiplicity
  _atom_site_fract_x
  _atom_site_fract_y
  _atom_site_fract_z
  _atom_site_occupancy
  Ga  Ga1       1.0  0.26800  0.00000  0.00000  1.0000
  Ga  Ga2       1.0  0.00000  0.26800  0.00000  1.0000
  Ga  Ga3       1.0  0.73200  0.73200  0.00000  1.0000
  Ga  Ga4       1.0  0.00000  0.26800  0.50000  1.0000
  Ga  Ga5       1.0  0.73200  0.73200  0.50000  1.0000
  Ga  Ga6       1.0  0.26800  0.00000  0.50000  1.0000
  Hf  Hf1       1.0  0.40900  0.38500  0.25000  1.0000
  Hf  Hf2       1.0  0.61500  0.02470  0.25000  1.0000
  Hf  Hf3       1.0  0.97500  0.59100  0.25000  1.0000
  Hf  Hf4       1.0  0.02470  0.61500  0.75000  1.0000
  Hf  Hf5       1.0  0.59100  0.97500  0.75000  1.0000
  Hf  Hf6       1.0  0.38500  0.40900  0.75000  1.0000
  Pt  Pt1       1.0  0.33300  0.66700  0.03370  1.0000
  Pt  Pt2       1.0  0.66700  0.33300  0.96600  1.0000
  Pt  Pt3       1.0  0.66700  0.33300  0.53400  1.0000
  Pt  Pt4       1.0  0.33300  0.66700  0.46600  1.0000
  Pt  Pt5       1.0  0.00000  0.00000  0.25000  1.0000
  Pt  Pt6       1.0  0.00000  0.00000  0.75000  1.0000
