data_image0
_chemical_formula_structural       Cd4Na4Sb4
_chemical_formula_sum              "Cd4 Na4 Sb4"
_cell_length_a       7.97459
_cell_length_b       4.74413
_cell_length_c       8.53473
_cell_angle_alpha    90
_cell_angle_beta     90
_cell_angle_gamma    90

_space_group_name_H-M_alt    "P 1"
_space_group_IT_number       1

loop_
  _space_group_symop_operation_xyz
  'x, y, z'

loop_
  _atom_site_type_symbol
  _atom_site_label
  _atom_site_symmetry_multiplicity
  _atom_site_fract_x
  _atom_site_fract_y
  _atom_site_fract_z
  _atom_site_occupancy
  Cd  Cd1       1.0  0.65000  0.25000  0.07520  1.0000
  Cd  Cd2       1.0  0.15000  0.25000  0.42500  1.0000
  Cd  Cd3       1.0  0.85000  0.75000  0.57500  1.0000
  Cd  Cd4       1.0  0.35000  0.75000  0.92500  1.0000
  Na  Na1       1.0  0.98600  0.75000  0.17900  1.0000
  Na  Na2       1.0  0.48600  0.75000  0.32100  1.0000
  Na  Na3       1.0  0.51400  0.25000  0.67900  1.0000
  Na  Na4       1.0  0.01360  0.25000  0.82100  1.0000
  Sb  Sb1       1.0  0.27400  0.25000  0.10700  1.0000
  Sb  Sb2       1.0  0.77400  0.25000  0.39300  1.0000
  Sb  Sb3       1.0  0.22600  0.75000  0.60700  1.0000
  Sb  Sb4       1.0  0.72600  0.75000  0.89300  1.0000
