data_image0
_chemical_formula_structural       Ce2Os2Si2
_chemical_formula_sum              "Ce2 Os2 Si2"
_cell_length_a       4.21959
_cell_length_b       4.21959
_cell_length_c       7.19813
_cell_angle_alpha    90
_cell_angle_beta     90
_cell_angle_gamma    90

_space_group_name_H-M_alt    "P 1"
_space_group_IT_number       1

loop_
  _space_group_symop_operation_xyz
  'x, y, z'

loop_
  _atom_site_type_symbol
  _atom_site_label
  _atom_site_symmetry_multiplicity
  _atom_site_fract_x
  _atom_site_fract_y
  _atom_site_fract_z
  _atom_site_occupancy
  Ce  Ce1       1.0  0.75000  0.75000  0.32400  1.0000
  Ce  Ce2       1.0  0.25000  0.25000  0.67600  1.0000
  Os  Os1       1.0  0.75000  0.25000  0.00000  1.0000
  Os  Os2       1.0  0.25000  0.75000  0.00000  1.0000
  Si  Si1       1.0  0.25000  0.25000  0.17100  1.0000
  Si  Si2       1.0  0.75000  0.75000  0.82900  1.0000
