data_image0
_chemical_formula_structural       AuCN
_chemical_formula_sum              "Au1 C1 N1"
_cell_length_a       3.34836
_cell_length_b       3.34836
_cell_length_c       5.11973
_cell_angle_alpha    90
_cell_angle_beta     90
_cell_angle_gamma    120

_space_group_name_H-M_alt    "P 1"
_space_group_IT_number       1

loop_
  _space_group_symop_operation_xyz
  'x, y, z'

loop_
  _atom_site_type_symbol
  _atom_site_label
  _atom_site_symmetry_multiplicity
  _atom_site_fract_x
  _atom_site_fract_y
  _atom_site_fract_z
  _atom_site_occupancy
  Au  Au1       1.0  0.00000  0.00000  0.00357  1.0000
  C   C1        1.0  0.00000  0.00000  0.38400  1.0000
  N   N1        1.0  0.00000  0.00000  0.61200  1.0000
