data_image0
_chemical_formula_structural       CNb2
_chemical_formula_sum              "C1 Nb2"
_cell_length_a       3.14529
_cell_length_b       3.14529
_cell_length_c       4.99649
_cell_angle_alpha    90
_cell_angle_beta     90.0017
_cell_angle_gamma    120

_space_group_name_H-M_alt    "P 1"
_space_group_IT_number       1

loop_
  _space_group_symop_operation_xyz
  'x, y, z'

loop_
  _atom_site_type_symbol
  _atom_site_label
  _atom_site_symmetry_multiplicity
  _atom_site_fract_x
  _atom_site_fract_y
  _atom_site_fract_z
  _atom_site_occupancy
  C   C1        1.0  0.00000  0.00000  0.00000  1.0000
  Nb  Nb1       1.0  0.33300  0.66700  0.25100  1.0000
  Nb  Nb2       1.0  0.66700  0.33300  0.74900  1.0000
