data_image0
_chemical_formula_structural       EuGe2
_chemical_formula_sum              "Eu1 Ge2"
_cell_length_a       4.1193
_cell_length_b       4.119
_cell_length_c       4.82764
_cell_angle_alpha    90
_cell_angle_beta     90.0071
_cell_angle_gamma    119.998

_space_group_name_H-M_alt    "P 1"
_space_group_IT_number       1

loop_
  _space_group_symop_operation_xyz
  'x, y, z'

loop_
  _atom_site_type_symbol
  _atom_site_label
  _atom_site_symmetry_multiplicity
  _atom_site_fract_x
  _atom_site_fract_y
  _atom_site_fract_z
  _atom_site_occupancy
  Eu  Eu1       1.0  0.00000  0.00000  0.00000  1.0000
  Ge  Ge1       1.0  0.33300  0.66700  0.39500  1.0000
  Ge  Ge2       1.0  0.66700  0.33300  0.60500  1.0000
