data_image0
_chemical_formula_structural       Sb2Te3
_chemical_formula_sum              "Sb2 Te3"
_cell_length_a       4.32522
_cell_length_b       4.32522
_cell_length_c       10.584
_cell_angle_alpha    90
_cell_angle_beta     101.79
_cell_angle_gamma    60

_space_group_name_H-M_alt    "P 1"
_space_group_IT_number       1

loop_
  _space_group_symop_operation_xyz
  'x, y, z'

loop_
  _atom_site_type_symbol
  _atom_site_label
  _atom_site_symmetry_multiplicity
  _atom_site_fract_x
  _atom_site_fract_y
  _atom_site_fract_z
  _atom_site_occupancy
  Sb  Sb1       1.0  0.79700  0.60200  0.19500  1.0000
  Sb  Sb2       1.0  0.20300  0.39800  0.80500  1.0000
  Te  Te1       1.0  0.00000  0.00000  0.00000  1.0000
  Te  Te2       1.0  0.57500  0.21200  0.36300  1.0000
  Te  Te3       1.0  0.42500  0.78800  0.63700  1.0000
