data_image0
_chemical_formula_structural       Ba2N4
_chemical_formula_sum              "Ba2 N4"
_cell_length_a       4.19886
_cell_length_b       4.19886
_cell_length_c       7.24515
_cell_angle_alpha    102.647
_cell_angle_beta     102.647
_cell_angle_gamma    63.2313

_space_group_name_H-M_alt    "P 1"
_space_group_IT_number       1

loop_
  _space_group_symop_operation_xyz
  'x, y, z'

loop_
  _atom_site_type_symbol
  _atom_site_label
  _atom_site_symmetry_multiplicity
  _atom_site_fract_x
  _atom_site_fract_y
  _atom_site_fract_z
  _atom_site_occupancy
  Ba  Ba1       1.0  0.79800  0.20200  0.25000  1.0000
  Ba  Ba2       1.0  0.20200  0.79800  0.75000  1.0000
  N   N1        1.0  0.15300  0.44100  0.04510  1.0000
  N   N2        1.0  0.55900  0.84700  0.45500  1.0000
  N   N3        1.0  0.44100  0.15300  0.54500  1.0000
  N   N4        1.0  0.84700  0.55900  0.95500  1.0000
