data_image0
_chemical_formula_structural       CuO2
_chemical_formula_sum              "Cu1 O2"
_cell_length_a       3.08722
_cell_length_b       3.06651
_cell_length_c       3.74894
_cell_angle_alpha    91.0897
_cell_angle_beta     92.1652
_cell_angle_gamma    59.7763

_space_group_name_H-M_alt    "P 1"
_space_group_IT_number       1

loop_
  _space_group_symop_operation_xyz
  'x, y, z'

loop_
  _atom_site_type_symbol
  _atom_site_label
  _atom_site_symmetry_multiplicity
  _atom_site_fract_x
  _atom_site_fract_y
  _atom_site_fract_z
  _atom_site_occupancy
  Cu  Cu1       1.0  0.00000  0.00000  0.00000  1.0000
  O   O1        1.0  0.50200  0.00000  0.31400  1.0000
  O   O2        1.0  0.49800  0.00000  0.68600  1.0000
