data_image0
_chemical_formula_structural       NNaO2
_chemical_formula_sum              "N1 Na1 O2"
_cell_length_a       3.46138
_cell_length_b       4.15843
_cell_length_c       4.15843
_cell_angle_alpha    99.2753
_cell_angle_beta     65.4059
_cell_angle_gamma    114.594

_space_group_name_H-M_alt    "P 1"
_space_group_IT_number       1

loop_
  _space_group_symop_operation_xyz
  'x, y, z'

loop_
  _atom_site_type_symbol
  _atom_site_label
  _atom_site_symmetry_multiplicity
  _atom_site_fract_x
  _atom_site_fract_y
  _atom_site_fract_z
  _atom_site_occupancy
  N   N1        1.0  0.00000  0.92400  0.92400  1.0000
  Na  Na1       1.0  0.00000  0.46300  0.46300  1.0000
  O   O1        1.0  0.79900  0.85100  0.25400  1.0000
  O   O2        1.0  0.20100  0.25400  0.85100  1.0000
