data_image0
_chemical_formula_structural       Cl2Hf2N2
_chemical_formula_sum              "Cl2 Hf2 N2"
_cell_length_a       3.58183
_cell_length_b       3.58183
_cell_length_c       9.46508
_cell_angle_alpha    100.907
_cell_angle_beta     79.0931
_cell_angle_gamma    120

_space_group_name_H-M_alt    "P 1"
_space_group_IT_number       1

loop_
  _space_group_symop_operation_xyz
  'x, y, z'

loop_
  _atom_site_type_symbol
  _atom_site_label
  _atom_site_symmetry_multiplicity
  _atom_site_fract_x
  _atom_site_fract_y
  _atom_site_fract_z
  _atom_site_occupancy
  Cl  Cl1       1.0  0.61200  0.38800  0.16500  1.0000
  Cl  Cl2       1.0  0.38800  0.61200  0.83500  1.0000
  Hf  Hf1       1.0  0.88000  0.12000  0.36000  1.0000
  Hf  Hf2       1.0  0.12000  0.88000  0.64000  1.0000
  N   N1        1.0  0.19800  0.80200  0.40700  1.0000
  N   N2        1.0  0.80200  0.19800  0.59300  1.0000
