data_image0
_chemical_formula_structural       F2Mg4N2
_chemical_formula_sum              "F2 Mg4 N2"
_cell_length_a       4.16015
_cell_length_b       4.16015
_cell_length_c       5.76178
_cell_angle_alpha    111.162
_cell_angle_beta     111.162
_cell_angle_gamma    90

_space_group_name_H-M_alt    "P 1"
_space_group_IT_number       1

loop_
  _space_group_symop_operation_xyz
  'x, y, z'

loop_
  _atom_site_type_symbol
  _atom_site_label
  _atom_site_symmetry_multiplicity
  _atom_site_fract_x
  _atom_site_fract_y
  _atom_site_fract_z
  _atom_site_occupancy
  F   F1        1.0  0.00000  0.00000  0.00000  1.0000
  F   F2        1.0  0.25000  0.75000  0.50000  1.0000
  Mg  Mg1       1.0  0.96400  0.46400  0.92800  1.0000
  Mg  Mg2       1.0  0.53600  0.03580  0.07170  1.0000
  Mg  Mg3       1.0  0.71400  0.71400  0.42800  1.0000
  Mg  Mg4       1.0  0.28600  0.28600  0.57200  1.0000
  N   N1        1.0  0.50000  0.50000  0.00000  1.0000
  N   N2        1.0  0.75000  0.25000  0.50000  1.0000
