data_image0
_chemical_formula_structural       KNO2
_chemical_formula_sum              "K1 N1 O2"
_cell_length_a       4.25016
_cell_length_b       4.25016
_cell_length_c       3.59883
_cell_angle_alpha    84.8807
_cell_angle_beta     95.1193
_cell_angle_gamma    99.9142

_space_group_name_H-M_alt    "P 1"
_space_group_IT_number       1

loop_
  _space_group_symop_operation_xyz
  'x, y, z'

loop_
  _atom_site_type_symbol
  _atom_site_label
  _atom_site_symmetry_multiplicity
  _atom_site_fract_x
  _atom_site_fract_y
  _atom_site_fract_z
  _atom_site_occupancy
  K   K1        1.0  0.10200  0.89800  0.93500  1.0000
  N   N1        1.0  0.67900  0.32100  0.54200  1.0000
  O   O1        1.0  0.57400  0.03490  0.45600  1.0000
  O   O2        1.0  0.96500  0.42600  0.45600  1.0000
