data_image0
_chemical_formula_structural       Mg5Si6
_chemical_formula_sum              "Mg5 Si6"
_cell_length_a       4.06272
_cell_length_b       6.95068
_cell_length_c       7.8207
_cell_angle_alpha    109.726
_cell_angle_beta     105.055
_cell_angle_gamma    90

_space_group_name_H-M_alt    "P 1"
_space_group_IT_number       1

loop_
  _space_group_symop_operation_xyz
  'x, y, z'

loop_
  _atom_site_type_symbol
  _atom_site_label
  _atom_site_symmetry_multiplicity
  _atom_site_fract_x
  _atom_site_fract_y
  _atom_site_fract_z
  _atom_site_occupancy
  Mg  Mg1       1.0  0.00000  0.00000  0.00000  1.0000
  Mg  Mg2       1.0  0.57700  0.37200  0.15400  1.0000
  Mg  Mg3       1.0  0.65600  0.93400  0.31200  1.0000
  Mg  Mg4       1.0  0.34400  0.06590  0.68800  1.0000
  Mg  Mg5       1.0  0.42300  0.62800  0.84600  1.0000
  Si  Si1       1.0  0.05770  0.67000  0.11500  1.0000
  Si  Si2       1.0  0.19200  0.25900  0.38500  1.0000
  Si  Si3       1.0  0.20900  0.63200  0.41700  1.0000
  Si  Si4       1.0  0.79100  0.36800  0.58300  1.0000
  Si  Si5       1.0  0.80800  0.74100  0.61500  1.0000
  Si  Si6       1.0  0.94200  0.33000  0.88500  1.0000
