data_image0
_chemical_formula_structural       I4P2
_chemical_formula_sum              "I4 P2"
_cell_length_a       4.86244
_cell_length_b       7.44969
_cell_length_c       7.52811
_cell_angle_alpha    80.3194
_cell_angle_beta     104.797
_cell_angle_gamma    100.583

_space_group_name_H-M_alt    "P 1"
_space_group_IT_number       1

loop_
  _space_group_symop_operation_xyz
  'x, y, z'

loop_
  _atom_site_type_symbol
  _atom_site_label
  _atom_site_symmetry_multiplicity
  _atom_site_fract_x
  _atom_site_fract_y
  _atom_site_fract_z
  _atom_site_occupancy
  I   I1        1.0  0.57800  0.72700  0.17100  1.0000
  I   I2        1.0  0.19500  0.20200  0.30800  1.0000
  I   I3        1.0  0.80500  0.79800  0.69200  1.0000
  I   I4        1.0  0.42200  0.27300  0.82900  1.0000
  P   P1        1.0  0.41100  0.63400  0.46500  1.0000
  P   P2        1.0  0.58900  0.36600  0.53500  1.0000
