data_image0
_chemical_formula_structural       Fe2O7P2
_chemical_formula_sum              "Fe2 O7 P2"
_cell_length_a       5.46345
_cell_length_b       5.25936
_cell_length_c       4.4829
_cell_angle_alpha    98.7312
_cell_angle_beta     97.7466
_cell_angle_gamma    103.903

_space_group_name_H-M_alt    "P 1"
_space_group_IT_number       1

loop_
  _space_group_symop_operation_xyz
  'x, y, z'

loop_
  _atom_site_type_symbol
  _atom_site_label
  _atom_site_symmetry_multiplicity
  _atom_site_fract_x
  _atom_site_fract_y
  _atom_site_fract_z
  _atom_site_occupancy
  Fe  Fe1       1.0  0.69200  0.38500  0.46100  1.0000
  Fe  Fe2       1.0  0.29700  0.75400  0.49000  1.0000
  O   O1        1.0  0.37000  0.45300  0.18500  1.0000
  O   O2        1.0  0.63600  0.00831  0.24400  1.0000
  O   O3        1.0  0.91600  0.68600  0.25200  1.0000
  O   O4        1.0  0.37700  0.14500  0.69000  1.0000
  O   O5        1.0  0.07410  0.44500  0.69300  1.0000
  O   O6        1.0  0.62400  0.69000  0.75700  1.0000
  O   O7        1.0  0.01340  0.05310  0.96500  1.0000
  P   P1        1.0  0.78600  0.85100  0.06220  1.0000
  P   P2        1.0  0.21700  0.28600  0.87900  1.0000
