data_image0
_chemical_formula_structural       Ca4OP2
_chemical_formula_sum              "Ca4 O1 P2"
_cell_length_a       4.4925
_cell_length_b       4.4925
_cell_length_c       8.16179
_cell_angle_alpha    105.975
_cell_angle_beta     105.975
_cell_angle_gamma    90

_space_group_name_H-M_alt    "P 1"
_space_group_IT_number       1

loop_
  _space_group_symop_operation_xyz
  'x, y, z'

loop_
  _atom_site_type_symbol
  _atom_site_label
  _atom_site_symmetry_multiplicity
  _atom_site_fract_x
  _atom_site_fract_y
  _atom_site_fract_z
  _atom_site_occupancy
  Ca  Ca1       1.0  0.50000  0.00000  0.00000  1.0000
  Ca  Ca2       1.0  0.00000  0.50000  0.00000  1.0000
  Ca  Ca3       1.0  0.67300  0.67300  0.34700  1.0000
  Ca  Ca4       1.0  0.32700  0.32700  0.65300  1.0000
  O   O1        1.0  0.50000  0.50000  0.00000  1.0000
  P   P1        1.0  0.13600  0.13600  0.27300  1.0000
  P   P2        1.0  0.86400  0.86400  0.72700  1.0000
