data_image0
_chemical_formula_structural       Ge5Sm
_chemical_formula_sum              "Ge5 Sm1"
_cell_length_a       4.00938
_cell_length_b       6.18438
_cell_length_c       6.18438
_cell_angle_alpha    106.531
_cell_angle_beta     108.914
_cell_angle_gamma    108.914

_space_group_name_H-M_alt    "P 1"
_space_group_IT_number       1

loop_
  _space_group_symop_operation_xyz
  'x, y, z'

loop_
  _atom_site_type_symbol
  _atom_site_label
  _atom_site_symmetry_multiplicity
  _atom_site_fract_x
  _atom_site_fract_y
  _atom_site_fract_z
  _atom_site_occupancy
  Ge  Ge1       1.0  0.79300  0.46300  0.12400  1.0000
  Ge  Ge2       1.0  0.79300  0.12400  0.46300  1.0000
  Ge  Ge3       1.0  0.50000  0.50000  0.50000  1.0000
  Ge  Ge4       1.0  0.20700  0.87600  0.53700  1.0000
  Ge  Ge5       1.0  0.20700  0.53700  0.87600  1.0000
  Sm  Sm1       1.0  0.00000  0.00000  0.00000  1.0000
