data_image0
_chemical_formula_structural       Ga2Te4Tl2
_chemical_formula_sum              "Ga2 Te4 Tl2"
_cell_length_a       6.90829
_cell_length_b       6.97943
_cell_length_c       6.97943
_cell_angle_alpha    104.178
_cell_angle_beta     60.3366
_cell_angle_gamma    119.663

_space_group_name_H-M_alt    "P 1"
_space_group_IT_number       1

loop_
  _space_group_symop_operation_xyz
  'x, y, z'

loop_
  _atom_site_type_symbol
  _atom_site_label
  _atom_site_symmetry_multiplicity
  _atom_site_fract_x
  _atom_site_fract_y
  _atom_site_fract_z
  _atom_site_occupancy
  Ga  Ga1       1.0  0.25000  0.50000  0.50000  1.0000
  Ga  Ga2       1.0  0.75000  0.50000  0.50000  1.0000
  Te  Te1       1.0  0.17000  0.50000  0.16100  1.0000
  Te  Te2       1.0  0.33000  0.16100  0.50000  1.0000
  Te  Te3       1.0  0.67000  0.83900  0.50000  1.0000
  Te  Te4       1.0  0.83000  0.50000  0.83900  1.0000
  Tl  Tl1       1.0  0.25000  0.00000  0.00000  1.0000
  Tl  Tl2       1.0  0.75000  0.00000  0.00000  1.0000
