data_image0
_chemical_formula_structural       Na4O5U
_chemical_formula_sum              "Na4 O5 U1"
_cell_length_a       4.64817
_cell_length_b       5.76426
_cell_length_c       5.76426
_cell_angle_alpha    99.3556
_cell_angle_beta     66.2224
_cell_angle_gamma    113.778

_space_group_name_H-M_alt    "P 1"
_space_group_IT_number       1

loop_
  _space_group_symop_operation_xyz
  'x, y, z'

loop_
  _atom_site_type_symbol
  _atom_site_label
  _atom_site_symmetry_multiplicity
  _atom_site_fract_x
  _atom_site_fract_y
  _atom_site_fract_z
  _atom_site_occupancy
  Na  Na1       1.0  0.19300  0.60200  0.21600  1.0000
  Na  Na2       1.0  0.40900  0.21600  0.39800  1.0000
  Na  Na3       1.0  0.59100  0.78400  0.60200  1.0000
  Na  Na4       1.0  0.80700  0.39800  0.78400  1.0000
  O   O1        1.0  0.50000  0.00000  0.00000  1.0000
  O   O2        1.0  0.73800  0.65600  0.18000  1.0000
  O   O3        1.0  0.91800  0.18000  0.34400  1.0000
  O   O4        1.0  0.08180  0.82000  0.65600  1.0000
  O   O5        1.0  0.26200  0.34400  0.82000  1.0000
  U   U1        1.0  0.00000  0.00000  0.00000  1.0000
