data_image0
_chemical_formula_structural       Cl4Cr2
_chemical_formula_sum              "Cl4 Cr2"
_cell_length_a       6.64135
_cell_length_b       5.97571
_cell_length_c       3.48017
_cell_angle_alpha    90
_cell_angle_beta     90
_cell_angle_gamma    90

_space_group_name_H-M_alt    "P 1"
_space_group_IT_number       1

loop_
  _space_group_symop_operation_xyz
  'x, y, z'

loop_
  _atom_site_type_symbol
  _atom_site_label
  _atom_site_symmetry_multiplicity
  _atom_site_fract_x
  _atom_site_fract_y
  _atom_site_fract_z
  _atom_site_occupancy
  Cl  Cl1       1.0  0.36200  0.27500  0.00000  1.0000
  Cl  Cl2       1.0  0.63800  0.72500  0.00000  1.0000
  Cl  Cl3       1.0  0.86200  0.22500  0.50000  1.0000
  Cl  Cl4       1.0  0.13800  0.77500  0.50000  1.0000
  Cr  Cr1       1.0  0.00000  0.00000  0.00000  1.0000
  Cr  Cr2       1.0  0.50000  0.50000  0.50000  1.0000
