data_image0
_chemical_formula_structural       Au2Bi2Na4
_chemical_formula_sum              "Au2 Bi2 Na4"
_cell_length_a       5.86354
_cell_length_b       6.0791
_cell_length_c       6.0791
_cell_angle_alpha    101.485
_cell_angle_beta     90
_cell_angle_gamma    90

_space_group_name_H-M_alt    "P 1"
_space_group_IT_number       1

loop_
  _space_group_symop_operation_xyz
  'x, y, z'

loop_
  _atom_site_type_symbol
  _atom_site_label
  _atom_site_symmetry_multiplicity
  _atom_site_fract_x
  _atom_site_fract_y
  _atom_site_fract_z
  _atom_site_occupancy
  Au  Au1       1.0  0.00000  0.00000  0.00000  1.0000
  Au  Au2       1.0  0.50000  0.00000  0.00000  1.0000
  Bi  Bi1       1.0  0.75000  0.31200  0.31200  1.0000
  Bi  Bi2       1.0  0.25000  0.68800  0.68800  1.0000
  Na  Na1       1.0  0.25000  0.51200  0.14600  1.0000
  Na  Na2       1.0  0.75000  0.85400  0.48800  1.0000
  Na  Na3       1.0  0.25000  0.14600  0.51200  1.0000
  Na  Na4       1.0  0.75000  0.48800  0.85400  1.0000
