data_image0
_chemical_formula_structural       Ge4Zr2
_chemical_formula_sum              "Ge4 Zr2"
_cell_length_a       3.80322
_cell_length_b       3.83781
_cell_length_c       7.82197
_cell_angle_alpha    75.7991
_cell_angle_beta     90
_cell_angle_gamma    90

_space_group_name_H-M_alt    "P 1"
_space_group_IT_number       1

loop_
  _space_group_symop_operation_xyz
  'x, y, z'

loop_
  _atom_site_type_symbol
  _atom_site_label
  _atom_site_symmetry_multiplicity
  _atom_site_fract_x
  _atom_site_fract_y
  _atom_site_fract_z
  _atom_site_occupancy
  Ge  Ge1       1.0  0.75000  0.44100  0.11900  1.0000
  Ge  Ge2       1.0  0.25000  0.25000  0.50000  1.0000
  Ge  Ge3       1.0  0.75000  0.75000  0.50000  1.0000
  Ge  Ge4       1.0  0.25000  0.55900  0.88100  1.0000
  Zr  Zr1       1.0  0.25000  0.89500  0.21000  1.0000
  Zr  Zr2       1.0  0.75000  0.10500  0.79000  1.0000
