data_image0
_chemical_formula_structural       Cs2Se6Sn2
_chemical_formula_sum              "Cs2 Se6 Sn2"
_cell_length_a       7.21876
_cell_length_b       7.52371
_cell_length_c       8.14679
_cell_angle_alpha    97.1962
_cell_angle_beta     115.3
_cell_angle_gamma    107.685

_space_group_name_H-M_alt    "P 1"
_space_group_IT_number       1

loop_
  _space_group_symop_operation_xyz
  'x, y, z'

loop_
  _atom_site_type_symbol
  _atom_site_label
  _atom_site_symmetry_multiplicity
  _atom_site_fract_x
  _atom_site_fract_y
  _atom_site_fract_z
  _atom_site_occupancy
  Cs  Cs1       1.0  0.22800  0.19100  0.36000  1.0000
  Cs  Cs2       1.0  0.77200  0.80900  0.64000  1.0000
  Se  Se1       1.0  0.66000  0.77900  0.05650  1.0000
  Se  Se2       1.0  0.22600  0.69900  0.21900  1.0000
  Se  Se3       1.0  0.81400  0.38600  0.37800  1.0000
  Se  Se4       1.0  0.18600  0.61400  0.62200  1.0000
  Se  Se5       1.0  0.77400  0.30100  0.78100  1.0000
  Se  Se6       1.0  0.34000  0.22100  0.94400  1.0000
  Sn  Sn1       1.0  0.77800  0.48900  0.07200  1.0000
  Sn  Sn2       1.0  0.22200  0.51100  0.92800  1.0000
