data_image0
_chemical_formula_structural       CrCuO2
_chemical_formula_sum              "Cr1 Cu1 O2"
_cell_length_a       2.99833
_cell_length_b       2.99833
_cell_length_c       5.96582
_cell_angle_alpha    90
_cell_angle_beta     104.554
_cell_angle_gamma    120

_space_group_name_H-M_alt    "P 1"
_space_group_IT_number       1

loop_
  _space_group_symop_operation_xyz
  'x, y, z'

loop_
  _atom_site_type_symbol
  _atom_site_label
  _atom_site_symmetry_multiplicity
  _atom_site_fract_x
  _atom_site_fract_y
  _atom_site_fract_z
  _atom_site_occupancy
  Cr  Cr1       1.0  0.00000  0.50000  0.50000  1.0000
  Cu  Cu1       1.0  0.00000  0.00000  0.00000  1.0000
  O   O1        1.0  0.21400  0.10700  0.32200  1.0000
  O   O2        1.0  0.78600  0.89300  0.67800  1.0000
