data_image0
_chemical_formula_structural       Mn3N2
_chemical_formula_sum              "Mn3 N2"
_cell_length_a       2.84401
_cell_length_b       2.84401
_cell_length_c       6.20798
_cell_angle_alpha    103.244
_cell_angle_beta     103.244
_cell_angle_gamma    89.9992

_space_group_name_H-M_alt    "P 1"
_space_group_IT_number       1

loop_
  _space_group_symop_operation_xyz
  'x, y, z'

loop_
  _atom_site_type_symbol
  _atom_site_label
  _atom_site_symmetry_multiplicity
  _atom_site_fract_x
  _atom_site_fract_y
  _atom_site_fract_z
  _atom_site_occupancy
  Mn  Mn1       1.0  0.00000  0.00000  0.00000  1.0000
  Mn  Mn2       1.0  0.66100  0.66100  0.32200  1.0000
  Mn  Mn3       1.0  0.33900  0.33900  0.67800  1.0000
  N   N1        1.0  0.16100  0.16100  0.32300  1.0000
  N   N2        1.0  0.83900  0.83900  0.67700  1.0000
