data_image0
_chemical_formula_structural       B4N6
_chemical_formula_sum              "B4 N6"
_cell_length_a       4.84774
_cell_length_b       4.84774
_cell_length_c       6.04491
_cell_angle_alpha    113.639
_cell_angle_beta     66.3607
_cell_angle_gamma    120

_space_group_name_H-M_alt    "P 1"
_space_group_IT_number       1

loop_
  _space_group_symop_operation_xyz
  'x, y, z'

loop_
  _atom_site_type_symbol
  _atom_site_label
  _atom_site_symmetry_multiplicity
  _atom_site_fract_x
  _atom_site_fract_y
  _atom_site_fract_z
  _atom_site_occupancy
  B   B1        1.0  0.58500  0.41500  0.24400  1.0000
  B   B2        1.0  0.91500  0.08530  0.25600  1.0000
  B   B3        1.0  0.08530  0.91500  0.74400  1.0000
  B   B4        1.0  0.41500  0.58500  0.75600  1.0000
  N   N1        1.0  0.25000  0.24900  0.25000  1.0000
  N   N2        1.0  0.75100  0.25100  0.25000  1.0000
  N   N3        1.0  0.74900  0.75000  0.25000  1.0000
  N   N4        1.0  0.25100  0.25000  0.75000  1.0000
  N   N5        1.0  0.24900  0.74900  0.75000  1.0000
  N   N6        1.0  0.75000  0.75100  0.75000  1.0000
