data_image0
_chemical_formula_structural       Ga4I6
_chemical_formula_sum              "Ga4 I6"
_cell_length_a       7.60437
_cell_length_b       7.60437
_cell_length_c       8.43179
_cell_angle_alpha    116.804
_cell_angle_beta     63.1964
_cell_angle_gamma    120

_space_group_name_H-M_alt    "P 1"
_space_group_IT_number       1

loop_
  _space_group_symop_operation_xyz
  'x, y, z'

loop_
  _atom_site_type_symbol
  _atom_site_label
  _atom_site_symmetry_multiplicity
  _atom_site_fract_x
  _atom_site_fract_y
  _atom_site_fract_z
  _atom_site_occupancy
  Ga  Ga1       1.0  0.66000  0.34000  0.02080  1.0000
  Ga  Ga2       1.0  0.84000  0.16000  0.47900  1.0000
  Ga  Ga3       1.0  0.16000  0.84000  0.52100  1.0000
  Ga  Ga4       1.0  0.34000  0.66000  0.97900  1.0000
  I   I1        1.0  0.25000  0.07970  0.25000  1.0000
  I   I2        1.0  0.92000  0.42000  0.25000  1.0000
  I   I3        1.0  0.58000  0.75000  0.25000  1.0000
  I   I4        1.0  0.42000  0.25000  0.75000  1.0000
  I   I5        1.0  0.07970  0.58000  0.75000  1.0000
  I   I6        1.0  0.75000  0.92000  0.75000  1.0000
