data_image0
_chemical_formula_structural       Ac4I6
_chemical_formula_sum              "Ac4 I6"
_cell_length_a       7.50143
_cell_length_b       7.50143
_cell_length_c       9.93342
_cell_angle_alpha    112.184
_cell_angle_beta     67.8158
_cell_angle_gamma    120

_space_group_name_H-M_alt    "P 1"
_space_group_IT_number       1

loop_
  _space_group_symop_operation_xyz
  'x, y, z'

loop_
  _atom_site_type_symbol
  _atom_site_label
  _atom_site_symmetry_multiplicity
  _atom_site_fract_x
  _atom_site_fract_y
  _atom_site_fract_z
  _atom_site_occupancy
  Ac  Ac1       1.0  0.66900  0.33100  0.99300  1.0000
  Ac  Ac2       1.0  0.33100  0.66900  0.00681  1.0000
  Ac  Ac3       1.0  0.16900  0.83100  0.49300  1.0000
  Ac  Ac4       1.0  0.83100  0.16900  0.50700  1.0000
  I   I1        1.0  0.25000  0.09000  0.25000  1.0000
  I   I2        1.0  0.91000  0.41000  0.25000  1.0000
  I   I3        1.0  0.59000  0.75000  0.25000  1.0000
  I   I4        1.0  0.41000  0.25000  0.75000  1.0000
  I   I5        1.0  0.09000  0.59000  0.75000  1.0000
  I   I6        1.0  0.75000  0.91000  0.75000  1.0000
