data_image0
_chemical_formula_structural       I4La6
_chemical_formula_sum              "I4 La6"
_cell_length_a       7.62965
_cell_length_b       7.62965
_cell_length_c       8.74614
_cell_angle_alpha    115.86
_cell_angle_beta     64.1401
_cell_angle_gamma    120

_space_group_name_H-M_alt    "P 1"
_space_group_IT_number       1

loop_
  _space_group_symop_operation_xyz
  'x, y, z'

loop_
  _atom_site_type_symbol
  _atom_site_label
  _atom_site_symmetry_multiplicity
  _atom_site_fract_x
  _atom_site_fract_y
  _atom_site_fract_z
  _atom_site_occupancy
  I   I1        1.0  0.33300  0.66700  0.99991  1.0000
  I   I2        1.0  0.66700  0.33300  0.00009  1.0000
  I   I3        1.0  0.83300  0.16700  0.50000  1.0000
  I   I4        1.0  0.16700  0.83300  0.50000  1.0000
  La  La1       1.0  0.25000  0.08990  0.25000  1.0000
  La  La2       1.0  0.91000  0.41000  0.25000  1.0000
  La  La3       1.0  0.59000  0.75000  0.25000  1.0000
  La  La4       1.0  0.41000  0.25000  0.75000  1.0000
  La  La5       1.0  0.08990  0.59000  0.75000  1.0000
  La  La6       1.0  0.75000  0.91000  0.75000  1.0000
