data_image0
_chemical_formula_structural       Cl4Hg6
_chemical_formula_sum              "Cl4 Hg6"
_cell_length_a       7.83632
_cell_length_b       7.83632
_cell_length_c       7.50623
_cell_angle_alpha    121.466
_cell_angle_beta     58.5343
_cell_angle_gamma    120

_space_group_name_H-M_alt    "P 1"
_space_group_IT_number       1

loop_
  _space_group_symop_operation_xyz
  'x, y, z'

loop_
  _atom_site_type_symbol
  _atom_site_label
  _atom_site_symmetry_multiplicity
  _atom_site_fract_x
  _atom_site_fract_y
  _atom_site_fract_z
  _atom_site_occupancy
  Cl  Cl1       1.0  0.64500  0.35500  0.06430  1.0000
  Cl  Cl2       1.0  0.85500  0.14500  0.43600  1.0000
  Cl  Cl3       1.0  0.14500  0.85500  0.56400  1.0000
  Cl  Cl4       1.0  0.35500  0.64500  0.93600  1.0000
  Hg  Hg1       1.0  0.56200  0.75000  0.25000  1.0000
  Hg  Hg2       1.0  0.93800  0.43800  0.25000  1.0000
  Hg  Hg3       1.0  0.25000  0.06250  0.25000  1.0000
  Hg  Hg4       1.0  0.75000  0.93800  0.75000  1.0000
  Hg  Hg5       1.0  0.06250  0.56200  0.75000  1.0000
  Hg  Hg6       1.0  0.43800  0.25000  0.75000  1.0000
