data_image0
_chemical_formula_structural       Ba4I6
_chemical_formula_sum              "Ba4 I6"
_cell_length_a       8.52272
_cell_length_b       8.52272
_cell_length_c       9.74277
_cell_angle_alpha    115.937
_cell_angle_beta     64.0627
_cell_angle_gamma    120

_space_group_name_H-M_alt    "P 1"
_space_group_IT_number       1

loop_
  _space_group_symop_operation_xyz
  'x, y, z'

loop_
  _atom_site_type_symbol
  _atom_site_label
  _atom_site_symmetry_multiplicity
  _atom_site_fract_x
  _atom_site_fract_y
  _atom_site_fract_z
  _atom_site_occupancy
  Ba  Ba1       1.0  0.65900  0.34100  0.02400  1.0000
  Ba  Ba2       1.0  0.84100  0.15900  0.47600  1.0000
  Ba  Ba3       1.0  0.15900  0.84100  0.52400  1.0000
  Ba  Ba4       1.0  0.34100  0.65900  0.97600  1.0000
  I   I1        1.0  0.25000  0.05860  0.25000  1.0000
  I   I2        1.0  0.94100  0.44100  0.25000  1.0000
  I   I3        1.0  0.55900  0.75000  0.25000  1.0000
  I   I4        1.0  0.44100  0.25000  0.75000  1.0000
  I   I5        1.0  0.05860  0.55900  0.75000  1.0000
  I   I6        1.0  0.75000  0.94100  0.75000  1.0000
