data_image0
_chemical_formula_structural       Bi4Br6
_chemical_formula_sum              "Bi4 Br6"
_cell_length_a       7.75545
_cell_length_b       7.75545
_cell_length_c       8.04817
_cell_angle_alpha    118.804
_cell_angle_beta     61.196
_cell_angle_gamma    120

_space_group_name_H-M_alt    "P 1"
_space_group_IT_number       1

loop_
  _space_group_symop_operation_xyz
  'x, y, z'

loop_
  _atom_site_type_symbol
  _atom_site_label
  _atom_site_symmetry_multiplicity
  _atom_site_fract_x
  _atom_site_fract_y
  _atom_site_fract_z
  _atom_site_occupancy
  Bi  Bi1       1.0  0.67100  0.32900  0.98800  1.0000
  Bi  Bi2       1.0  0.32900  0.67100  0.01230  1.0000
  Bi  Bi3       1.0  0.17100  0.82900  0.48800  1.0000
  Bi  Bi4       1.0  0.82900  0.17100  0.51200  1.0000
  Br  Br1       1.0  0.62300  0.75000  0.25000  1.0000
  Br  Br2       1.0  0.87700  0.37700  0.25000  1.0000
  Br  Br3       1.0  0.25000  0.12300  0.25000  1.0000
  Br  Br4       1.0  0.75000  0.87700  0.75000  1.0000
  Br  Br5       1.0  0.12300  0.62300  0.75000  1.0000
  Br  Br6       1.0  0.37700  0.25000  0.75000  1.0000
