data_image0
_chemical_formula_structural       O4Pt6
_chemical_formula_sum              "O4 Pt6"
_cell_length_a       5.98308
_cell_length_b       5.98308
_cell_length_c       5.5264
_cell_angle_alpha    122.773
_cell_angle_beta     57.2266
_cell_angle_gamma    120

_space_group_name_H-M_alt    "P 1"
_space_group_IT_number       1

loop_
  _space_group_symop_operation_xyz
  'x, y, z'

loop_
  _atom_site_type_symbol
  _atom_site_label
  _atom_site_symmetry_multiplicity
  _atom_site_fract_x
  _atom_site_fract_y
  _atom_site_fract_z
  _atom_site_occupancy
  O   O1        1.0  0.61700  0.38300  0.14800  1.0000
  O   O2        1.0  0.88300  0.11700  0.35200  1.0000
  O   O3        1.0  0.11700  0.88300  0.64800  1.0000
  O   O4        1.0  0.38300  0.61700  0.85200  1.0000
  Pt  Pt1       1.0  0.57800  0.75000  0.25000  1.0000
  Pt  Pt2       1.0  0.92200  0.42200  0.25000  1.0000
  Pt  Pt3       1.0  0.25000  0.07820  0.25000  1.0000
  Pt  Pt4       1.0  0.75000  0.92200  0.75000  1.0000
  Pt  Pt5       1.0  0.07820  0.57800  0.75000  1.0000
  Pt  Pt6       1.0  0.42200  0.25000  0.75000  1.0000
