data_image0
_chemical_formula_structural       Cl4Ga6
_chemical_formula_sum              "Cl4 Ga6"
_cell_length_a       6.14022
_cell_length_b       6.14022
_cell_length_c       7.90451
_cell_angle_alpha    112.855
_cell_angle_beta     67.145
_cell_angle_gamma    120

_space_group_name_H-M_alt    "P 1"
_space_group_IT_number       1

loop_
  _space_group_symop_operation_xyz
  'x, y, z'

loop_
  _atom_site_type_symbol
  _atom_site_label
  _atom_site_symmetry_multiplicity
  _atom_site_fract_x
  _atom_site_fract_y
  _atom_site_fract_z
  _atom_site_occupancy
  Cl  Cl1       1.0  0.68200  0.31800  0.95500  1.0000
  Cl  Cl2       1.0  0.31800  0.68200  0.04490  1.0000
  Cl  Cl3       1.0  0.18200  0.81800  0.45500  1.0000
  Cl  Cl4       1.0  0.81800  0.18200  0.54500  1.0000
  Ga  Ga1       1.0  0.25000  0.17000  0.25000  1.0000
  Ga  Ga2       1.0  0.83000  0.33000  0.25000  1.0000
  Ga  Ga3       1.0  0.67000  0.75000  0.25000  1.0000
  Ga  Ga4       1.0  0.33000  0.25000  0.75000  1.0000
  Ga  Ga5       1.0  0.17000  0.67000  0.75000  1.0000
  Ga  Ga6       1.0  0.75000  0.83000  0.75000  1.0000
