data_image0
_chemical_formula_structural       Ag4Br6
_chemical_formula_sum              "Ag4 Br6"
_cell_length_a       6.94974
_cell_length_b       6.94974
_cell_length_c       7.51943
_cell_angle_alpha    117.524
_cell_angle_beta     62.4761
_cell_angle_gamma    120

_space_group_name_H-M_alt    "P 1"
_space_group_IT_number       1

loop_
  _space_group_symop_operation_xyz
  'x, y, z'

loop_
  _atom_site_type_symbol
  _atom_site_label
  _atom_site_symmetry_multiplicity
  _atom_site_fract_x
  _atom_site_fract_y
  _atom_site_fract_z
  _atom_site_occupancy
  Ag  Ag1       1.0  0.66000  0.34000  0.01890  1.0000
  Ag  Ag2       1.0  0.84000  0.16000  0.48100  1.0000
  Ag  Ag3       1.0  0.16000  0.84000  0.51900  1.0000
  Ag  Ag4       1.0  0.34000  0.66000  0.98100  1.0000
  Br  Br1       1.0  0.25000  0.07230  0.25000  1.0000
  Br  Br2       1.0  0.92800  0.42800  0.25000  1.0000
  Br  Br3       1.0  0.57200  0.75000  0.25000  1.0000
  Br  Br4       1.0  0.42800  0.25000  0.75000  1.0000
  Br  Br5       1.0  0.07230  0.57200  0.75000  1.0000
  Br  Br6       1.0  0.75000  0.92800  0.75000  1.0000
