data_image0
_chemical_formula_structural       O4Ru6
_chemical_formula_sum              "O4 Ru6"
_cell_length_a       6.11416
_cell_length_b       6.11417
_cell_length_c       5.12004
_cell_angle_alpha    126.661
_cell_angle_beta     53.3388
_cell_angle_gamma    120

_space_group_name_H-M_alt    "P 1"
_space_group_IT_number       1

loop_
  _space_group_symop_operation_xyz
  'x, y, z'

loop_
  _atom_site_type_symbol
  _atom_site_label
  _atom_site_symmetry_multiplicity
  _atom_site_fract_x
  _atom_site_fract_y
  _atom_site_fract_z
  _atom_site_occupancy
  O   O1        1.0  0.63200  0.36800  0.10300  1.0000
  O   O2        1.0  0.86800  0.13200  0.39700  1.0000
  O   O3        1.0  0.13200  0.86800  0.60300  1.0000
  O   O4        1.0  0.36800  0.63200  0.89700  1.0000
  Ru  Ru1       1.0  0.25000  0.14500  0.25000  1.0000
  Ru  Ru2       1.0  0.64500  0.75000  0.25000  1.0000
  Ru  Ru3       1.0  0.85500  0.35500  0.25000  1.0000
  Ru  Ru4       1.0  0.14500  0.64500  0.75000  1.0000
  Ru  Ru5       1.0  0.35500  0.25000  0.75000  1.0000
  Ru  Ru6       1.0  0.75000  0.85500  0.75000  1.0000
