data_image0
_chemical_formula_structural       Be4Cl6
_chemical_formula_sum              "Be4 Cl6"
_cell_length_a       5.95754
_cell_length_b       5.95754
_cell_length_c       7.30881
_cell_angle_alpha    114.052
_cell_angle_beta     65.9484
_cell_angle_gamma    120

_space_group_name_H-M_alt    "P 1"
_space_group_IT_number       1

loop_
  _space_group_symop_operation_xyz
  'x, y, z'

loop_
  _atom_site_type_symbol
  _atom_site_label
  _atom_site_symmetry_multiplicity
  _atom_site_fract_x
  _atom_site_fract_y
  _atom_site_fract_z
  _atom_site_occupancy
  Be  Be1       1.0  0.94100  0.05870  0.17600  1.0000
  Be  Be2       1.0  0.55900  0.44100  0.32400  1.0000
  Be  Be3       1.0  0.44100  0.55900  0.67600  1.0000
  Be  Be4       1.0  0.05870  0.94100  0.82400  1.0000
  Cl  Cl1       1.0  0.25000  0.09480  0.25000  1.0000
  Cl  Cl2       1.0  0.90500  0.40500  0.25000  1.0000
  Cl  Cl3       1.0  0.59500  0.75000  0.25000  1.0000
  Cl  Cl4       1.0  0.40500  0.25000  0.75000  1.0000
  Cl  Cl5       1.0  0.09480  0.59500  0.75000  1.0000
  Cl  Cl6       1.0  0.75000  0.90500  0.75000  1.0000
