data_image0
_chemical_formula_structural       Mg4Na2O20V6
_chemical_formula_sum              "Mg4 Na2 O20 V6"
_cell_length_a       6.70701
_cell_length_b       6.73771
_cell_length_c       9.56508
_cell_angle_alpha    104.507
_cell_angle_beta     100.665
_cell_angle_gamma    101.859

_space_group_name_H-M_alt    "P 1"
_space_group_IT_number       1

loop_
  _space_group_symop_operation_xyz
  'x, y, z'

loop_
  _atom_site_type_symbol
  _atom_site_label
  _atom_site_symmetry_multiplicity
  _atom_site_fract_x
  _atom_site_fract_y
  _atom_site_fract_z
  _atom_site_occupancy
  Mg  Mg1       1.0  0.20900  0.18400  0.01850  1.0000
  Mg  Mg2       1.0  0.24500  0.56900  0.29700  1.0000
  Mg  Mg3       1.0  0.75500  0.43100  0.70300  1.0000
  Mg  Mg4       1.0  0.79100  0.81600  0.98100  1.0000
  Na  Na1       1.0  0.64100  0.02250  0.36400  1.0000
  Na  Na2       1.0  0.35900  0.97700  0.63600  1.0000
  O   O1        1.0  0.12800  0.87200  0.01860  1.0000
  O   O2        1.0  0.52000  0.23600  0.04240  1.0000
  O   O3        1.0  0.21400  0.50100  0.06750  1.0000
  O   O4        1.0  0.86500  0.90800  0.20700  1.0000
  O   O5        1.0  0.91100  0.47700  0.24400  1.0000
  O   O6        1.0  0.23300  0.24600  0.24400  1.0000
  O   O7        1.0  0.55800  0.63900  0.31800  1.0000
  O   O8        1.0  0.27700  0.89200  0.34800  1.0000
  O   O9        1.0  0.71600  0.39300  0.47600  1.0000
  O   O10       1.0  0.06090  0.19200  0.47900  1.0000
  O   O11       1.0  0.93900  0.80800  0.52100  1.0000
  O   O12       1.0  0.28400  0.60700  0.52400  1.0000
  O   O13       1.0  0.72300  0.10800  0.65200  1.0000
  O   O14       1.0  0.44200  0.36100  0.68200  1.0000
  O   O15       1.0  0.76700  0.75400  0.75600  1.0000
  O   O16       1.0  0.08940  0.52300  0.75600  1.0000
  O   O17       1.0  0.13500  0.09210  0.79300  1.0000
  O   O18       1.0  0.78600  0.49900  0.93300  1.0000
  O   O19       1.0  0.48000  0.76400  0.95800  1.0000
  O   O20       1.0  0.87200  0.12800  0.98100  1.0000
  V   V1        1.0  0.77000  0.33600  0.04620  1.0000
  V   V2        1.0  0.11300  0.04610  0.30700  1.0000
  V   V3        1.0  0.77300  0.57300  0.38500  1.0000
  V   V4        1.0  0.22700  0.42700  0.61500  1.0000
  V   V5        1.0  0.88700  0.95400  0.69300  1.0000
  V   V6        1.0  0.23000  0.66400  0.95400  1.0000
