data_image0
_chemical_formula_structural       Cl4Mn6
_chemical_formula_sum              "Cl4 Mn6"
_cell_length_a       5.62668
_cell_length_b       5.62668
_cell_length_c       6.95807
_cell_angle_alpha    113.849
_cell_angle_beta     66.151
_cell_angle_gamma    120

_space_group_name_H-M_alt    "P 1"
_space_group_IT_number       1

loop_
  _space_group_symop_operation_xyz
  'x, y, z'

loop_
  _atom_site_type_symbol
  _atom_site_label
  _atom_site_symmetry_multiplicity
  _atom_site_fract_x
  _atom_site_fract_y
  _atom_site_fract_z
  _atom_site_occupancy
  Cl  Cl1       1.0  0.66900  0.33100  0.99200  1.0000
  Cl  Cl2       1.0  0.33100  0.66900  0.00831  1.0000
  Cl  Cl3       1.0  0.16900  0.83100  0.49200  1.0000
  Cl  Cl4       1.0  0.83100  0.16900  0.50800  1.0000
  Mn  Mn1       1.0  0.25000  0.14100  0.25000  1.0000
  Mn  Mn2       1.0  0.64100  0.75000  0.25000  1.0000
  Mn  Mn3       1.0  0.85900  0.35900  0.25000  1.0000
  Mn  Mn4       1.0  0.14100  0.64100  0.75000  1.0000
  Mn  Mn5       1.0  0.35900  0.25000  0.75000  1.0000
  Mn  Mn6       1.0  0.75000  0.85900  0.75000  1.0000
