data_image0
_chemical_formula_structural       S4Zn6
_chemical_formula_sum              "S4 Zn6"
_cell_length_a       6.43484
_cell_length_b       6.43484
_cell_length_c       6.6598
_cell_angle_alpha    118.889
_cell_angle_beta     61.1113
_cell_angle_gamma    120

_space_group_name_H-M_alt    "P 1"
_space_group_IT_number       1

loop_
  _space_group_symop_operation_xyz
  'x, y, z'

loop_
  _atom_site_type_symbol
  _atom_site_label
  _atom_site_symmetry_multiplicity
  _atom_site_fract_x
  _atom_site_fract_y
  _atom_site_fract_z
  _atom_site_occupancy
  S   S1        1.0  0.64100  0.35900  0.07720  1.0000
  S   S2        1.0  0.85900  0.14100  0.42300  1.0000
  S   S3        1.0  0.14100  0.85900  0.57700  1.0000
  S   S4        1.0  0.35900  0.64100  0.92300  1.0000
  Zn  Zn1       1.0  0.54500  0.75000  0.25000  1.0000
  Zn  Zn2       1.0  0.95500  0.45500  0.25000  1.0000
  Zn  Zn3       1.0  0.25000  0.04540  0.25000  1.0000
  Zn  Zn4       1.0  0.75000  0.95500  0.75000  1.0000
  Zn  Zn5       1.0  0.04540  0.54500  0.75000  1.0000
  Zn  Zn6       1.0  0.45500  0.25000  0.75000  1.0000
