data_image0
_chemical_formula_structural       B4Cl6
_chemical_formula_sum              "B4 Cl6"
_cell_length_a       5.97978
_cell_length_b       5.97978
_cell_length_c       7.42389
_cell_angle_alpha    113.75
_cell_angle_beta     66.2505
_cell_angle_gamma    120

_space_group_name_H-M_alt    "P 1"
_space_group_IT_number       1

loop_
  _space_group_symop_operation_xyz
  'x, y, z'

loop_
  _atom_site_type_symbol
  _atom_site_label
  _atom_site_symmetry_multiplicity
  _atom_site_fract_x
  _atom_site_fract_y
  _atom_site_fract_z
  _atom_site_occupancy
  B   B1        1.0  0.62400  0.37600  0.12700  1.0000
  B   B2        1.0  0.87600  0.12400  0.37300  1.0000
  B   B3        1.0  0.12400  0.87600  0.62700  1.0000
  B   B4        1.0  0.37600  0.62400  0.87300  1.0000
  Cl  Cl1       1.0  0.25000  0.13900  0.25000  1.0000
  Cl  Cl2       1.0  0.63900  0.75000  0.25000  1.0000
  Cl  Cl3       1.0  0.86100  0.36100  0.25000  1.0000
  Cl  Cl4       1.0  0.13900  0.63900  0.75000  1.0000
  Cl  Cl5       1.0  0.36100  0.25000  0.75000  1.0000
  Cl  Cl6       1.0  0.75000  0.86100  0.75000  1.0000
