data_image0
_chemical_formula_structural       Br4Ir6
_chemical_formula_sum              "Br4 Ir6"
_cell_length_a       6.29614
_cell_length_b       6.29614
_cell_length_c       7.11083
_cell_angle_alpha    116.277
_cell_angle_beta     63.7228
_cell_angle_gamma    120

_space_group_name_H-M_alt    "P 1"
_space_group_IT_number       1

loop_
  _space_group_symop_operation_xyz
  'x, y, z'

loop_
  _atom_site_type_symbol
  _atom_site_label
  _atom_site_symmetry_multiplicity
  _atom_site_fract_x
  _atom_site_fract_y
  _atom_site_fract_z
  _atom_site_occupancy
  Br  Br1       1.0  0.91700  0.08260  0.24800  1.0000
  Br  Br2       1.0  0.58300  0.41700  0.25200  1.0000
  Br  Br3       1.0  0.41700  0.58300  0.74800  1.0000
  Br  Br4       1.0  0.08260  0.91700  0.75200  1.0000
  Ir  Ir1       1.0  0.25000  0.97800  0.25000  1.0000
  Ir  Ir2       1.0  0.02160  0.52200  0.25000  1.0000
  Ir  Ir3       1.0  0.47800  0.75000  0.25000  1.0000
  Ir  Ir4       1.0  0.75000  0.02160  0.75000  1.0000
  Ir  Ir5       1.0  0.52200  0.25000  0.75000  1.0000
  Ir  Ir6       1.0  0.97800  0.47800  0.75000  1.0000
