data_image0
_chemical_formula_structural       Ag4S6
_chemical_formula_sum              "Ag4 S6"
_cell_length_a       6.45737
_cell_length_b       6.45737
_cell_length_c       6.77538
_cell_angle_alpha    118.459
_cell_angle_beta     61.5409
_cell_angle_gamma    120

_space_group_name_H-M_alt    "P 1"
_space_group_IT_number       1

loop_
  _space_group_symop_operation_xyz
  'x, y, z'

loop_
  _atom_site_type_symbol
  _atom_site_label
  _atom_site_symmetry_multiplicity
  _atom_site_fract_x
  _atom_site_fract_y
  _atom_site_fract_z
  _atom_site_occupancy
  Ag  Ag1       1.0  0.65000  0.35000  0.05070  1.0000
  Ag  Ag2       1.0  0.85000  0.15000  0.44900  1.0000
  Ag  Ag3       1.0  0.15000  0.85000  0.55100  1.0000
  Ag  Ag4       1.0  0.35000  0.65000  0.94900  1.0000
  S   S1        1.0  0.55100  0.75000  0.25000  1.0000
  S   S2        1.0  0.94900  0.44900  0.25000  1.0000
  S   S3        1.0  0.25000  0.05070  0.25000  1.0000
  S   S4        1.0  0.75000  0.94900  0.75000  1.0000
  S   S5        1.0  0.05070  0.55100  0.75000  1.0000
  S   S6        1.0  0.44900  0.25000  0.75000  1.0000
