data_image0
_chemical_formula_structural       Cl4Pt6
_chemical_formula_sum              "Cl4 Pt6"
_cell_length_a       6.16092
_cell_length_b       6.16092
_cell_length_c       7.2938
_cell_angle_alpha    114.982
_cell_angle_beta     65.0176
_cell_angle_gamma    120

_space_group_name_H-M_alt    "P 1"
_space_group_IT_number       1

loop_
  _space_group_symop_operation_xyz
  'x, y, z'

loop_
  _atom_site_type_symbol
  _atom_site_label
  _atom_site_symmetry_multiplicity
  _atom_site_fract_x
  _atom_site_fract_y
  _atom_site_fract_z
  _atom_site_occupancy
  Cl  Cl1       1.0  0.91800  0.08170  0.24500  1.0000
  Cl  Cl2       1.0  0.58200  0.41800  0.25500  1.0000
  Cl  Cl3       1.0  0.41800  0.58200  0.74500  1.0000
  Cl  Cl4       1.0  0.08170  0.91800  0.75500  1.0000
  Pt  Pt1       1.0  0.25000  0.98600  0.25000  1.0000
  Pt  Pt2       1.0  0.01410  0.51400  0.25000  1.0000
  Pt  Pt3       1.0  0.48600  0.75000  0.25000  1.0000
  Pt  Pt4       1.0  0.75000  0.01410  0.75000  1.0000
  Pt  Pt5       1.0  0.51400  0.25000  0.75000  1.0000
  Pt  Pt6       1.0  0.98600  0.48600  0.75000  1.0000
