data_image0
_chemical_formula_structural       Cu4O4Pb2
_chemical_formula_sum              "Cu4 O4 Pb2"
_cell_length_a       5.82183
_cell_length_b       5.82183
_cell_length_c       6.03901
_cell_angle_alpha    118.783
_cell_angle_beta     118.783
_cell_angle_gamma    90.2125

_space_group_name_H-M_alt    "P 1"
_space_group_IT_number       1

loop_
  _space_group_symop_operation_xyz
  'x, y, z'

loop_
  _atom_site_type_symbol
  _atom_site_label
  _atom_site_symmetry_multiplicity
  _atom_site_fract_x
  _atom_site_fract_y
  _atom_site_fract_z
  _atom_site_occupancy
  Cu  Cu1       1.0  1.00000  0.50000  0.00000  1.0000
  Cu  Cu2       1.0  0.00000  0.00000  0.00000  1.0000
  Cu  Cu3       1.0  0.50000  0.00000  0.50000  1.0000
  Cu  Cu4       1.0  0.00000  0.00000  0.50000  1.0000
  O   O1        1.0  0.99100  0.35400  0.21000  1.0000
  O   O2        1.0  0.64600  0.00872  0.29000  1.0000
  O   O3        1.0  0.35400  0.99100  0.71000  1.0000
  O   O4        1.0  0.00872  0.64600  0.79000  1.0000
  Pb  Pb1       1.0  0.61900  0.38100  0.25000  1.0000
  Pb  Pb2       1.0  0.38100  0.61900  0.75000  1.0000
