data_image0
_chemical_formula_structural       Ge6Nb3
_chemical_formula_sum              "Ge6 Nb3"
_cell_length_a       5.005
_cell_length_b       5.005
_cell_length_c       6.824
_cell_angle_alpha    90
_cell_angle_beta     90
_cell_angle_gamma    120

_space_group_name_H-M_alt    "P 1"
_space_group_IT_number       1

loop_
  _space_group_symop_operation_xyz
  'x, y, z'

loop_
  _atom_site_type_symbol
  _atom_site_label
  _atom_site_symmetry_multiplicity
  _atom_site_fract_x
  _atom_site_fract_y
  _atom_site_fract_z
  _atom_site_occupancy
  Ge  Ge1       1.0  0.32800  0.16400  0.16700  1.0000
  Ge  Ge2       1.0  0.67200  0.83600  0.16700  1.0000
  Ge  Ge3       1.0  0.16400  0.32800  0.50000  1.0000
  Ge  Ge4       1.0  0.83600  0.67200  0.50000  1.0000
  Ge  Ge5       1.0  0.83600  0.16400  0.83300  1.0000
  Ge  Ge6       1.0  0.16400  0.83600  0.83300  1.0000
  Nb  Nb1       1.0  0.00000  0.50000  0.16700  1.0000
  Nb  Nb2       1.0  0.50000  0.00000  0.50000  1.0000
  Nb  Nb3       1.0  0.50000  0.50000  0.83300  1.0000
