data_image0
_chemical_formula_structural       Ac4Br6
_chemical_formula_sum              "Ac4 Br6"
_cell_length_a       7.42092
_cell_length_b       7.42092
_cell_length_c       8.92917
_cell_angle_alpha    114.554
_cell_angle_beta     65.4465
_cell_angle_gamma    120

_space_group_name_H-M_alt    "P 1"
_space_group_IT_number       1

loop_
  _space_group_symop_operation_xyz
  'x, y, z'

loop_
  _atom_site_type_symbol
  _atom_site_label
  _atom_site_symmetry_multiplicity
  _atom_site_fract_x
  _atom_site_fract_y
  _atom_site_fract_z
  _atom_site_occupancy
  Ac  Ac1       1.0  0.33400  0.66600  0.99900  1.0000
  Ac  Ac2       1.0  0.66600  0.33400  0.00106  1.0000
  Ac  Ac3       1.0  0.83400  0.16600  0.49900  1.0000
  Ac  Ac4       1.0  0.16600  0.83400  0.50100  1.0000
  Br  Br1       1.0  0.25000  0.08550  0.25000  1.0000
  Br  Br2       1.0  0.91400  0.41400  0.25000  1.0000
  Br  Br3       1.0  0.58600  0.75000  0.25000  1.0000
  Br  Br4       1.0  0.41400  0.25000  0.75000  1.0000
  Br  Br5       1.0  0.08550  0.58600  0.75000  1.0000
  Br  Br6       1.0  0.75000  0.91400  0.75000  1.0000
