data_image0
_chemical_formula_structural       S4Si6
_chemical_formula_sum              "S4 Si6"
_cell_length_a       6.45194
_cell_length_b       6.45194
_cell_length_c       7.65224
_cell_angle_alpha    114.934
_cell_angle_beta     65.0661
_cell_angle_gamma    120

_space_group_name_H-M_alt    "P 1"
_space_group_IT_number       1

loop_
  _space_group_symop_operation_xyz
  'x, y, z'

loop_
  _atom_site_type_symbol
  _atom_site_label
  _atom_site_symmetry_multiplicity
  _atom_site_fract_x
  _atom_site_fract_y
  _atom_site_fract_z
  _atom_site_occupancy
  S   S1        1.0  0.33200  0.66800  0.00332  1.0000
  S   S2        1.0  0.16800  0.83200  0.49700  1.0000
  S   S3        1.0  0.83200  0.16800  0.50300  1.0000
  S   S4        1.0  0.66800  0.33200  0.99700  1.0000
  Si  Si1       1.0  0.25000  0.00471  0.25000  1.0000
  Si  Si2       1.0  0.50500  0.75000  0.25000  1.0000
  Si  Si3       1.0  0.99500  0.49500  0.25000  1.0000
  Si  Si4       1.0  0.00471  0.50500  0.75000  1.0000
  Si  Si5       1.0  0.49500  0.25000  0.75000  1.0000
  Si  Si6       1.0  0.75000  0.99500  0.75000  1.0000
