data_image0
_chemical_formula_structural       O4Zn6
_chemical_formula_sum              "O4 Zn6"
_cell_length_a       5.267
_cell_length_b       5.267
_cell_length_c       5.9142
_cell_angle_alpha    116.442
_cell_angle_beta     63.5585
_cell_angle_gamma    120

_space_group_name_H-M_alt    "P 1"
_space_group_IT_number       1

loop_
  _space_group_symop_operation_xyz
  'x, y, z'

loop_
  _atom_site_type_symbol
  _atom_site_label
  _atom_site_symmetry_multiplicity
  _atom_site_fract_x
  _atom_site_fract_y
  _atom_site_fract_z
  _atom_site_occupancy
  O   O1        1.0  0.66200  0.33800  0.01360  1.0000
  O   O2        1.0  0.83800  0.16200  0.48600  1.0000
  O   O3        1.0  0.16200  0.83800  0.51400  1.0000
  O   O4        1.0  0.33800  0.66200  0.98600  1.0000
  Zn  Zn1       1.0  0.25000  0.08960  0.25000  1.0000
  Zn  Zn2       1.0  0.91000  0.41000  0.25000  1.0000
  Zn  Zn3       1.0  0.59000  0.75000  0.25000  1.0000
  Zn  Zn4       1.0  0.41000  0.25000  0.75000  1.0000
  Zn  Zn5       1.0  0.08960  0.59000  0.75000  1.0000
  Zn  Zn6       1.0  0.75000  0.91000  0.75000  1.0000
