data_image0
_chemical_formula_structural       Cl4Cu6
_chemical_formula_sum              "Cl4 Cu6"
_cell_length_a       5.97874
_cell_length_b       5.97874
_cell_length_c       6.74438
_cell_angle_alpha    116.311
_cell_angle_beta     63.6893
_cell_angle_gamma    120

_space_group_name_H-M_alt    "P 1"
_space_group_IT_number       1

loop_
  _space_group_symop_operation_xyz
  'x, y, z'

loop_
  _atom_site_type_symbol
  _atom_site_label
  _atom_site_symmetry_multiplicity
  _atom_site_fract_x
  _atom_site_fract_y
  _atom_site_fract_z
  _atom_site_occupancy
  Cl  Cl1       1.0  0.59600  0.40400  0.21200  1.0000
  Cl  Cl2       1.0  0.90400  0.09610  0.28800  1.0000
  Cl  Cl3       1.0  0.09610  0.90400  0.71200  1.0000
  Cl  Cl4       1.0  0.40400  0.59600  0.78800  1.0000
  Cu  Cu1       1.0  0.25000  0.98700  0.25000  1.0000
  Cu  Cu2       1.0  0.01320  0.51300  0.25000  1.0000
  Cu  Cu3       1.0  0.48700  0.75000  0.25000  1.0000
  Cu  Cu4       1.0  0.75000  0.01320  0.75000  1.0000
  Cu  Cu5       1.0  0.51300  0.25000  0.75000  1.0000
  Cu  Cu6       1.0  0.98700  0.48700  0.75000  1.0000
