data_image0
_chemical_formula_structural       Au4F6
_chemical_formula_sum              "Au4 F6"
_cell_length_a       5.83441
_cell_length_b       5.83441
_cell_length_c       6.2853
_cell_angle_alpha    117.654
_cell_angle_beta     62.346
_cell_angle_gamma    120

_space_group_name_H-M_alt    "P 1"
_space_group_IT_number       1

loop_
  _space_group_symop_operation_xyz
  'x, y, z'

loop_
  _atom_site_type_symbol
  _atom_site_label
  _atom_site_symmetry_multiplicity
  _atom_site_fract_x
  _atom_site_fract_y
  _atom_site_fract_z
  _atom_site_occupancy
  Au  Au1       1.0  0.66100  0.33900  0.01550  1.0000
  Au  Au2       1.0  0.83900  0.16100  0.48400  1.0000
  Au  Au3       1.0  0.16100  0.83900  0.51600  1.0000
  Au  Au4       1.0  0.33900  0.66100  0.98400  1.0000
  F   F1        1.0  0.90500  0.40500  0.25000  1.0000
  F   F2        1.0  0.59500  0.75000  0.25000  1.0000
  F   F3        1.0  0.25000  0.09470  0.25000  1.0000
  F   F4        1.0  0.75000  0.90500  0.75000  1.0000
  F   F5        1.0  0.40500  0.25000  0.75000  1.0000
  F   F6        1.0  0.09470  0.59500  0.75000  1.0000
