data_image0
_chemical_formula_structural       Ge4I6
_chemical_formula_sum              "Ge4 I6"
_cell_length_a       7.47204
_cell_length_b       7.47204
_cell_length_c       8.56608
_cell_angle_alpha    115.858
_cell_angle_beta     64.1421
_cell_angle_gamma    120

_space_group_name_H-M_alt    "P 1"
_space_group_IT_number       1

loop_
  _space_group_symop_operation_xyz
  'x, y, z'

loop_
  _atom_site_type_symbol
  _atom_site_label
  _atom_site_symmetry_multiplicity
  _atom_site_fract_x
  _atom_site_fract_y
  _atom_site_fract_z
  _atom_site_occupancy
  Ge  Ge1       1.0  0.65900  0.34100  0.02240  1.0000
  Ge  Ge2       1.0  0.84100  0.15900  0.47800  1.0000
  Ge  Ge3       1.0  0.15900  0.84100  0.52200  1.0000
  Ge  Ge4       1.0  0.34100  0.65900  0.97800  1.0000
  I   I1        1.0  0.25000  0.07930  0.25000  1.0000
  I   I2        1.0  0.92100  0.42100  0.25000  1.0000
  I   I3        1.0  0.57900  0.75000  0.25000  1.0000
  I   I4        1.0  0.42100  0.25000  0.75000  1.0000
  I   I5        1.0  0.07930  0.57900  0.75000  1.0000
  I   I6        1.0  0.75000  0.92100  0.75000  1.0000
