data_image0
_chemical_formula_structural       Br4Na6
_chemical_formula_sum              "Br4 Na6"
_cell_length_a       7.41501
_cell_length_b       7.41501
_cell_length_c       8.11661
_cell_angle_alpha    117.18
_cell_angle_beta     62.8205
_cell_angle_gamma    120

_space_group_name_H-M_alt    "P 1"
_space_group_IT_number       1

loop_
  _space_group_symop_operation_xyz
  'x, y, z'

loop_
  _atom_site_type_symbol
  _atom_site_label
  _atom_site_symmetry_multiplicity
  _atom_site_fract_x
  _atom_site_fract_y
  _atom_site_fract_z
  _atom_site_occupancy
  Br  Br1       1.0  0.65400  0.34600  0.03840  1.0000
  Br  Br2       1.0  0.84600  0.15400  0.46200  1.0000
  Br  Br3       1.0  0.15400  0.84600  0.53800  1.0000
  Br  Br4       1.0  0.34600  0.65400  0.96200  1.0000
  Na  Na1       1.0  0.25000  0.05950  0.25000  1.0000
  Na  Na2       1.0  0.94000  0.44000  0.25000  1.0000
  Na  Na3       1.0  0.56000  0.75000  0.25000  1.0000
  Na  Na4       1.0  0.44000  0.25000  0.75000  1.0000
  Na  Na5       1.0  0.05950  0.56000  0.75000  1.0000
  Na  Na6       1.0  0.75000  0.94000  0.75000  1.0000
