data_image0
_chemical_formula_structural       Mo2O8Zr
_chemical_formula_sum              "Mo2 O8 Zr1"
_cell_length_a       5.89365
_cell_length_b       5.89356
_cell_length_c       5.75078
_cell_angle_alpha    90
_cell_angle_beta     89.9991
_cell_angle_gamma    120

_space_group_name_H-M_alt    "P 1"
_space_group_IT_number       1

loop_
  _space_group_symop_operation_xyz
  'x, y, z'

loop_
  _atom_site_type_symbol
  _atom_site_label
  _atom_site_symmetry_multiplicity
  _atom_site_fract_x
  _atom_site_fract_y
  _atom_site_fract_z
  _atom_site_occupancy
  Mo  Mo1       1.0  0.33300  0.66700  0.31000  1.0000
  Mo  Mo2       1.0  0.66700  0.33300  0.69000  1.0000
  O   O1        1.0  0.66700  0.83400  0.21000  1.0000
  O   O2        1.0  0.16600  0.33300  0.21000  1.0000
  O   O3        1.0  0.16600  0.83400  0.21000  1.0000
  O   O4        1.0  0.66700  0.33300  0.39000  1.0000
  O   O5        1.0  0.33300  0.66700  0.61000  1.0000
  O   O6        1.0  0.83400  0.16600  0.79000  1.0000
  O   O7        1.0  0.83400  0.66700  0.79000  1.0000
  O   O8        1.0  0.33300  0.16600  0.79000  1.0000
  Zr  Zr1       1.0  0.00000  0.00000  0.00000  1.0000
