data_image0
_chemical_formula_structural       Br4Pt6
_chemical_formula_sum              "Br4 Pt6"
_cell_length_a       6.41547
_cell_length_b       6.41548
_cell_length_c       7.06603
_cell_angle_alpha    116.998
_cell_angle_beta     63.0016
_cell_angle_gamma    120

_space_group_name_H-M_alt    "P 1"
_space_group_IT_number       1

loop_
  _space_group_symop_operation_xyz
  'x, y, z'

loop_
  _atom_site_type_symbol
  _atom_site_label
  _atom_site_symmetry_multiplicity
  _atom_site_fract_x
  _atom_site_fract_y
  _atom_site_fract_z
  _atom_site_occupancy
  Br  Br1       1.0  0.60100  0.39900  0.19800  1.0000
  Br  Br2       1.0  0.89900  0.10100  0.30200  1.0000
  Br  Br3       1.0  0.10100  0.89900  0.69800  1.0000
  Br  Br4       1.0  0.39900  0.60100  0.80200  1.0000
  Pt  Pt1       1.0  0.01860  0.51900  0.25000  1.0000
  Pt  Pt2       1.0  0.48100  0.75000  0.25000  1.0000
  Pt  Pt3       1.0  0.25000  0.98100  0.25000  1.0000
  Pt  Pt4       1.0  0.98100  0.48100  0.75000  1.0000
  Pt  Pt5       1.0  0.51900  0.25000  0.75000  1.0000
  Pt  Pt6       1.0  0.75000  0.01860  0.75000  1.0000
