data_image0
_chemical_formula_structural       Au4Cl6
_chemical_formula_sum              "Au4 Cl6"
_cell_length_a       6.72941
_cell_length_b       6.72941
_cell_length_c       7.16288
_cell_angle_alpha    118.018
_cell_angle_beta     61.9825
_cell_angle_gamma    120

_space_group_name_H-M_alt    "P 1"
_space_group_IT_number       1

loop_
  _space_group_symop_operation_xyz
  'x, y, z'

loop_
  _atom_site_type_symbol
  _atom_site_label
  _atom_site_symmetry_multiplicity
  _atom_site_fract_x
  _atom_site_fract_y
  _atom_site_fract_z
  _atom_site_occupancy
  Au  Au1       1.0  0.65700  0.34300  0.02920  1.0000
  Au  Au2       1.0  0.84300  0.15700  0.47100  1.0000
  Au  Au3       1.0  0.15700  0.84300  0.52900  1.0000
  Au  Au4       1.0  0.34300  0.65700  0.97100  1.0000
  Cl  Cl1       1.0  0.92800  0.42800  0.25000  1.0000
  Cl  Cl2       1.0  0.57200  0.75000  0.25000  1.0000
  Cl  Cl3       1.0  0.25000  0.07250  0.25000  1.0000
  Cl  Cl4       1.0  0.75000  0.92800  0.75000  1.0000
  Cl  Cl5       1.0  0.42800  0.25000  0.75000  1.0000
  Cl  Cl6       1.0  0.07250  0.57200  0.75000  1.0000
