data_image0
_chemical_formula_structural       Br4La6
_chemical_formula_sum              "Br4 La6"
_cell_length_a       7.48482
_cell_length_b       7.48482
_cell_length_c       8.09121
_cell_angle_alpha    117.55
_cell_angle_beta     62.4497
_cell_angle_gamma    120

_space_group_name_H-M_alt    "P 1"
_space_group_IT_number       1

loop_
  _space_group_symop_operation_xyz
  'x, y, z'

loop_
  _atom_site_type_symbol
  _atom_site_label
  _atom_site_symmetry_multiplicity
  _atom_site_fract_x
  _atom_site_fract_y
  _atom_site_fract_z
  _atom_site_occupancy
  Br  Br1       1.0  0.66500  0.33500  0.00417  1.0000
  Br  Br2       1.0  0.83500  0.16500  0.49600  1.0000
  Br  Br3       1.0  0.16500  0.83500  0.50400  1.0000
  Br  Br4       1.0  0.33500  0.66500  0.99600  1.0000
  La  La1       1.0  0.25000  0.08820  0.25000  1.0000
  La  La2       1.0  0.91200  0.41200  0.25000  1.0000
  La  La3       1.0  0.58800  0.75000  0.25000  1.0000
  La  La4       1.0  0.41200  0.25000  0.75000  1.0000
  La  La5       1.0  0.08820  0.58800  0.75000  1.0000
  La  La6       1.0  0.75000  0.91200  0.75000  1.0000
