data_image0
_chemical_formula_structural       I4Na6
_chemical_formula_sum              "I4 Na6"
_cell_length_a       7.93346
_cell_length_b       7.93346
_cell_length_c       8.57639
_cell_angle_alpha    117.55
_cell_angle_beta     62.4503
_cell_angle_gamma    120

_space_group_name_H-M_alt    "P 1"
_space_group_IT_number       1

loop_
  _space_group_symop_operation_xyz
  'x, y, z'

loop_
  _atom_site_type_symbol
  _atom_site_label
  _atom_site_symmetry_multiplicity
  _atom_site_fract_x
  _atom_site_fract_y
  _atom_site_fract_z
  _atom_site_occupancy
  I   I1        1.0  0.65100  0.34900  0.04750  1.0000
  I   I2        1.0  0.84900  0.15100  0.45200  1.0000
  I   I3        1.0  0.15100  0.84900  0.54800  1.0000
  I   I4        1.0  0.34900  0.65100  0.95200  1.0000
  Na  Na1       1.0  0.25000  0.05500  0.25000  1.0000
  Na  Na2       1.0  0.94500  0.44500  0.25000  1.0000
  Na  Na3       1.0  0.55500  0.75000  0.25000  1.0000
  Na  Na4       1.0  0.44500  0.25000  0.75000  1.0000
  Na  Na5       1.0  0.05500  0.55500  0.75000  1.0000
  Na  Na6       1.0  0.75000  0.94500  0.75000  1.0000
