data_image0
_chemical_formula_structural       Cl4O6
_chemical_formula_sum              "Cl4 O6"
_cell_length_a       6.16921
_cell_length_b       6.16921
_cell_length_c       6.25868
_cell_angle_alpha    119.528
_cell_angle_beta     60.4718
_cell_angle_gamma    120

_space_group_name_H-M_alt    "P 1"
_space_group_IT_number       1

loop_
  _space_group_symop_operation_xyz
  'x, y, z'

loop_
  _atom_site_type_symbol
  _atom_site_label
  _atom_site_symmetry_multiplicity
  _atom_site_fract_x
  _atom_site_fract_y
  _atom_site_fract_z
  _atom_site_occupancy
  Cl  Cl1       1.0  0.60200  0.39800  0.19400  1.0000
  Cl  Cl2       1.0  0.89800  0.10200  0.30600  1.0000
  Cl  Cl3       1.0  0.10200  0.89800  0.69400  1.0000
  Cl  Cl4       1.0  0.39800  0.60200  0.80600  1.0000
  O   O1        1.0  0.25000  0.20400  0.25000  1.0000
  O   O2        1.0  0.70400  0.75000  0.25000  1.0000
  O   O3        1.0  0.79600  0.29600  0.25000  1.0000
  O   O4        1.0  0.20400  0.70400  0.75000  1.0000
  O   O5        1.0  0.29600  0.25000  0.75000  1.0000
  O   O6        1.0  0.75000  0.79600  0.75000  1.0000
