data_image0
_chemical_formula_structural       Cl4H6
_chemical_formula_sum              "Cl4 H6"
_cell_length_a       5.90311
_cell_length_b       5.90311
_cell_length_c       6.63812
_cell_angle_alpha    116.4
_cell_angle_beta     63.5999
_cell_angle_gamma    120

_space_group_name_H-M_alt    "P 1"
_space_group_IT_number       1

loop_
  _space_group_symop_operation_xyz
  'x, y, z'

loop_
  _atom_site_type_symbol
  _atom_site_label
  _atom_site_symmetry_multiplicity
  _atom_site_fract_x
  _atom_site_fract_y
  _atom_site_fract_z
  _atom_site_occupancy
  Cl  Cl1       1.0  0.59600  0.40400  0.21300  1.0000
  Cl  Cl2       1.0  0.90400  0.09560  0.28700  1.0000
  Cl  Cl3       1.0  0.09560  0.90400  0.71300  1.0000
  Cl  Cl4       1.0  0.40400  0.59600  0.78700  1.0000
  H   H1        1.0  0.75800  0.75000  0.25000  1.0000
  H   H2        1.0  0.25000  0.25800  0.25000  1.0000
  H   H3        1.0  0.74200  0.24200  0.25000  1.0000
  H   H4        1.0  0.25800  0.75800  0.75000  1.0000
  H   H5        1.0  0.75000  0.74200  0.75000  1.0000
  H   H6        1.0  0.24200  0.25000  0.75000  1.0000
