data_image0
_chemical_formula_structural       Cl4Ir6
_chemical_formula_sum              "Cl4 Ir6"
_cell_length_a       6.0682
_cell_length_b       6.0682
_cell_length_c       7.00016
_cell_angle_alpha    115.686
_cell_angle_beta     64.3144
_cell_angle_gamma    120

_space_group_name_H-M_alt    "P 1"
_space_group_IT_number       1

loop_
  _space_group_symop_operation_xyz
  'x, y, z'

loop_
  _atom_site_type_symbol
  _atom_site_label
  _atom_site_symmetry_multiplicity
  _atom_site_fract_x
  _atom_site_fract_y
  _atom_site_fract_z
  _atom_site_occupancy
  Cl  Cl1       1.0  0.92300  0.07700  0.23100  1.0000
  Cl  Cl2       1.0  0.57700  0.42300  0.26900  1.0000
  Cl  Cl3       1.0  0.42300  0.57700  0.73100  1.0000
  Cl  Cl4       1.0  0.07700  0.92300  0.76900  1.0000
  Ir  Ir1       1.0  0.25000  0.98600  0.25000  1.0000
  Ir  Ir2       1.0  0.01410  0.51400  0.25000  1.0000
  Ir  Ir3       1.0  0.48600  0.75000  0.25000  1.0000
  Ir  Ir4       1.0  0.75000  0.01410  0.75000  1.0000
  Ir  Ir5       1.0  0.51400  0.25000  0.75000  1.0000
  Ir  Ir6       1.0  0.98600  0.48600  0.75000  1.0000
