data_image0
_chemical_formula_structural       Ag4Cl6
_chemical_formula_sum              "Ag4 Cl6"
_cell_length_a       6.68761
_cell_length_b       6.68761
_cell_length_c       7.20912
_cell_angle_alpha    117.635
_cell_angle_beta     62.3655
_cell_angle_gamma    120

_space_group_name_H-M_alt    "P 1"
_space_group_IT_number       1

loop_
  _space_group_symop_operation_xyz
  'x, y, z'

loop_
  _atom_site_type_symbol
  _atom_site_label
  _atom_site_symmetry_multiplicity
  _atom_site_fract_x
  _atom_site_fract_y
  _atom_site_fract_z
  _atom_site_occupancy
  Ag  Ag1       1.0  0.65700  0.34300  0.02880  1.0000
  Ag  Ag2       1.0  0.84300  0.15700  0.47100  1.0000
  Ag  Ag3       1.0  0.15700  0.84300  0.52900  1.0000
  Ag  Ag4       1.0  0.34300  0.65700  0.97100  1.0000
  Cl  Cl1       1.0  0.93200  0.43200  0.25000  1.0000
  Cl  Cl2       1.0  0.56800  0.75000  0.25000  1.0000
  Cl  Cl3       1.0  0.25000  0.06750  0.25000  1.0000
  Cl  Cl4       1.0  0.75000  0.93200  0.75000  1.0000
  Cl  Cl5       1.0  0.43200  0.25000  0.75000  1.0000
  Cl  Cl6       1.0  0.06750  0.56800  0.75000  1.0000
