data_image0
_chemical_formula_structural       I4Mn6
_chemical_formula_sum              "I4 Mn6"
_cell_length_a       7.06903
_cell_length_b       7.06903
_cell_length_c       6.70061
_cell_angle_alpha    121.836
_cell_angle_beta     58.1639
_cell_angle_gamma    120

_space_group_name_H-M_alt    "P 1"
_space_group_IT_number       1

loop_
  _space_group_symop_operation_xyz
  'x, y, z'

loop_
  _atom_site_type_symbol
  _atom_site_label
  _atom_site_symmetry_multiplicity
  _atom_site_fract_x
  _atom_site_fract_y
  _atom_site_fract_z
  _atom_site_occupancy
  I   I1        1.0  0.62000  0.38000  0.14100  1.0000
  I   I2        1.0  0.88000  0.12000  0.35900  1.0000
  I   I3        1.0  0.12000  0.88000  0.64100  1.0000
  I   I4        1.0  0.38000  0.62000  0.85900  1.0000
  Mn  Mn1       1.0  0.48000  0.75000  0.25000  1.0000
  Mn  Mn2       1.0  0.01960  0.52000  0.25000  1.0000
  Mn  Mn3       1.0  0.25000  0.98000  0.25000  1.0000
  Mn  Mn4       1.0  0.98000  0.48000  0.75000  1.0000
  Mn  Mn5       1.0  0.52000  0.25000  0.75000  1.0000
  Mn  Mn6       1.0  0.75000  0.01960  0.75000  1.0000
