data_image0
_chemical_formula_structural       CCs4O4
_chemical_formula_sum              "C1 Cs4 O4"
_cell_length_a       5.99184
_cell_length_b       5.99184
_cell_length_c       5.99184
_cell_angle_alpha    90
_cell_angle_beta     90
_cell_angle_gamma    90

_space_group_name_H-M_alt    "P 1"
_space_group_IT_number       1

loop_
  _space_group_symop_operation_xyz
  'x, y, z'

loop_
  _atom_site_type_symbol
  _atom_site_label
  _atom_site_symmetry_multiplicity
  _atom_site_fract_x
  _atom_site_fract_y
  _atom_site_fract_z
  _atom_site_occupancy
  C   C1        1.0  0.50000  0.50000  0.50000  1.0000
  Cs  Cs1       1.0  0.78300  0.21700  0.21700  1.0000
  Cs  Cs2       1.0  0.21700  0.78300  0.21700  1.0000
  Cs  Cs3       1.0  0.21700  0.21700  0.78300  1.0000
  Cs  Cs4       1.0  0.78300  0.78300  0.78300  1.0000
  O   O1        1.0  0.35900  0.35900  0.35900  1.0000
  O   O2        1.0  0.64100  0.64100  0.35900  1.0000
  O   O3        1.0  0.64100  0.35900  0.64100  1.0000
  O   O4        1.0  0.35900  0.64100  0.64100  1.0000
