data_image0
_chemical_formula_structural       Au4I6
_chemical_formula_sum              "Au4 I6"
_cell_length_a       7.40769
_cell_length_b       7.40769
_cell_length_c       8.01425
_cell_angle_alpha    117.526
_cell_angle_beta     62.4736
_cell_angle_gamma    120

_space_group_name_H-M_alt    "P 1"
_space_group_IT_number       1

loop_
  _space_group_symop_operation_xyz
  'x, y, z'

loop_
  _atom_site_type_symbol
  _atom_site_label
  _atom_site_symmetry_multiplicity
  _atom_site_fract_x
  _atom_site_fract_y
  _atom_site_fract_z
  _atom_site_occupancy
  Au  Au1       1.0  0.65600  0.34400  0.03070  1.0000
  Au  Au2       1.0  0.84400  0.15600  0.46900  1.0000
  Au  Au3       1.0  0.15600  0.84400  0.53100  1.0000
  Au  Au4       1.0  0.34400  0.65600  0.96900  1.0000
  I   I1        1.0  0.56700  0.75000  0.25000  1.0000
  I   I2        1.0  0.93300  0.43300  0.25000  1.0000
  I   I3        1.0  0.25000  0.06740  0.25000  1.0000
  I   I4        1.0  0.75000  0.93300  0.75000  1.0000
  I   I5        1.0  0.06740  0.56700  0.75000  1.0000
  I   I6        1.0  0.43300  0.25000  0.75000  1.0000
