data_image0
_chemical_formula_structural       Ba4Br6
_chemical_formula_sum              "Ba4 Br6"
_cell_length_a       8.2976
_cell_length_b       8.2976
_cell_length_c       8.7256
_cell_angle_alpha    118.39
_cell_angle_beta     61.6097
_cell_angle_gamma    120

_space_group_name_H-M_alt    "P 1"
_space_group_IT_number       1

loop_
  _space_group_symop_operation_xyz
  'x, y, z'

loop_
  _atom_site_type_symbol
  _atom_site_label
  _atom_site_symmetry_multiplicity
  _atom_site_fract_x
  _atom_site_fract_y
  _atom_site_fract_z
  _atom_site_occupancy
  Ba  Ba1       1.0  0.65000  0.35000  0.04890  1.0000
  Ba  Ba2       1.0  0.85000  0.15000  0.45100  1.0000
  Ba  Ba3       1.0  0.15000  0.85000  0.54900  1.0000
  Ba  Ba4       1.0  0.35000  0.65000  0.95100  1.0000
  Br  Br1       1.0  0.95000  0.45000  0.25000  1.0000
  Br  Br2       1.0  0.55000  0.75000  0.25000  1.0000
  Br  Br3       1.0  0.25000  0.05040  0.25000  1.0000
  Br  Br4       1.0  0.75000  0.95000  0.75000  1.0000
  Br  Br5       1.0  0.45000  0.25000  0.75000  1.0000
  Br  Br6       1.0  0.05040  0.55000  0.75000  1.0000
