data_image0
_chemical_formula_structural       Au4N6
_chemical_formula_sum              "Au4 N6"
_cell_length_a       5.45105
_cell_length_b       5.45105
_cell_length_c       5.69469
_cell_angle_alpha    118.595
_cell_angle_beta     61.4055
_cell_angle_gamma    120

_space_group_name_H-M_alt    "P 1"
_space_group_IT_number       1

loop_
  _space_group_symop_operation_xyz
  'x, y, z'

loop_
  _atom_site_type_symbol
  _atom_site_label
  _atom_site_symmetry_multiplicity
  _atom_site_fract_x
  _atom_site_fract_y
  _atom_site_fract_z
  _atom_site_occupancy
  Au  Au1       1.0  0.64700  0.35300  0.06040  1.0000
  Au  Au2       1.0  0.85300  0.14700  0.44000  1.0000
  Au  Au3       1.0  0.14700  0.85300  0.56000  1.0000
  Au  Au4       1.0  0.35300  0.64700  0.94000  1.0000
  N   N1        1.0  0.54400  0.75000  0.25000  1.0000
  N   N2        1.0  0.95600  0.45600  0.25000  1.0000
  N   N3        1.0  0.25000  0.04420  0.25000  1.0000
  N   N4        1.0  0.75000  0.95600  0.75000  1.0000
  N   N5        1.0  0.04420  0.54400  0.75000  1.0000
  N   N6        1.0  0.45600  0.25000  0.75000  1.0000
