data_image0
_chemical_formula_structural       Ag4N6
_chemical_formula_sum              "Ag4 N6"
_cell_length_a       5.42735
_cell_length_b       5.42735
_cell_length_c       5.68593
_cell_angle_alpha    118.507
_cell_angle_beta     61.4934
_cell_angle_gamma    120

_space_group_name_H-M_alt    "P 1"
_space_group_IT_number       1

loop_
  _space_group_symop_operation_xyz
  'x, y, z'

loop_
  _atom_site_type_symbol
  _atom_site_label
  _atom_site_symmetry_multiplicity
  _atom_site_fract_x
  _atom_site_fract_y
  _atom_site_fract_z
  _atom_site_occupancy
  Ag  Ag1       1.0  0.64700  0.35300  0.06040  1.0000
  Ag  Ag2       1.0  0.85300  0.14700  0.44000  1.0000
  Ag  Ag3       1.0  0.14700  0.85300  0.56000  1.0000
  Ag  Ag4       1.0  0.35300  0.64700  0.94000  1.0000
  N   N1        1.0  0.95600  0.45600  0.25000  1.0000
  N   N2        1.0  0.54400  0.75000  0.25000  1.0000
  N   N3        1.0  0.25000  0.04410  0.25000  1.0000
  N   N4        1.0  0.75000  0.95600  0.75000  1.0000
  N   N5        1.0  0.45600  0.25000  0.75000  1.0000
  N   N6        1.0  0.04410  0.54400  0.75000  1.0000
