data_image0
_chemical_formula_structural       Cl4U6
_chemical_formula_sum              "Cl4 U6"
_cell_length_a       6.92798
_cell_length_b       6.92798
_cell_length_c       6.92911
_cell_angle_alpha    119.995
_cell_angle_beta     60.0054
_cell_angle_gamma    120

_space_group_name_H-M_alt    "P 1"
_space_group_IT_number       1

loop_
  _space_group_symop_operation_xyz
  'x, y, z'

loop_
  _atom_site_type_symbol
  _atom_site_label
  _atom_site_symmetry_multiplicity
  _atom_site_fract_x
  _atom_site_fract_y
  _atom_site_fract_z
  _atom_site_occupancy
  Cl  Cl1       1.0  0.66300  0.33700  0.01190  1.0000
  Cl  Cl2       1.0  0.83700  0.16300  0.48800  1.0000
  Cl  Cl3       1.0  0.16300  0.83700  0.51200  1.0000
  Cl  Cl4       1.0  0.33700  0.66300  0.98800  1.0000
  U   U1        1.0  0.59000  0.75000  0.25000  1.0000
  U   U2        1.0  0.91000  0.41000  0.25000  1.0000
  U   U3        1.0  0.25000  0.08980  0.25000  1.0000
  U   U4        1.0  0.75000  0.91000  0.75000  1.0000
  U   U5        1.0  0.08980  0.59000  0.75000  1.0000
  U   U6        1.0  0.41000  0.25000  0.75000  1.0000
