data_image0
_chemical_formula_structural       Cl4Pb6
_chemical_formula_sum              "Cl4 Pb6"
_cell_length_a       6.7965
_cell_length_b       6.7965
_cell_length_c       8.48012
_cell_angle_alpha    113.624
_cell_angle_beta     66.3761
_cell_angle_gamma    120

_space_group_name_H-M_alt    "P 1"
_space_group_IT_number       1

loop_
  _space_group_symop_operation_xyz
  'x, y, z'

loop_
  _atom_site_type_symbol
  _atom_site_label
  _atom_site_symmetry_multiplicity
  _atom_site_fract_x
  _atom_site_fract_y
  _atom_site_fract_z
  _atom_site_occupancy
  Cl  Cl1       1.0  0.32000  0.68000  0.03930  1.0000
  Cl  Cl2       1.0  0.18000  0.82000  0.46100  1.0000
  Cl  Cl3       1.0  0.82000  0.18000  0.53900  1.0000
  Cl  Cl4       1.0  0.68000  0.32000  0.96100  1.0000
  Pb  Pb1       1.0  0.25000  0.23400  0.25000  1.0000
  Pb  Pb2       1.0  0.76600  0.26600  0.25000  1.0000
  Pb  Pb3       1.0  0.73400  0.75000  0.25000  1.0000
  Pb  Pb4       1.0  0.26600  0.25000  0.75000  1.0000
  Pb  Pb5       1.0  0.23400  0.73400  0.75000  1.0000
  Pb  Pb6       1.0  0.75000  0.76600  0.75000  1.0000
