data_image0
_chemical_formula_structural       Be4I6
_chemical_formula_sum              "Be4 I6"
_cell_length_a       7.36135
_cell_length_b       7.36135
_cell_length_c       7.78806
_cell_angle_alpha    118.204
_cell_angle_beta     61.7965
_cell_angle_gamma    120

_space_group_name_H-M_alt    "P 1"
_space_group_IT_number       1

loop_
  _space_group_symop_operation_xyz
  'x, y, z'

loop_
  _atom_site_type_symbol
  _atom_site_label
  _atom_site_symmetry_multiplicity
  _atom_site_fract_x
  _atom_site_fract_y
  _atom_site_fract_z
  _atom_site_occupancy
  Be  Be1       1.0  0.93300  0.06690  0.20100  1.0000
  Be  Be2       1.0  0.56700  0.43300  0.29900  1.0000
  Be  Be3       1.0  0.43300  0.56700  0.70100  1.0000
  Be  Be4       1.0  0.06690  0.93300  0.79900  1.0000
  I   I1        1.0  0.60100  0.75000  0.25000  1.0000
  I   I2        1.0  0.25000  0.10100  0.25000  1.0000
  I   I3        1.0  0.89900  0.39900  0.25000  1.0000
  I   I4        1.0  0.10100  0.60100  0.75000  1.0000
  I   I5        1.0  0.75000  0.89900  0.75000  1.0000
  I   I6        1.0  0.39900  0.25000  0.75000  1.0000
