data_image0
_chemical_formula_structural       Br4Li6
_chemical_formula_sum              "Br4 Li6"
_cell_length_a       6.60297
_cell_length_b       6.60297
_cell_length_c       7.33055
_cell_angle_alpha    116.768
_cell_angle_beta     63.2324
_cell_angle_gamma    120

_space_group_name_H-M_alt    "P 1"
_space_group_IT_number       1

loop_
  _space_group_symop_operation_xyz
  'x, y, z'

loop_
  _atom_site_type_symbol
  _atom_site_label
  _atom_site_symmetry_multiplicity
  _atom_site_fract_x
  _atom_site_fract_y
  _atom_site_fract_z
  _atom_site_occupancy
  Br  Br1       1.0  0.65300  0.34700  0.04220  1.0000
  Br  Br2       1.0  0.84700  0.15300  0.45800  1.0000
  Br  Br3       1.0  0.15300  0.84700  0.54200  1.0000
  Br  Br4       1.0  0.34700  0.65300  0.95800  1.0000
  Li  Li1       1.0  0.25000  0.05990  0.25000  1.0000
  Li  Li2       1.0  0.94000  0.44000  0.25000  1.0000
  Li  Li3       1.0  0.56000  0.75000  0.25000  1.0000
  Li  Li4       1.0  0.44000  0.25000  0.75000  1.0000
  Li  Li5       1.0  0.05990  0.56000  0.75000  1.0000
  Li  Li6       1.0  0.75000  0.94000  0.75000  1.0000
