data_image0
_chemical_formula_structural       Ac4Cl6
_chemical_formula_sum              "Ac4 Cl6"
_cell_length_a       6.89359
_cell_length_b       6.89359
_cell_length_c       8.9422
_cell_angle_alpha    112.672
_cell_angle_beta     67.3282
_cell_angle_gamma    120

_space_group_name_H-M_alt    "P 1"
_space_group_IT_number       1

loop_
  _space_group_symop_operation_xyz
  'x, y, z'

loop_
  _atom_site_type_symbol
  _atom_site_label
  _atom_site_symmetry_multiplicity
  _atom_site_fract_x
  _atom_site_fract_y
  _atom_site_fract_z
  _atom_site_occupancy
  Ac  Ac1       1.0  0.66400  0.33600  0.00749  1.0000
  Ac  Ac2       1.0  0.83600  0.16400  0.49300  1.0000
  Ac  Ac3       1.0  0.16400  0.83600  0.50700  1.0000
  Ac  Ac4       1.0  0.33600  0.66400  0.99300  1.0000
  Cl  Cl1       1.0  0.25000  0.06900  0.25000  1.0000
  Cl  Cl2       1.0  0.93100  0.43100  0.25000  1.0000
  Cl  Cl3       1.0  0.56900  0.75000  0.25000  1.0000
  Cl  Cl4       1.0  0.43100  0.25000  0.75000  1.0000
  Cl  Cl5       1.0  0.06900  0.56900  0.75000  1.0000
  Cl  Cl6       1.0  0.75000  0.93100  0.75000  1.0000
