data_image0
_chemical_formula_structural       Ce4I6
_chemical_formula_sum              "Ce4 I6"
_cell_length_a       7.63082
_cell_length_b       7.63082
_cell_length_c       9.06442
_cell_angle_alpha    114.893
_cell_angle_beta     65.1072
_cell_angle_gamma    120

_space_group_name_H-M_alt    "P 1"
_space_group_IT_number       1

loop_
  _space_group_symop_operation_xyz
  'x, y, z'

loop_
  _atom_site_type_symbol
  _atom_site_label
  _atom_site_symmetry_multiplicity
  _atom_site_fract_x
  _atom_site_fract_y
  _atom_site_fract_z
  _atom_site_occupancy
  Ce  Ce1       1.0  0.67200  0.32800  0.98500  1.0000
  Ce  Ce2       1.0  0.32800  0.67200  0.01480  1.0000
  Ce  Ce3       1.0  0.17200  0.82800  0.48500  1.0000
  Ce  Ce4       1.0  0.82800  0.17200  0.51500  1.0000
  I   I1        1.0  0.25000  0.09820  0.25000  1.0000
  I   I2        1.0  0.90200  0.40200  0.25000  1.0000
  I   I3        1.0  0.59800  0.75000  0.25000  1.0000
  I   I4        1.0  0.40200  0.25000  0.75000  1.0000
  I   I5        1.0  0.09820  0.59800  0.75000  1.0000
  I   I6        1.0  0.75000  0.90200  0.75000  1.0000
