data_image0
_chemical_formula_structural       F4Pu6
_chemical_formula_sum              "F4 Pu6"
_cell_length_a       6.45201
_cell_length_b       6.45201
_cell_length_c       6.6392
_cell_angle_alpha    119.072
_cell_angle_beta     60.9283
_cell_angle_gamma    120

_space_group_name_H-M_alt    "P 1"
_space_group_IT_number       1

loop_
  _space_group_symop_operation_xyz
  'x, y, z'

loop_
  _atom_site_type_symbol
  _atom_site_label
  _atom_site_symmetry_multiplicity
  _atom_site_fract_x
  _atom_site_fract_y
  _atom_site_fract_z
  _atom_site_occupancy
  F   F1        1.0  0.33100  0.66900  0.00819  1.0000
  F   F2        1.0  0.16900  0.83100  0.49200  1.0000
  F   F3        1.0  0.83100  0.16900  0.50800  1.0000
  F   F4        1.0  0.66900  0.33100  0.99200  1.0000
  Pu  Pu1       1.0  0.60200  0.75000  0.25000  1.0000
  Pu  Pu2       1.0  0.25000  0.10200  0.25000  1.0000
  Pu  Pu3       1.0  0.89800  0.39800  0.25000  1.0000
  Pu  Pu4       1.0  0.10200  0.60200  0.75000  1.0000
  Pu  Pu5       1.0  0.75000  0.89800  0.75000  1.0000
  Pu  Pu6       1.0  0.39800  0.25000  0.75000  1.0000
