data_image0
_chemical_formula_structural       Cd4Cl6
_chemical_formula_sum              "Cd4 Cl6"
_cell_length_a       6.94022
_cell_length_b       6.94022
_cell_length_c       7.51415
_cell_angle_alpha    117.504
_cell_angle_beta     62.496
_cell_angle_gamma    120

_space_group_name_H-M_alt    "P 1"
_space_group_IT_number       1

loop_
  _space_group_symop_operation_xyz
  'x, y, z'

loop_
  _atom_site_type_symbol
  _atom_site_label
  _atom_site_symmetry_multiplicity
  _atom_site_fract_x
  _atom_site_fract_y
  _atom_site_fract_z
  _atom_site_occupancy
  Cd  Cd1       1.0  0.65300  0.34700  0.04040  1.0000
  Cd  Cd2       1.0  0.84700  0.15300  0.46000  1.0000
  Cd  Cd3       1.0  0.15300  0.84700  0.54000  1.0000
  Cd  Cd4       1.0  0.34700  0.65300  0.96000  1.0000
  Cl  Cl1       1.0  0.25000  0.06820  0.25000  1.0000
  Cl  Cl2       1.0  0.56800  0.75000  0.25000  1.0000
  Cl  Cl3       1.0  0.93200  0.43200  0.25000  1.0000
  Cl  Cl4       1.0  0.06820  0.56800  0.75000  1.0000
  Cl  Cl5       1.0  0.43200  0.25000  0.75000  1.0000
  Cl  Cl6       1.0  0.75000  0.93200  0.75000  1.0000
