data_image0
_chemical_formula_structural       Cl4Pd6
_chemical_formula_sum              "Cl4 Pd6"
_cell_length_a       6.32628
_cell_length_b       6.32628
_cell_length_c       6.67331
_cell_angle_alpha    118.294
_cell_angle_beta     61.7058
_cell_angle_gamma    120

_space_group_name_H-M_alt    "P 1"
_space_group_IT_number       1

loop_
  _space_group_symop_operation_xyz
  'x, y, z'

loop_
  _atom_site_type_symbol
  _atom_site_label
  _atom_site_symmetry_multiplicity
  _atom_site_fract_x
  _atom_site_fract_y
  _atom_site_fract_z
  _atom_site_occupancy
  Cl  Cl1       1.0  0.60600  0.39400  0.18300  1.0000
  Cl  Cl2       1.0  0.89400  0.10600  0.31700  1.0000
  Cl  Cl3       1.0  0.10600  0.89400  0.68300  1.0000
  Cl  Cl4       1.0  0.39400  0.60600  0.81700  1.0000
  Pd  Pd1       1.0  0.25000  0.98700  0.25000  1.0000
  Pd  Pd2       1.0  0.48700  0.75000  0.25000  1.0000
  Pd  Pd3       1.0  0.01260  0.51300  0.25000  1.0000
  Pd  Pd4       1.0  0.75000  0.01260  0.75000  1.0000
  Pd  Pd5       1.0  0.51300  0.25000  0.75000  1.0000
  Pd  Pd6       1.0  0.98700  0.48700  0.75000  1.0000
