data_image0
_chemical_formula_structural       I4Th6
_chemical_formula_sum              "I4 Th6"
_cell_length_a       7.76392
_cell_length_b       7.76392
_cell_length_c       8.23541
_cell_angle_alpha    118.124
_cell_angle_beta     61.8765
_cell_angle_gamma    120

_space_group_name_H-M_alt    "P 1"
_space_group_IT_number       1

loop_
  _space_group_symop_operation_xyz
  'x, y, z'

loop_
  _atom_site_type_symbol
  _atom_site_label
  _atom_site_symmetry_multiplicity
  _atom_site_fract_x
  _atom_site_fract_y
  _atom_site_fract_z
  _atom_site_occupancy
  I   I1        1.0  0.65000  0.35000  0.04880  1.0000
  I   I2        1.0  0.85000  0.15000  0.45100  1.0000
  I   I3        1.0  0.15000  0.85000  0.54900  1.0000
  I   I4        1.0  0.35000  0.65000  0.95100  1.0000
  Th  Th1       1.0  0.25000  0.05330  0.25000  1.0000
  Th  Th2       1.0  0.94700  0.44700  0.25000  1.0000
  Th  Th3       1.0  0.55300  0.75000  0.25000  1.0000
  Th  Th4       1.0  0.44700  0.25000  0.75000  1.0000
  Th  Th5       1.0  0.05330  0.55300  0.75000  1.0000
  Th  Th6       1.0  0.75000  0.94700  0.75000  1.0000
