data_image0
_chemical_formula_structural       O4Tl6
_chemical_formula_sum              "O4 Tl6"
_cell_length_a       6.56094
_cell_length_b       6.56094
_cell_length_c       6.94622
_cell_angle_alpha    118.182
_cell_angle_beta     61.8184
_cell_angle_gamma    120

_space_group_name_H-M_alt    "P 1"
_space_group_IT_number       1

loop_
  _space_group_symop_operation_xyz
  'x, y, z'

loop_
  _atom_site_type_symbol
  _atom_site_label
  _atom_site_symmetry_multiplicity
  _atom_site_fract_x
  _atom_site_fract_y
  _atom_site_fract_z
  _atom_site_occupancy
  O   O1        1.0  0.64800  0.35200  0.05590  1.0000
  O   O2        1.0  0.85200  0.14800  0.44400  1.0000
  O   O3        1.0  0.14800  0.85200  0.55600  1.0000
  O   O4        1.0  0.35200  0.64800  0.94400  1.0000
  Tl  Tl1       1.0  0.55700  0.75000  0.25000  1.0000
  Tl  Tl2       1.0  0.94300  0.44300  0.25000  1.0000
  Tl  Tl3       1.0  0.25000  0.05660  0.25000  1.0000
  Tl  Tl4       1.0  0.75000  0.94300  0.75000  1.0000
  Tl  Tl5       1.0  0.05660  0.55700  0.75000  1.0000
  Tl  Tl6       1.0  0.44300  0.25000  0.75000  1.0000
