data_image0
_chemical_formula_structural       Np4S6
_chemical_formula_sum              "Np4 S6"
_cell_length_a       6.94763
_cell_length_b       6.94762
_cell_length_c       7.26031
_cell_angle_alpha    118.585
_cell_angle_beta     61.4147
_cell_angle_gamma    120

_space_group_name_H-M_alt    "P 1"
_space_group_IT_number       1

loop_
  _space_group_symop_operation_xyz
  'x, y, z'

loop_
  _atom_site_type_symbol
  _atom_site_label
  _atom_site_symmetry_multiplicity
  _atom_site_fract_x
  _atom_site_fract_y
  _atom_site_fract_z
  _atom_site_occupancy
  Np  Np1       1.0  0.64900  0.35100  0.05350  1.0000
  Np  Np2       1.0  0.85100  0.14900  0.44600  1.0000
  Np  Np3       1.0  0.14900  0.85100  0.55400  1.0000
  Np  Np4       1.0  0.35100  0.64900  0.94600  1.0000
  S   S1        1.0  0.95300  0.45300  0.25000  1.0000
  S   S2        1.0  0.54700  0.75000  0.25000  1.0000
  S   S3        1.0  0.25000  0.04680  0.25000  1.0000
  S   S4        1.0  0.75000  0.95300  0.75000  1.0000
  S   S5        1.0  0.45300  0.25000  0.75000  1.0000
  S   S6        1.0  0.04680  0.54700  0.75000  1.0000
