data_image0
_chemical_formula_structural       Br4U6
_chemical_formula_sum              "Br4 U6"
_cell_length_a       7.31797
_cell_length_b       7.31797
_cell_length_c       7.24341
_cell_angle_alpha    120.341
_cell_angle_beta     59.6589
_cell_angle_gamma    120

_space_group_name_H-M_alt    "P 1"
_space_group_IT_number       1

loop_
  _space_group_symop_operation_xyz
  'x, y, z'

loop_
  _atom_site_type_symbol
  _atom_site_label
  _atom_site_symmetry_multiplicity
  _atom_site_fract_x
  _atom_site_fract_y
  _atom_site_fract_z
  _atom_site_occupancy
  Br  Br1       1.0  0.66000  0.34000  0.01890  1.0000
  Br  Br2       1.0  0.84000  0.16000  0.48100  1.0000
  Br  Br3       1.0  0.16000  0.84000  0.51900  1.0000
  Br  Br4       1.0  0.34000  0.66000  0.98100  1.0000
  U   U1        1.0  0.25000  0.08550  0.25000  1.0000
  U   U2        1.0  0.91400  0.41400  0.25000  1.0000
  U   U3        1.0  0.58600  0.75000  0.25000  1.0000
  U   U4        1.0  0.41400  0.25000  0.75000  1.0000
  U   U5        1.0  0.08550  0.58600  0.75000  1.0000
  U   U6        1.0  0.75000  0.91400  0.75000  1.0000
