data_image0
_chemical_formula_structural       O4Pa6
_chemical_formula_sum              "O4 Pa6"
_cell_length_a       6.15571
_cell_length_b       6.15571
_cell_length_c       6.66359
_cell_angle_alpha    117.509
_cell_angle_beta     62.4907
_cell_angle_gamma    120

_space_group_name_H-M_alt    "P 1"
_space_group_IT_number       1

loop_
  _space_group_symop_operation_xyz
  'x, y, z'

loop_
  _atom_site_type_symbol
  _atom_site_label
  _atom_site_symmetry_multiplicity
  _atom_site_fract_x
  _atom_site_fract_y
  _atom_site_fract_z
  _atom_site_occupancy
  O   O1        1.0  0.66400  0.33600  0.00899  1.0000
  O   O2        1.0  0.83600  0.16400  0.49100  1.0000
  O   O3        1.0  0.16400  0.83600  0.50900  1.0000
  O   O4        1.0  0.33600  0.66400  0.99100  1.0000
  Pa  Pa1       1.0  0.91400  0.41400  0.25000  1.0000
  Pa  Pa2       1.0  0.25000  0.08640  0.25000  1.0000
  Pa  Pa3       1.0  0.58600  0.75000  0.25000  1.0000
  Pa  Pa4       1.0  0.41400  0.25000  0.75000  1.0000
  Pa  Pa5       1.0  0.75000  0.91400  0.75000  1.0000
  Pa  Pa6       1.0  0.08640  0.58600  0.75000  1.0000
