data_image0
_chemical_formula_structural       Br4Se6
_chemical_formula_sum              "Br4 Se6"
_cell_length_a       6.29678
_cell_length_b       6.29678
_cell_length_c       8.42067
_cell_angle_alpha    111.956
_cell_angle_beta     68.0444
_cell_angle_gamma    120

_space_group_name_H-M_alt    "P 1"
_space_group_IT_number       1

loop_
  _space_group_symop_operation_xyz
  'x, y, z'

loop_
  _atom_site_type_symbol
  _atom_site_label
  _atom_site_symmetry_multiplicity
  _atom_site_fract_x
  _atom_site_fract_y
  _atom_site_fract_z
  _atom_site_occupancy
  Br  Br1       1.0  0.33200  0.66800  0.00267  1.0000
  Br  Br2       1.0  0.16800  0.83200  0.49700  1.0000
  Br  Br3       1.0  0.83200  0.16800  0.50300  1.0000
  Br  Br4       1.0  0.66800  0.33200  0.99700  1.0000
  Se  Se1       1.0  0.74900  0.24900  0.25000  1.0000
  Se  Se2       1.0  0.25000  0.25100  0.25000  1.0000
  Se  Se3       1.0  0.75100  0.75000  0.25000  1.0000
  Se  Se4       1.0  0.24900  0.25000  0.75000  1.0000
  Se  Se5       1.0  0.75000  0.74900  0.75000  1.0000
  Se  Se6       1.0  0.25100  0.75100  0.75000  1.0000
