data_image0
_chemical_formula_structural       B4O6
_chemical_formula_sum              "B4 O6"
_cell_length_a       4.12179
_cell_length_b       4.51833
_cell_length_c       4.51833
_cell_angle_alpha    61.0029
_cell_angle_beta     90
_cell_angle_gamma    90

_space_group_name_H-M_alt    "P 1"
_space_group_IT_number       1

loop_
  _space_group_symop_operation_xyz
  'x, y, z'

loop_
  _atom_site_type_symbol
  _atom_site_label
  _atom_site_symmetry_multiplicity
  _atom_site_fract_x
  _atom_site_fract_y
  _atom_site_fract_z
  _atom_site_occupancy
  B   B1        1.0  0.56800  0.32500  0.00333  1.0000
  B   B2        1.0  0.06760  0.00333  0.32500  1.0000
  B   B3        1.0  0.56800  0.99700  0.67500  1.0000
  B   B4        1.0  0.06760  0.67500  0.99700  1.0000
  O   O1        1.0  0.92100  0.33800  0.07410  1.0000
  O   O2        1.0  0.99600  0.74700  0.25300  1.0000
  O   O3        1.0  0.42100  0.07410  0.33800  1.0000
  O   O4        1.0  0.92100  0.92600  0.66200  1.0000
  O   O5        1.0  0.49600  0.25300  0.74700  1.0000
  O   O6        1.0  0.42100  0.66200  0.92600  1.0000
