data_image0
_chemical_formula_structural       Br4Lu6
_chemical_formula_sum              "Br4 Lu6"
_cell_length_a       6.93869
_cell_length_b       6.93869
_cell_length_c       7.44634
_cell_angle_alpha    117.769
_cell_angle_beta     62.2307
_cell_angle_gamma    120

_space_group_name_H-M_alt    "P 1"
_space_group_IT_number       1

loop_
  _space_group_symop_operation_xyz
  'x, y, z'

loop_
  _atom_site_type_symbol
  _atom_site_label
  _atom_site_symmetry_multiplicity
  _atom_site_fract_x
  _atom_site_fract_y
  _atom_site_fract_z
  _atom_site_occupancy
  Br  Br1       1.0  0.33200  0.66800  0.00337  1.0000
  Br  Br2       1.0  0.16800  0.83200  0.49700  1.0000
  Br  Br3       1.0  0.83200  0.16800  0.50300  1.0000
  Br  Br4       1.0  0.66800  0.33200  0.99700  1.0000
  Lu  Lu1       1.0  0.25000  0.10500  0.25000  1.0000
  Lu  Lu2       1.0  0.60500  0.75000  0.25000  1.0000
  Lu  Lu3       1.0  0.89500  0.39500  0.25000  1.0000
  Lu  Lu4       1.0  0.10500  0.60500  0.75000  1.0000
  Lu  Lu5       1.0  0.39500  0.25000  0.75000  1.0000
  Lu  Lu6       1.0  0.75000  0.89500  0.75000  1.0000
