data_image0
_chemical_formula_structural       Br4H6
_chemical_formula_sum              "Br4 H6"
_cell_length_a       6.35793
_cell_length_b       6.35793
_cell_length_c       7.15855
_cell_angle_alpha    116.364
_cell_angle_beta     63.6355
_cell_angle_gamma    120

_space_group_name_H-M_alt    "P 1"
_space_group_IT_number       1

loop_
  _space_group_symop_operation_xyz
  'x, y, z'

loop_
  _atom_site_type_symbol
  _atom_site_label
  _atom_site_symmetry_multiplicity
  _atom_site_fract_x
  _atom_site_fract_y
  _atom_site_fract_z
  _atom_site_occupancy
  Br  Br1       1.0  0.59600  0.40400  0.21100  1.0000
  Br  Br2       1.0  0.90400  0.09620  0.28900  1.0000
  Br  Br3       1.0  0.09620  0.90400  0.71100  1.0000
  Br  Br4       1.0  0.40400  0.59600  0.78900  1.0000
  H   H1        1.0  0.74900  0.24900  0.25000  1.0000
  H   H2        1.0  0.75100  0.75000  0.25000  1.0000
  H   H3        1.0  0.25000  0.25100  0.25000  1.0000
  H   H4        1.0  0.75000  0.74900  0.75000  1.0000
  H   H5        1.0  0.24900  0.25000  0.75000  1.0000
  H   H6        1.0  0.25100  0.75100  0.75000  1.0000
