data_image0
_chemical_formula_structural       Br4Mo6
_chemical_formula_sum              "Br4 Mo6"
_cell_length_a       6.70826
_cell_length_b       6.70826
_cell_length_c       5.90101
_cell_angle_alpha    124.639
_cell_angle_beta     55.3614
_cell_angle_gamma    120

_space_group_name_H-M_alt    "P 1"
_space_group_IT_number       1

loop_
  _space_group_symop_operation_xyz
  'x, y, z'

loop_
  _atom_site_type_symbol
  _atom_site_label
  _atom_site_symmetry_multiplicity
  _atom_site_fract_x
  _atom_site_fract_y
  _atom_site_fract_z
  _atom_site_occupancy
  Br  Br1       1.0  0.60900  0.39100  0.17300  1.0000
  Br  Br2       1.0  0.89100  0.10900  0.32700  1.0000
  Br  Br3       1.0  0.10900  0.89100  0.67300  1.0000
  Br  Br4       1.0  0.39100  0.60900  0.82700  1.0000
  Mo  Mo1       1.0  0.52400  0.75000  0.25000  1.0000
  Mo  Mo2       1.0  0.97600  0.47600  0.25000  1.0000
  Mo  Mo3       1.0  0.25000  0.02370  0.25000  1.0000
  Mo  Mo4       1.0  0.75000  0.97600  0.75000  1.0000
  Mo  Mo5       1.0  0.02370  0.52400  0.75000  1.0000
  Mo  Mo6       1.0  0.47600  0.25000  0.75000  1.0000
