data_image0
_chemical_formula_structural       Cl4Rh6
_chemical_formula_sum              "Cl4 Rh6"
_cell_length_a       6.26518
_cell_length_b       6.26518
_cell_length_c       6.08096
_cell_angle_alpha    121.007
_cell_angle_beta     58.9927
_cell_angle_gamma    120

_space_group_name_H-M_alt    "P 1"
_space_group_IT_number       1

loop_
  _space_group_symop_operation_xyz
  'x, y, z'

loop_
  _atom_site_type_symbol
  _atom_site_label
  _atom_site_symmetry_multiplicity
  _atom_site_fract_x
  _atom_site_fract_y
  _atom_site_fract_z
  _atom_site_occupancy
  Cl  Cl1       1.0  0.60000  0.40000  0.19900  1.0000
  Cl  Cl2       1.0  0.90000  0.10000  0.30100  1.0000
  Cl  Cl3       1.0  0.10000  0.90000  0.69900  1.0000
  Cl  Cl4       1.0  0.40000  0.60000  0.80100  1.0000
  Rh  Rh1       1.0  0.25000  0.99100  0.25000  1.0000
  Rh  Rh2       1.0  0.49100  0.75000  0.25000  1.0000
  Rh  Rh3       1.0  0.00863  0.50900  0.25000  1.0000
  Rh  Rh4       1.0  0.99100  0.49100  0.75000  1.0000
  Rh  Rh5       1.0  0.50900  0.25000  0.75000  1.0000
  Rh  Rh6       1.0  0.75000  0.00863  0.75000  1.0000
