data_image0
_chemical_formula_structural       O4Tc6
_chemical_formula_sum              "O4 Tc6"
_cell_length_a       6.02169
_cell_length_b       6.02169
_cell_length_c       5.17643
_cell_angle_alpha    125.566
_cell_angle_beta     54.4336
_cell_angle_gamma    120

_space_group_name_H-M_alt    "P 1"
_space_group_IT_number       1

loop_
  _space_group_symop_operation_xyz
  'x, y, z'

loop_
  _atom_site_type_symbol
  _atom_site_label
  _atom_site_symmetry_multiplicity
  _atom_site_fract_x
  _atom_site_fract_y
  _atom_site_fract_z
  _atom_site_occupancy
  O   O1        1.0  0.63000  0.37000  0.10900  1.0000
  O   O2        1.0  0.87000  0.13000  0.39100  1.0000
  O   O3        1.0  0.13000  0.87000  0.60900  1.0000
  O   O4        1.0  0.37000  0.63000  0.89100  1.0000
  Tc  Tc1       1.0  0.25000  0.12100  0.25000  1.0000
  Tc  Tc2       1.0  0.62100  0.75000  0.25000  1.0000
  Tc  Tc3       1.0  0.87900  0.37900  0.25000  1.0000
  Tc  Tc4       1.0  0.12100  0.62100  0.75000  1.0000
  Tc  Tc5       1.0  0.37900  0.25000  0.75000  1.0000
  Tc  Tc6       1.0  0.75000  0.87900  0.75000  1.0000
