data_image0
_chemical_formula_structural       H4N6
_chemical_formula_sum              "H4 N6"
_cell_length_a       3.71668
_cell_length_b       3.71668
_cell_length_c       4.65257
_cell_angle_alpha    113.542
_cell_angle_beta     66.4579
_cell_angle_gamma    120

_space_group_name_H-M_alt    "P 1"
_space_group_IT_number       1

loop_
  _space_group_symop_operation_xyz
  'x, y, z'

loop_
  _atom_site_type_symbol
  _atom_site_label
  _atom_site_symmetry_multiplicity
  _atom_site_fract_x
  _atom_site_fract_y
  _atom_site_fract_z
  _atom_site_occupancy
  H   H1        1.0  0.95700  0.04340  0.13000  1.0000
  H   H2        1.0  0.54300  0.45700  0.37000  1.0000
  H   H3        1.0  0.45700  0.54300  0.63000  1.0000
  H   H4        1.0  0.04340  0.95700  0.87000  1.0000
  N   N1        1.0  0.02810  0.52800  0.25000  1.0000
  N   N2        1.0  0.47200  0.75000  0.25000  1.0000
  N   N3        1.0  0.25000  0.97200  0.25000  1.0000
  N   N4        1.0  0.75000  0.02810  0.75000  1.0000
  N   N5        1.0  0.52800  0.25000  0.75000  1.0000
  N   N6        1.0  0.97200  0.47200  0.75000  1.0000
