data_image0
_chemical_formula_structural       Ca4S6
_chemical_formula_sum              "Ca4 S6"
_cell_length_a       7.04847
_cell_length_b       7.04847
_cell_length_c       7.48427
_cell_angle_alpha    118.092
_cell_angle_beta     61.9082
_cell_angle_gamma    120

_space_group_name_H-M_alt    "P 1"
_space_group_IT_number       1

loop_
  _space_group_symop_operation_xyz
  'x, y, z'

loop_
  _atom_site_type_symbol
  _atom_site_label
  _atom_site_symmetry_multiplicity
  _atom_site_fract_x
  _atom_site_fract_y
  _atom_site_fract_z
  _atom_site_occupancy
  Ca  Ca1       1.0  0.65100  0.34900  0.04810  1.0000
  Ca  Ca2       1.0  0.84900  0.15100  0.45200  1.0000
  Ca  Ca3       1.0  0.15100  0.84900  0.54800  1.0000
  Ca  Ca4       1.0  0.34900  0.65100  0.95200  1.0000
  S   S1        1.0  0.55200  0.75000  0.25000  1.0000
  S   S2        1.0  0.25000  0.05150  0.25000  1.0000
  S   S3        1.0  0.94800  0.44800  0.25000  1.0000
  S   S4        1.0  0.05150  0.55200  0.75000  1.0000
  S   S5        1.0  0.75000  0.94800  0.75000  1.0000
  S   S6        1.0  0.44800  0.25000  0.75000  1.0000
