data_image0
_chemical_formula_structural       B4I6
_chemical_formula_sum              "B4 I6"
_cell_length_a       6.96916
_cell_length_b       6.96916
_cell_length_c       8.77685
_cell_angle_alpha    113.392
_cell_angle_beta     66.608
_cell_angle_gamma    120

_space_group_name_H-M_alt    "P 1"
_space_group_IT_number       1

loop_
  _space_group_symop_operation_xyz
  'x, y, z'

loop_
  _atom_site_type_symbol
  _atom_site_label
  _atom_site_symmetry_multiplicity
  _atom_site_fract_x
  _atom_site_fract_y
  _atom_site_fract_z
  _atom_site_occupancy
  B   B1        1.0  0.62100  0.37900  0.13800  1.0000
  B   B2        1.0  0.87900  0.12100  0.36200  1.0000
  B   B3        1.0  0.12100  0.87900  0.63800  1.0000
  B   B4        1.0  0.37900  0.62100  0.86200  1.0000
  I   I1        1.0  0.88200  0.38200  0.25000  1.0000
  I   I2        1.0  0.25000  0.11800  0.25000  1.0000
  I   I3        1.0  0.61800  0.75000  0.25000  1.0000
  I   I4        1.0  0.38200  0.25000  0.75000  1.0000
  I   I5        1.0  0.75000  0.88200  0.75000  1.0000
  I   I6        1.0  0.11800  0.61800  0.75000  1.0000
