data_image0
_chemical_formula_structural       Cl4K6
_chemical_formula_sum              "Cl4 K6"
_cell_length_a       7.80337
_cell_length_b       7.80337
_cell_length_c       8.86988
_cell_angle_alpha    116.096
_cell_angle_beta     63.9037
_cell_angle_gamma    120

_space_group_name_H-M_alt    "P 1"
_space_group_IT_number       1

loop_
  _space_group_symop_operation_xyz
  'x, y, z'

loop_
  _atom_site_type_symbol
  _atom_site_label
  _atom_site_symmetry_multiplicity
  _atom_site_fract_x
  _atom_site_fract_y
  _atom_site_fract_z
  _atom_site_occupancy
  Cl  Cl1       1.0  0.66200  0.33800  0.01520  1.0000
  Cl  Cl2       1.0  0.83800  0.16200  0.48500  1.0000
  Cl  Cl3       1.0  0.16200  0.83800  0.51500  1.0000
  Cl  Cl4       1.0  0.33800  0.66200  0.98500  1.0000
  K   K1        1.0  0.57000  0.75000  0.25000  1.0000
  K   K2        1.0  0.93000  0.43000  0.25000  1.0000
  K   K3        1.0  0.25000  0.07000  0.25000  1.0000
  K   K4        1.0  0.75000  0.93000  0.75000  1.0000
  K   K5        1.0  0.07000  0.57000  0.75000  1.0000
  K   K6        1.0  0.43000  0.25000  0.75000  1.0000
