data_image0
_chemical_formula_structural       Cl4Lu6
_chemical_formula_sum              "Cl4 Lu6"
_cell_length_a       6.70961
_cell_length_b       6.70961
_cell_length_c       7.07784
_cell_angle_alpha    118.293
_cell_angle_beta     61.7066
_cell_angle_gamma    120

_space_group_name_H-M_alt    "P 1"
_space_group_IT_number       1

loop_
  _space_group_symop_operation_xyz
  'x, y, z'

loop_
  _atom_site_type_symbol
  _atom_site_label
  _atom_site_symmetry_multiplicity
  _atom_site_fract_x
  _atom_site_fract_y
  _atom_site_fract_z
  _atom_site_occupancy
  Cl  Cl1       1.0  0.66600  0.33400  0.00111  1.0000
  Cl  Cl2       1.0  0.83400  0.16600  0.49900  1.0000
  Cl  Cl3       1.0  0.16600  0.83400  0.50100  1.0000
  Cl  Cl4       1.0  0.33400  0.66600  0.99900  1.0000
  Lu  Lu1       1.0  0.25000  0.09760  0.25000  1.0000
  Lu  Lu2       1.0  0.90200  0.40200  0.25000  1.0000
  Lu  Lu3       1.0  0.59800  0.75000  0.25000  1.0000
  Lu  Lu4       1.0  0.40200  0.25000  0.75000  1.0000
  Lu  Lu5       1.0  0.09760  0.59800  0.75000  1.0000
  Lu  Lu6       1.0  0.75000  0.90200  0.75000  1.0000
