data_image0
_chemical_formula_structural       Cl4Cr6
_chemical_formula_sum              "Cl4 Cr6"
_cell_length_a       6.56236
_cell_length_b       6.56236
_cell_length_c       7.21735
_cell_angle_alpha    117.041
_cell_angle_beta     62.9593
_cell_angle_gamma    120

_space_group_name_H-M_alt    "P 1"
_space_group_IT_number       1

loop_
  _space_group_symop_operation_xyz
  'x, y, z'

loop_
  _atom_site_type_symbol
  _atom_site_label
  _atom_site_symmetry_multiplicity
  _atom_site_fract_x
  _atom_site_fract_y
  _atom_site_fract_z
  _atom_site_occupancy
  Cl  Cl1       1.0  0.66300  0.33700  0.01110  1.0000
  Cl  Cl2       1.0  0.83700  0.16300  0.48900  1.0000
  Cl  Cl3       1.0  0.16300  0.83700  0.51100  1.0000
  Cl  Cl4       1.0  0.33700  0.66300  0.98900  1.0000
  Cr  Cr1       1.0  0.75100  0.25100  0.25000  1.0000
  Cr  Cr2       1.0  0.25000  0.24900  0.25000  1.0000
  Cr  Cr3       1.0  0.74900  0.75000  0.25000  1.0000
  Cr  Cr4       1.0  0.25100  0.25000  0.75000  1.0000
  Cr  Cr5       1.0  0.75000  0.75100  0.75000  1.0000
  Cr  Cr6       1.0  0.24900  0.74900  0.75000  1.0000
