data_image0
_chemical_formula_structural       Br4Eu6
_chemical_formula_sum              "Br4 Eu6"
_cell_length_a       7.3935
_cell_length_b       7.3935
_cell_length_c       8.24392
_cell_angle_alpha    116.642
_cell_angle_beta     63.3575
_cell_angle_gamma    120

_space_group_name_H-M_alt    "P 1"
_space_group_IT_number       1

loop_
  _space_group_symop_operation_xyz
  'x, y, z'

loop_
  _atom_site_type_symbol
  _atom_site_label
  _atom_site_symmetry_multiplicity
  _atom_site_fract_x
  _atom_site_fract_y
  _atom_site_fract_z
  _atom_site_occupancy
  Br  Br1       1.0  0.33200  0.66800  0.00312  1.0000
  Br  Br2       1.0  0.16800  0.83200  0.49700  1.0000
  Br  Br3       1.0  0.83200  0.16800  0.50300  1.0000
  Br  Br4       1.0  0.66800  0.33200  0.99700  1.0000
  Eu  Eu1       1.0  0.25000  0.09290  0.25000  1.0000
  Eu  Eu2       1.0  0.90700  0.40700  0.25000  1.0000
  Eu  Eu3       1.0  0.59300  0.75000  0.25000  1.0000
  Eu  Eu4       1.0  0.40700  0.25000  0.75000  1.0000
  Eu  Eu5       1.0  0.09290  0.59300  0.75000  1.0000
  Eu  Eu6       1.0  0.75000  0.90700  0.75000  1.0000
