data_image0
_chemical_formula_structural       Cl4Si6
_chemical_formula_sum              "Cl4 Si6"
_cell_length_a       7.90373
_cell_length_b       7.90373
_cell_length_c       6.05209
_cell_angle_alpha    130.766
_cell_angle_beta     49.2337
_cell_angle_gamma    120

_space_group_name_H-M_alt    "P 1"
_space_group_IT_number       1

loop_
  _space_group_symop_operation_xyz
  'x, y, z'

loop_
  _atom_site_type_symbol
  _atom_site_label
  _atom_site_symmetry_multiplicity
  _atom_site_fract_x
  _atom_site_fract_y
  _atom_site_fract_z
  _atom_site_occupancy
  Cl  Cl1       1.0  0.63400  0.36600  0.09710  1.0000
  Cl  Cl2       1.0  0.86600  0.13400  0.40300  1.0000
  Cl  Cl3       1.0  0.13400  0.86600  0.59700  1.0000
  Cl  Cl4       1.0  0.36600  0.63400  0.90300  1.0000
  Si  Si1       1.0  0.25000  0.24800  0.25000  1.0000
  Si  Si2       1.0  0.75200  0.25200  0.25000  1.0000
  Si  Si3       1.0  0.74800  0.75000  0.25000  1.0000
  Si  Si4       1.0  0.25200  0.25000  0.75000  1.0000
  Si  Si5       1.0  0.24800  0.74800  0.75000  1.0000
  Si  Si6       1.0  0.75000  0.75200  0.75000  1.0000
