data_image0
_chemical_formula_structural       S4U6
_chemical_formula_sum              "S4 U6"
_cell_length_a       6.28015
_cell_length_b       6.28015
_cell_length_c       7.6343
_cell_angle_alpha    114.287
_cell_angle_beta     65.7128
_cell_angle_gamma    120

_space_group_name_H-M_alt    "P 1"
_space_group_IT_number       1

loop_
  _space_group_symop_operation_xyz
  'x, y, z'

loop_
  _atom_site_type_symbol
  _atom_site_label
  _atom_site_symmetry_multiplicity
  _atom_site_fract_x
  _atom_site_fract_y
  _atom_site_fract_z
  _atom_site_occupancy
  S   S1        1.0  0.33100  0.66900  0.00617  1.0000
  S   S2        1.0  0.16900  0.83100  0.49400  1.0000
  S   S3        1.0  0.83100  0.16900  0.50600  1.0000
  S   S4        1.0  0.66900  0.33100  0.99400  1.0000
  U   U1        1.0  0.25000  0.09400  0.25000  1.0000
  U   U2        1.0  0.90600  0.40600  0.25000  1.0000
  U   U3        1.0  0.59400  0.75000  0.25000  1.0000
  U   U4        1.0  0.40600  0.25000  0.75000  1.0000
  U   U5        1.0  0.09400  0.59400  0.75000  1.0000
  U   U6        1.0  0.75000  0.90600  0.75000  1.0000
