data_image0
_chemical_formula_structural       Br4Hg6
_chemical_formula_sum              "Br4 Hg6"
_cell_length_a       7.73841
_cell_length_b       7.73841
_cell_length_c       8.09475
_cell_angle_alpha    118.554
_cell_angle_beta     61.4458
_cell_angle_gamma    120

_space_group_name_H-M_alt    "P 1"
_space_group_IT_number       1

loop_
  _space_group_symop_operation_xyz
  'x, y, z'

loop_
  _atom_site_type_symbol
  _atom_site_label
  _atom_site_symmetry_multiplicity
  _atom_site_fract_x
  _atom_site_fract_y
  _atom_site_fract_z
  _atom_site_occupancy
  Br  Br1       1.0  0.64900  0.35100  0.05250  1.0000
  Br  Br2       1.0  0.85100  0.14900  0.44800  1.0000
  Br  Br3       1.0  0.14900  0.85100  0.55200  1.0000
  Br  Br4       1.0  0.35100  0.64900  0.94800  1.0000
  Hg  Hg1       1.0  0.55400  0.75000  0.25000  1.0000
  Hg  Hg2       1.0  0.94600  0.44600  0.25000  1.0000
  Hg  Hg3       1.0  0.25000  0.05370  0.25000  1.0000
  Hg  Hg4       1.0  0.75000  0.94600  0.75000  1.0000
  Hg  Hg5       1.0  0.05370  0.55400  0.75000  1.0000
  Hg  Hg6       1.0  0.44600  0.25000  0.75000  1.0000
