data_image0
_chemical_formula_structural       Cl4Hf6
_chemical_formula_sum              "Cl4 Hf6"
_cell_length_a       5.79155
_cell_length_b       5.79155
_cell_length_c       7.48251
_cell_angle_alpha    112.768
_cell_angle_beta     67.2317
_cell_angle_gamma    120

_space_group_name_H-M_alt    "P 1"
_space_group_IT_number       1

loop_
  _space_group_symop_operation_xyz
  'x, y, z'

loop_
  _atom_site_type_symbol
  _atom_site_label
  _atom_site_symmetry_multiplicity
  _atom_site_fract_x
  _atom_site_fract_y
  _atom_site_fract_z
  _atom_site_occupancy
  Cl  Cl1       1.0  0.32900  0.67100  0.01210  1.0000
  Cl  Cl2       1.0  0.17100  0.82900  0.48800  1.0000
  Cl  Cl3       1.0  0.82900  0.17100  0.51200  1.0000
  Cl  Cl4       1.0  0.67100  0.32900  0.98800  1.0000
  Hf  Hf1       1.0  0.88800  0.38800  0.25000  1.0000
  Hf  Hf2       1.0  0.25000  0.11200  0.25000  1.0000
  Hf  Hf3       1.0  0.61200  0.75000  0.25000  1.0000
  Hf  Hf4       1.0  0.38800  0.25000  0.75000  1.0000
  Hf  Hf5       1.0  0.75000  0.88800  0.75000  1.0000
  Hf  Hf6       1.0  0.11200  0.61200  0.75000  1.0000
