data_image0
_chemical_formula_structural       O4W6
_chemical_formula_sum              "O4 W6"
_cell_length_a       5.87173
_cell_length_b       5.87173
_cell_length_c       5.55842
_cell_angle_alpha    121.883
_cell_angle_beta     58.1173
_cell_angle_gamma    120

_space_group_name_H-M_alt    "P 1"
_space_group_IT_number       1

loop_
  _space_group_symop_operation_xyz
  'x, y, z'

loop_
  _atom_site_type_symbol
  _atom_site_label
  _atom_site_symmetry_multiplicity
  _atom_site_fract_x
  _atom_site_fract_y
  _atom_site_fract_z
  _atom_site_occupancy
  O   O1        1.0  0.66000  0.34000  0.01950  1.0000
  O   O2        1.0  0.84000  0.16000  0.48100  1.0000
  O   O3        1.0  0.16000  0.84000  0.51900  1.0000
  O   O4        1.0  0.34000  0.66000  0.98100  1.0000
  W   W1        1.0  0.67700  0.75000  0.25000  1.0000
  W   W2        1.0  0.82300  0.32300  0.25000  1.0000
  W   W3        1.0  0.25000  0.17700  0.25000  1.0000
  W   W4        1.0  0.75000  0.82300  0.75000  1.0000
  W   W5        1.0  0.17700  0.67700  0.75000  1.0000
  W   W6        1.0  0.32300  0.25000  0.75000  1.0000
