data_image0
_chemical_formula_structural       Br4V6
_chemical_formula_sum              "Br4 V6"
_cell_length_a       6.41895
_cell_length_b       6.41895
_cell_length_c       6.20518
_cell_angle_alpha    121.146
_cell_angle_beta     58.8537
_cell_angle_gamma    120

_space_group_name_H-M_alt    "P 1"
_space_group_IT_number       1

loop_
  _space_group_symop_operation_xyz
  'x, y, z'

loop_
  _atom_site_type_symbol
  _atom_site_label
  _atom_site_symmetry_multiplicity
  _atom_site_fract_x
  _atom_site_fract_y
  _atom_site_fract_z
  _atom_site_occupancy
  Br  Br1       1.0  0.60200  0.39800  0.19300  1.0000
  Br  Br2       1.0  0.89800  0.10200  0.30700  1.0000
  Br  Br3       1.0  0.10200  0.89800  0.69300  1.0000
  Br  Br4       1.0  0.39800  0.60200  0.80700  1.0000
  V   V1        1.0  0.25000  0.96100  0.25000  1.0000
  V   V2        1.0  0.46100  0.75000  0.25000  1.0000
  V   V3        1.0  0.03920  0.53900  0.25000  1.0000
  V   V4        1.0  0.96100  0.46100  0.75000  1.0000
  V   V5        1.0  0.53900  0.25000  0.75000  1.0000
  V   V6        1.0  0.75000  0.03920  0.75000  1.0000
