data_image0
_chemical_formula_structural       Ac4S6
_chemical_formula_sum              "Ac4 S6"
_cell_length_a       7.60009
_cell_length_b       7.60009
_cell_length_c       7.86922
_cell_angle_alpha    118.875
_cell_angle_beta     61.125
_cell_angle_gamma    120

_space_group_name_H-M_alt    "P 1"
_space_group_IT_number       1

loop_
  _space_group_symop_operation_xyz
  'x, y, z'

loop_
  _atom_site_type_symbol
  _atom_site_label
  _atom_site_symmetry_multiplicity
  _atom_site_fract_x
  _atom_site_fract_y
  _atom_site_fract_z
  _atom_site_occupancy
  Ac  Ac1       1.0  0.64300  0.35700  0.06970  1.0000
  Ac  Ac2       1.0  0.85700  0.14300  0.43000  1.0000
  Ac  Ac3       1.0  0.14300  0.85700  0.57000  1.0000
  Ac  Ac4       1.0  0.35700  0.64300  0.93000  1.0000
  S   S1        1.0  0.53900  0.75000  0.25000  1.0000
  S   S2        1.0  0.25000  0.03910  0.25000  1.0000
  S   S3        1.0  0.96100  0.46100  0.25000  1.0000
  S   S4        1.0  0.03910  0.53900  0.75000  1.0000
  S   S5        1.0  0.75000  0.96100  0.75000  1.0000
  S   S6        1.0  0.46100  0.25000  0.75000  1.0000
