data_image0
_chemical_formula_structural       Br4Fe6
_chemical_formula_sum              "Br4 Fe6"
_cell_length_a       6.35488
_cell_length_b       6.35488
_cell_length_c       6.31084
_cell_angle_alpha    120.231
_cell_angle_beta     59.7689
_cell_angle_gamma    120

_space_group_name_H-M_alt    "P 1"
_space_group_IT_number       1

loop_
  _space_group_symop_operation_xyz
  'x, y, z'

loop_
  _atom_site_type_symbol
  _atom_site_label
  _atom_site_symmetry_multiplicity
  _atom_site_fract_x
  _atom_site_fract_y
  _atom_site_fract_z
  _atom_site_occupancy
  Br  Br1       1.0  0.60300  0.39700  0.19000  1.0000
  Br  Br2       1.0  0.89700  0.10300  0.31000  1.0000
  Br  Br3       1.0  0.10300  0.89700  0.69000  1.0000
  Br  Br4       1.0  0.39700  0.60300  0.81000  1.0000
  Fe  Fe1       1.0  0.25000  0.96500  0.25000  1.0000
  Fe  Fe2       1.0  0.03490  0.53500  0.25000  1.0000
  Fe  Fe3       1.0  0.46500  0.75000  0.25000  1.0000
  Fe  Fe4       1.0  0.96500  0.46500  0.75000  1.0000
  Fe  Fe5       1.0  0.75000  0.03490  0.75000  1.0000
  Fe  Fe6       1.0  0.53500  0.25000  0.75000  1.0000
