data_image0
_chemical_formula_structural       Cl4Sr6
_chemical_formula_sum              "Cl4 Sr6"
_cell_length_a       7.53575
_cell_length_b       7.53575
_cell_length_c       8.32661
_cell_angle_alpha    116.905
_cell_angle_beta     63.0952
_cell_angle_gamma    120

_space_group_name_H-M_alt    "P 1"
_space_group_IT_number       1

loop_
  _space_group_symop_operation_xyz
  'x, y, z'

loop_
  _atom_site_type_symbol
  _atom_site_label
  _atom_site_symmetry_multiplicity
  _atom_site_fract_x
  _atom_site_fract_y
  _atom_site_fract_z
  _atom_site_occupancy
  Cl  Cl1       1.0  0.33100  0.66900  0.00802  1.0000
  Cl  Cl2       1.0  0.16900  0.83100  0.49200  1.0000
  Cl  Cl3       1.0  0.83100  0.16900  0.50800  1.0000
  Cl  Cl4       1.0  0.66900  0.33100  0.99200  1.0000
  Sr  Sr1       1.0  0.59000  0.75000  0.25000  1.0000
  Sr  Sr2       1.0  0.91000  0.41000  0.25000  1.0000
  Sr  Sr3       1.0  0.25000  0.08980  0.25000  1.0000
  Sr  Sr4       1.0  0.75000  0.91000  0.75000  1.0000
  Sr  Sr5       1.0  0.08980  0.59000  0.75000  1.0000
  Sr  Sr6       1.0  0.41000  0.25000  0.75000  1.0000
