data_image0
_chemical_formula_structural       Br4N6
_chemical_formula_sum              "Br4 N6"
_cell_length_a       5.35108
_cell_length_b       5.35108
_cell_length_c       6.49549
_cell_angle_alpha    114.325
_cell_angle_beta     65.6753
_cell_angle_gamma    120

_space_group_name_H-M_alt    "P 1"
_space_group_IT_number       1

loop_
  _space_group_symop_operation_xyz
  'x, y, z'

loop_
  _atom_site_type_symbol
  _atom_site_label
  _atom_site_symmetry_multiplicity
  _atom_site_fract_x
  _atom_site_fract_y
  _atom_site_fract_z
  _atom_site_occupancy
  Br  Br1       1.0  0.63100  0.36900  0.10600  1.0000
  Br  Br2       1.0  0.86900  0.13100  0.39400  1.0000
  Br  Br3       1.0  0.13100  0.86900  0.60600  1.0000
  Br  Br4       1.0  0.36900  0.63100  0.89400  1.0000
  N   N1        1.0  0.25000  0.07540  0.25000  1.0000
  N   N2        1.0  0.57500  0.75000  0.25000  1.0000
  N   N3        1.0  0.92500  0.42500  0.25000  1.0000
  N   N4        1.0  0.07540  0.57500  0.75000  1.0000
  N   N5        1.0  0.42500  0.25000  0.75000  1.0000
  N   N6        1.0  0.75000  0.92500  0.75000  1.0000
