data_image0
_chemical_formula_structural       Br4S6
_chemical_formula_sum              "Br4 S6"
_cell_length_a       8.01625
_cell_length_b       8.01625
_cell_length_c       6.76031
_cell_angle_alpha    126.362
_cell_angle_beta     53.6376
_cell_angle_gamma    120

_space_group_name_H-M_alt    "P 1"
_space_group_IT_number       1

loop_
  _space_group_symop_operation_xyz
  'x, y, z'

loop_
  _atom_site_type_symbol
  _atom_site_label
  _atom_site_symmetry_multiplicity
  _atom_site_fract_x
  _atom_site_fract_y
  _atom_site_fract_z
  _atom_site_occupancy
  Br  Br1       1.0  0.63500  0.36500  0.09390  1.0000
  Br  Br2       1.0  0.86500  0.13500  0.40600  1.0000
  Br  Br3       1.0  0.13500  0.86500  0.59400  1.0000
  Br  Br4       1.0  0.36500  0.63500  0.90600  1.0000
  S   S1        1.0  0.74900  0.24900  0.25000  1.0000
  S   S2        1.0  0.25000  0.25100  0.25000  1.0000
  S   S3        1.0  0.75100  0.75000  0.25000  1.0000
  S   S4        1.0  0.24900  0.25000  0.75000  1.0000
  S   S5        1.0  0.75000  0.74900  0.75000  1.0000
  S   S6        1.0  0.25100  0.75100  0.75000  1.0000
