data_image0
_chemical_formula_structural       Cl4Na6
_chemical_formula_sum              "Cl4 Na6"
_cell_length_a       6.99528
_cell_length_b       6.99528
_cell_length_c       7.8745
_cell_angle_alpha    116.37
_cell_angle_beta     63.6296
_cell_angle_gamma    120

_space_group_name_H-M_alt    "P 1"
_space_group_IT_number       1

loop_
  _space_group_symop_operation_xyz
  'x, y, z'

loop_
  _atom_site_type_symbol
  _atom_site_label
  _atom_site_symmetry_multiplicity
  _atom_site_fract_x
  _atom_site_fract_y
  _atom_site_fract_z
  _atom_site_occupancy
  Cl  Cl1       1.0  0.65900  0.34100  0.02400  1.0000
  Cl  Cl2       1.0  0.84100  0.15900  0.47600  1.0000
  Cl  Cl3       1.0  0.15900  0.84100  0.52400  1.0000
  Cl  Cl4       1.0  0.34100  0.65900  0.97600  1.0000
  Na  Na1       1.0  0.25000  0.06880  0.25000  1.0000
  Na  Na2       1.0  0.56900  0.75000  0.25000  1.0000
  Na  Na3       1.0  0.93100  0.43100  0.25000  1.0000
  Na  Na4       1.0  0.06880  0.56900  0.75000  1.0000
  Na  Na5       1.0  0.43100  0.25000  0.75000  1.0000
  Na  Na6       1.0  0.75000  0.93100  0.75000  1.0000
