data_image0
_chemical_formula_structural       Br4Mg6
_chemical_formula_sum              "Br4 Mg6"
_cell_length_a       8.11322
_cell_length_b       8.11322
_cell_length_c       7.03662
_cell_angle_alpha    125.205
_cell_angle_beta     54.7953
_cell_angle_gamma    120

_space_group_name_H-M_alt    "P 1"
_space_group_IT_number       1

loop_
  _space_group_symop_operation_xyz
  'x, y, z'

loop_
  _atom_site_type_symbol
  _atom_site_label
  _atom_site_symmetry_multiplicity
  _atom_site_fract_x
  _atom_site_fract_y
  _atom_site_fract_z
  _atom_site_occupancy
  Br  Br1       1.0  0.62900  0.37100  0.11400  1.0000
  Br  Br2       1.0  0.87100  0.12900  0.38600  1.0000
  Br  Br3       1.0  0.12900  0.87100  0.61400  1.0000
  Br  Br4       1.0  0.37100  0.62900  0.88600  1.0000
  Mg  Mg1       1.0  0.93400  0.43400  0.25000  1.0000
  Mg  Mg2       1.0  0.56600  0.75000  0.25000  1.0000
  Mg  Mg3       1.0  0.25000  0.06630  0.25000  1.0000
  Mg  Mg4       1.0  0.75000  0.93400  0.75000  1.0000
  Mg  Mg5       1.0  0.43400  0.25000  0.75000  1.0000
  Mg  Mg6       1.0  0.06630  0.56600  0.75000  1.0000
