data_image0
_chemical_formula_structural       Br4Sm6
_chemical_formula_sum              "Br4 Sm6"
_cell_length_a       7.22036
_cell_length_b       7.22036
_cell_length_c       7.78919
_cell_angle_alpha    117.612
_cell_angle_beta     62.3877
_cell_angle_gamma    120

_space_group_name_H-M_alt    "P 1"
_space_group_IT_number       1

loop_
  _space_group_symop_operation_xyz
  'x, y, z'

loop_
  _atom_site_type_symbol
  _atom_site_label
  _atom_site_symmetry_multiplicity
  _atom_site_fract_x
  _atom_site_fract_y
  _atom_site_fract_z
  _atom_site_occupancy
  Br  Br1       1.0  0.66600  0.33400  0.00230  1.0000
  Br  Br2       1.0  0.83400  0.16600  0.49800  1.0000
  Br  Br3       1.0  0.16600  0.83400  0.50200  1.0000
  Br  Br4       1.0  0.33400  0.66600  0.99800  1.0000
  Sm  Sm1       1.0  0.59300  0.75000  0.25000  1.0000
  Sm  Sm2       1.0  0.90700  0.40700  0.25000  1.0000
  Sm  Sm3       1.0  0.25000  0.09270  0.25000  1.0000
  Sm  Sm4       1.0  0.75000  0.90700  0.75000  1.0000
  Sm  Sm5       1.0  0.09270  0.59300  0.75000  1.0000
  Sm  Sm6       1.0  0.40700  0.25000  0.75000  1.0000
