data_image0
_chemical_formula_structural       Cl4S6
_chemical_formula_sum              "Cl4 S6"
_cell_length_a       5.90941
_cell_length_b       5.90941
_cell_length_c       8.16075
_cell_angle_alpha    111.227
_cell_angle_beta     68.7731
_cell_angle_gamma    120

_space_group_name_H-M_alt    "P 1"
_space_group_IT_number       1

loop_
  _space_group_symop_operation_xyz
  'x, y, z'

loop_
  _atom_site_type_symbol
  _atom_site_label
  _atom_site_symmetry_multiplicity
  _atom_site_fract_x
  _atom_site_fract_y
  _atom_site_fract_z
  _atom_site_occupancy
  Cl  Cl1       1.0  0.65500  0.34500  0.03460  1.0000
  Cl  Cl2       1.0  0.84500  0.15500  0.46500  1.0000
  Cl  Cl3       1.0  0.15500  0.84500  0.53500  1.0000
  Cl  Cl4       1.0  0.34500  0.65500  0.96500  1.0000
  S   S1        1.0  0.25000  0.25000  0.25000  1.0000
  S   S2        1.0  0.75000  0.25000  0.25000  1.0000
  S   S3        1.0  0.75000  0.75000  0.25000  1.0000
  S   S4        1.0  0.25000  0.25000  0.75000  1.0000
  S   S5        1.0  0.25000  0.75000  0.75000  1.0000
  S   S6        1.0  0.75000  0.75000  0.75000  1.0000
