data_image0
_chemical_formula_structural       Cl4Mo6
_chemical_formula_sum              "Cl4 Mo6"
_cell_length_a       6.46526
_cell_length_b       6.46526
_cell_length_c       5.64986
_cell_angle_alpha    124.901
_cell_angle_beta     55.099
_cell_angle_gamma    120

_space_group_name_H-M_alt    "P 1"
_space_group_IT_number       1

loop_
  _space_group_symop_operation_xyz
  'x, y, z'

loop_
  _atom_site_type_symbol
  _atom_site_label
  _atom_site_symmetry_multiplicity
  _atom_site_fract_x
  _atom_site_fract_y
  _atom_site_fract_z
  _atom_site_occupancy
  Cl  Cl1       1.0  0.61100  0.38900  0.16700  1.0000
  Cl  Cl2       1.0  0.88900  0.11100  0.33300  1.0000
  Cl  Cl3       1.0  0.11100  0.88900  0.66700  1.0000
  Cl  Cl4       1.0  0.38900  0.61100  0.83300  1.0000
  Mo  Mo1       1.0  0.96500  0.46500  0.25000  1.0000
  Mo  Mo2       1.0  0.53500  0.75000  0.25000  1.0000
  Mo  Mo3       1.0  0.25000  0.03460  0.25000  1.0000
  Mo  Mo4       1.0  0.46500  0.25000  0.75000  1.0000
  Mo  Mo5       1.0  0.75000  0.96500  0.75000  1.0000
  Mo  Mo6       1.0  0.03460  0.53500  0.75000  1.0000
