data_image0
_chemical_formula_structural       Ba4S6
_chemical_formula_sum              "Ba4 S6"
_cell_length_a       6.07826
_cell_length_b       6.07826
_cell_length_c       9.11955
_cell_angle_alpha    109.466
_cell_angle_beta     109.466
_cell_angle_gamma    90

_space_group_name_H-M_alt    "P 1"
_space_group_IT_number       1

loop_
  _space_group_symop_operation_xyz
  'x, y, z'

loop_
  _atom_site_type_symbol
  _atom_site_label
  _atom_site_symmetry_multiplicity
  _atom_site_fract_x
  _atom_site_fract_y
  _atom_site_fract_z
  _atom_site_occupancy
  Ba  Ba1       1.0  0.04970  0.55000  0.09940  1.0000
  Ba  Ba2       1.0  0.20400  0.20400  0.40900  1.0000
  Ba  Ba3       1.0  0.80000  0.80000  0.59900  1.0000
  Ba  Ba4       1.0  0.45400  0.95400  0.90900  1.0000
  S   S1        1.0  0.99900  0.99900  0.99900  1.0000
  S   S2        1.0  0.64200  0.31600  0.28400  1.0000
  S   S3        1.0  0.64200  0.96800  0.28400  1.0000
  S   S4        1.0  0.24900  0.74900  0.49900  1.0000
  S   S5        1.0  0.21800  0.39200  0.78400  1.0000
  S   S6        1.0  0.56600  0.39200  0.78400  1.0000
