data_image0
_chemical_formula_structural       Cl4Zn6
_chemical_formula_sum              "Cl4 Zn6"
_cell_length_a       7.19855
_cell_length_b       7.19855
_cell_length_c       6.83976
_cell_angle_alpha    121.751
_cell_angle_beta     58.2491
_cell_angle_gamma    120

_space_group_name_H-M_alt    "P 1"
_space_group_IT_number       1

loop_
  _space_group_symop_operation_xyz
  'x, y, z'

loop_
  _atom_site_type_symbol
  _atom_site_label
  _atom_site_symmetry_multiplicity
  _atom_site_fract_x
  _atom_site_fract_y
  _atom_site_fract_z
  _atom_site_occupancy
  Cl  Cl1       1.0  0.64100  0.35900  0.07580  1.0000
  Cl  Cl2       1.0  0.85900  0.14100  0.42400  1.0000
  Cl  Cl3       1.0  0.14100  0.85900  0.57600  1.0000
  Cl  Cl4       1.0  0.35900  0.64100  0.92400  1.0000
  Zn  Zn1       1.0  0.56500  0.75000  0.25000  1.0000
  Zn  Zn2       1.0  0.93500  0.43500  0.25000  1.0000
  Zn  Zn3       1.0  0.25000  0.06480  0.25000  1.0000
  Zn  Zn4       1.0  0.75000  0.93500  0.75000  1.0000
  Zn  Zn5       1.0  0.06480  0.56500  0.75000  1.0000
  Zn  Zn6       1.0  0.43500  0.25000  0.75000  1.0000
