data_image0
_chemical_formula_structural       Bi4I6
_chemical_formula_sum              "Bi4 I6"
_cell_length_a       8.46483
_cell_length_b       8.46483
_cell_length_c       8.39382
_cell_angle_alpha    120.28
_cell_angle_beta     59.7197
_cell_angle_gamma    120

_space_group_name_H-M_alt    "P 1"
_space_group_IT_number       1

loop_
  _space_group_symop_operation_xyz
  'x, y, z'

loop_
  _atom_site_type_symbol
  _atom_site_label
  _atom_site_symmetry_multiplicity
  _atom_site_fract_x
  _atom_site_fract_y
  _atom_site_fract_z
  _atom_site_occupancy
  Bi  Bi1       1.0  0.32900  0.67100  0.01310  1.0000
  Bi  Bi2       1.0  0.17100  0.82900  0.48700  1.0000
  Bi  Bi3       1.0  0.82900  0.17100  0.51300  1.0000
  Bi  Bi4       1.0  0.67100  0.32900  0.98700  1.0000
  I   I1        1.0  0.61700  0.75000  0.25000  1.0000
  I   I2        1.0  0.25000  0.11700  0.25000  1.0000
  I   I3        1.0  0.88300  0.38300  0.25000  1.0000
  I   I4        1.0  0.11700  0.61700  0.75000  1.0000
  I   I5        1.0  0.75000  0.88300  0.75000  1.0000
  I   I6        1.0  0.38300  0.25000  0.75000  1.0000
