data_image0
_chemical_formula_structural       Cu4I6
_chemical_formula_sum              "Cu4 I6"
_cell_length_a       7.00978
_cell_length_b       7.00978
_cell_length_c       7.63336
_cell_angle_alpha    117.333
_cell_angle_beta     62.6674
_cell_angle_gamma    120

_space_group_name_H-M_alt    "P 1"
_space_group_IT_number       1

loop_
  _space_group_symop_operation_xyz
  'x, y, z'

loop_
  _atom_site_type_symbol
  _atom_site_label
  _atom_site_symmetry_multiplicity
  _atom_site_fract_x
  _atom_site_fract_y
  _atom_site_fract_z
  _atom_site_occupancy
  Cu  Cu1       1.0  0.64800  0.35200  0.05500  1.0000
  Cu  Cu2       1.0  0.85200  0.14800  0.44500  1.0000
  Cu  Cu3       1.0  0.14800  0.85200  0.55500  1.0000
  Cu  Cu4       1.0  0.35200  0.64800  0.94500  1.0000
  I   I1        1.0  0.93600  0.43600  0.25000  1.0000
  I   I2        1.0  0.56400  0.75000  0.25000  1.0000
  I   I3        1.0  0.25000  0.06430  0.25000  1.0000
  I   I4        1.0  0.75000  0.93600  0.75000  1.0000
  I   I5        1.0  0.43600  0.25000  0.75000  1.0000
  I   I6        1.0  0.06430  0.56400  0.75000  1.0000
