data_image0
_chemical_formula_structural       Br4Tm6
_chemical_formula_sum              "Br4 Tm6"
_cell_length_a       6.98306
_cell_length_b       6.98306
_cell_length_c       7.48439
_cell_angle_alpha    117.808
_cell_angle_beta     62.1921
_cell_angle_gamma    120

_space_group_name_H-M_alt    "P 1"
_space_group_IT_number       1

loop_
  _space_group_symop_operation_xyz
  'x, y, z'

loop_
  _atom_site_type_symbol
  _atom_site_label
  _atom_site_symmetry_multiplicity
  _atom_site_fract_x
  _atom_site_fract_y
  _atom_site_fract_z
  _atom_site_occupancy
  Br  Br1       1.0  0.33300  0.66700  0.00107  1.0000
  Br  Br2       1.0  0.16700  0.83300  0.49900  1.0000
  Br  Br3       1.0  0.83300  0.16700  0.50100  1.0000
  Br  Br4       1.0  0.66700  0.33300  0.99900  1.0000
  Tm  Tm1       1.0  0.60000  0.75000  0.25000  1.0000
  Tm  Tm2       1.0  0.90000  0.40000  0.25000  1.0000
  Tm  Tm3       1.0  0.25000  0.10000  0.25000  1.0000
  Tm  Tm4       1.0  0.75000  0.90000  0.75000  1.0000
  Tm  Tm5       1.0  0.10000  0.60000  0.75000  1.0000
  Tm  Tm6       1.0  0.40000  0.25000  0.75000  1.0000
