data_image0
_chemical_formula_structural       Br4Pr6
_chemical_formula_sum              "Br4 Pr6"
_cell_length_a       7.37451
_cell_length_b       7.37452
_cell_length_c       7.97208
_cell_angle_alpha    117.55
_cell_angle_beta     62.4501
_cell_angle_gamma    120

_space_group_name_H-M_alt    "P 1"
_space_group_IT_number       1

loop_
  _space_group_symop_operation_xyz
  'x, y, z'

loop_
  _atom_site_type_symbol
  _atom_site_label
  _atom_site_symmetry_multiplicity
  _atom_site_fract_x
  _atom_site_fract_y
  _atom_site_fract_z
  _atom_site_occupancy
  Br  Br1       1.0  0.66600  0.33400  0.00055  1.0000
  Br  Br2       1.0  0.83400  0.16600  0.49900  1.0000
  Br  Br3       1.0  0.16600  0.83400  0.50100  1.0000
  Br  Br4       1.0  0.33400  0.66600  0.99900  1.0000
  Pr  Pr1       1.0  0.59300  0.75000  0.25000  1.0000
  Pr  Pr2       1.0  0.25000  0.09350  0.25000  1.0000
  Pr  Pr3       1.0  0.90700  0.40700  0.25000  1.0000
  Pr  Pr4       1.0  0.09350  0.59300  0.75000  1.0000
  Pr  Pr5       1.0  0.75000  0.90700  0.75000  1.0000
  Pr  Pr6       1.0  0.40700  0.25000  0.75000  1.0000
