data_image0
_chemical_formula_structural       Pu4S6
_chemical_formula_sum              "Pu4 S6"
_cell_length_a       6.96179
_cell_length_b       6.96179
_cell_length_c       7.30129
_cell_angle_alpha    118.473
_cell_angle_beta     61.5266
_cell_angle_gamma    120

_space_group_name_H-M_alt    "P 1"
_space_group_IT_number       1

loop_
  _space_group_symop_operation_xyz
  'x, y, z'

loop_
  _atom_site_type_symbol
  _atom_site_label
  _atom_site_symmetry_multiplicity
  _atom_site_fract_x
  _atom_site_fract_y
  _atom_site_fract_z
  _atom_site_occupancy
  Pu  Pu1       1.0  0.64800  0.35200  0.05750  1.0000
  Pu  Pu2       1.0  0.85200  0.14800  0.44300  1.0000
  Pu  Pu3       1.0  0.14800  0.85200  0.55700  1.0000
  Pu  Pu4       1.0  0.35200  0.64800  0.94300  1.0000
  S   S1        1.0  0.95500  0.45500  0.25000  1.0000
  S   S2        1.0  0.54500  0.75000  0.25000  1.0000
  S   S3        1.0  0.25000  0.04450  0.25000  1.0000
  S   S4        1.0  0.75000  0.95500  0.75000  1.0000
  S   S5        1.0  0.45500  0.25000  0.75000  1.0000
  S   S6        1.0  0.04450  0.54500  0.75000  1.0000
