data_image0
_chemical_formula_structural       C4O6
_chemical_formula_sum              "C4 O6"
_cell_length_a       4.13416
_cell_length_b       4.13416
_cell_length_c       5.91152
_cell_angle_alpha    110.467
_cell_angle_beta     69.5329
_cell_angle_gamma    120

_space_group_name_H-M_alt    "P 1"
_space_group_IT_number       1

loop_
  _space_group_symop_operation_xyz
  'x, y, z'

loop_
  _atom_site_type_symbol
  _atom_site_label
  _atom_site_symmetry_multiplicity
  _atom_site_fract_x
  _atom_site_fract_y
  _atom_site_fract_z
  _atom_site_occupancy
  C   C1        1.0  0.60200  0.39800  0.19300  1.0000
  C   C2        1.0  0.89800  0.10200  0.30700  1.0000
  C   C3        1.0  0.10200  0.89800  0.69300  1.0000
  C   C4        1.0  0.39800  0.60200  0.80700  1.0000
  O   O1        1.0  0.25000  0.11600  0.25000  1.0000
  O   O2        1.0  0.88400  0.38400  0.25000  1.0000
  O   O3        1.0  0.61600  0.75000  0.25000  1.0000
  O   O4        1.0  0.38400  0.25000  0.75000  1.0000
  O   O5        1.0  0.11600  0.61600  0.75000  1.0000
  O   O6        1.0  0.75000  0.88400  0.75000  1.0000
