data_image0
_chemical_formula_structural       C4I6
_chemical_formula_sum              "C4 I6"
_cell_length_a       7.73984
_cell_length_b       7.73984
_cell_length_c       8.7299
_cell_angle_alpha    116.314
_cell_angle_beta     63.6857
_cell_angle_gamma    120

_space_group_name_H-M_alt    "P 1"
_space_group_IT_number       1

loop_
  _space_group_symop_operation_xyz
  'x, y, z'

loop_
  _atom_site_type_symbol
  _atom_site_label
  _atom_site_symmetry_multiplicity
  _atom_site_fract_x
  _atom_site_fract_y
  _atom_site_fract_z
  _atom_site_occupancy
  C   C1        1.0  0.58900  0.41100  0.23300  1.0000
  C   C2        1.0  0.91100  0.08890  0.26700  1.0000
  C   C3        1.0  0.08890  0.91100  0.73300  1.0000
  C   C4        1.0  0.41100  0.58900  0.76700  1.0000
  I   I1        1.0  0.25000  0.24900  0.25000  1.0000
  I   I2        1.0  0.75100  0.25100  0.25000  1.0000
  I   I3        1.0  0.74900  0.75000  0.25000  1.0000
  I   I4        1.0  0.25100  0.25000  0.75000  1.0000
  I   I5        1.0  0.24900  0.74900  0.75000  1.0000
  I   I6        1.0  0.75000  0.75100  0.75000  1.0000
