data_image0
_chemical_formula_structural       Cu4N6
_chemical_formula_sum              "Cu4 N6"
_cell_length_a       4.99578
_cell_length_b       4.99579
_cell_length_c       5.19205
_cell_angle_alpha    118.757
_cell_angle_beta     61.2427
_cell_angle_gamma    120

_space_group_name_H-M_alt    "P 1"
_space_group_IT_number       1

loop_
  _space_group_symop_operation_xyz
  'x, y, z'

loop_
  _atom_site_type_symbol
  _atom_site_label
  _atom_site_symmetry_multiplicity
  _atom_site_fract_x
  _atom_site_fract_y
  _atom_site_fract_z
  _atom_site_occupancy
  Cu  Cu1       1.0  0.64700  0.35300  0.05940  1.0000
  Cu  Cu2       1.0  0.85300  0.14700  0.44100  1.0000
  Cu  Cu3       1.0  0.14700  0.85300  0.55900  1.0000
  Cu  Cu4       1.0  0.35300  0.64700  0.94100  1.0000
  N   N1        1.0  0.55100  0.75000  0.25000  1.0000
  N   N2        1.0  0.94900  0.44900  0.25000  1.0000
  N   N3        1.0  0.25000  0.05060  0.25000  1.0000
  N   N4        1.0  0.75000  0.94900  0.75000  1.0000
  N   N5        1.0  0.05060  0.55100  0.75000  1.0000
  N   N6        1.0  0.44900  0.25000  0.75000  1.0000
