data_image0
_chemical_formula_structural       Al4N6
_chemical_formula_sum              "Al4 N6"
_cell_length_a       5.09009
_cell_length_b       5.0901
_cell_length_c       5.14622
_cell_angle_alpha    119.64
_cell_angle_beta     60.3601
_cell_angle_gamma    120

_space_group_name_H-M_alt    "P 1"
_space_group_IT_number       1

loop_
  _space_group_symop_operation_xyz
  'x, y, z'

loop_
  _atom_site_type_symbol
  _atom_site_label
  _atom_site_symmetry_multiplicity
  _atom_site_fract_x
  _atom_site_fract_y
  _atom_site_fract_z
  _atom_site_occupancy
  Al  Al1       1.0  0.64700  0.35300  0.05910  1.0000
  Al  Al2       1.0  0.85300  0.14700  0.44100  1.0000
  Al  Al3       1.0  0.14700  0.85300  0.55900  1.0000
  Al  Al4       1.0  0.35300  0.64700  0.94100  1.0000
  N   N1        1.0  0.92700  0.42700  0.25000  1.0000
  N   N2        1.0  0.57300  0.75000  0.25000  1.0000
  N   N3        1.0  0.25000  0.07270  0.25000  1.0000
  N   N4        1.0  0.75000  0.92700  0.75000  1.0000
  N   N5        1.0  0.42700  0.25000  0.75000  1.0000
  N   N6        1.0  0.07270  0.57300  0.75000  1.0000
