data_image0
_chemical_formula_structural       Br4Ta6
_chemical_formula_sum              "Br4 Ta6"
_cell_length_a       6.84693
_cell_length_b       6.84693
_cell_length_c       6.28023
_cell_angle_alpha    123.033
_cell_angle_beta     56.9673
_cell_angle_gamma    120

_space_group_name_H-M_alt    "P 1"
_space_group_IT_number       1

loop_
  _space_group_symop_operation_xyz
  'x, y, z'

loop_
  _atom_site_type_symbol
  _atom_site_label
  _atom_site_symmetry_multiplicity
  _atom_site_fract_x
  _atom_site_fract_y
  _atom_site_fract_z
  _atom_site_occupancy
  Br  Br1       1.0  0.59800  0.40200  0.20600  1.0000
  Br  Br2       1.0  0.90200  0.09810  0.29400  1.0000
  Br  Br3       1.0  0.09810  0.90200  0.70600  1.0000
  Br  Br4       1.0  0.40200  0.59800  0.79400  1.0000
  Ta  Ta1       1.0  0.25000  0.98900  0.25000  1.0000
  Ta  Ta2       1.0  0.01070  0.51100  0.25000  1.0000
  Ta  Ta3       1.0  0.48900  0.75000  0.25000  1.0000
  Ta  Ta4       1.0  0.51100  0.25000  0.75000  1.0000
  Ta  Ta5       1.0  0.98900  0.48900  0.75000  1.0000
  Ta  Ta6       1.0  0.75000  0.01070  0.75000  1.0000
