data_image0
_chemical_formula_structural       Ca4Cl6
_chemical_formula_sum              "Ca4 Cl6"
_cell_length_a       7.09631
_cell_length_b       7.09631
_cell_length_c       7.45945
_cell_angle_alpha    118.402
_cell_angle_beta     61.5977
_cell_angle_gamma    120

_space_group_name_H-M_alt    "P 1"
_space_group_IT_number       1

loop_
  _space_group_symop_operation_xyz
  'x, y, z'

loop_
  _atom_site_type_symbol
  _atom_site_label
  _atom_site_symmetry_multiplicity
  _atom_site_fract_x
  _atom_site_fract_y
  _atom_site_fract_z
  _atom_site_occupancy
  Ca  Ca1       1.0  0.65100  0.34900  0.04750  1.0000
  Ca  Ca2       1.0  0.84900  0.15100  0.45300  1.0000
  Ca  Ca3       1.0  0.15100  0.84900  0.54700  1.0000
  Ca  Ca4       1.0  0.34900  0.65100  0.95300  1.0000
  Cl  Cl1       1.0  0.94800  0.44800  0.25000  1.0000
  Cl  Cl2       1.0  0.55200  0.75000  0.25000  1.0000
  Cl  Cl3       1.0  0.25000  0.05160  0.25000  1.0000
  Cl  Cl4       1.0  0.75000  0.94800  0.75000  1.0000
  Cl  Cl5       1.0  0.44800  0.25000  0.75000  1.0000
  Cl  Cl6       1.0  0.05160  0.55200  0.75000  1.0000
