data_image0
_chemical_formula_structural       Br4Er6
_chemical_formula_sum              "Br4 Er6"
_cell_length_a       7.00711
_cell_length_b       7.00711
_cell_length_c       7.5145
_cell_angle_alpha    117.79
_cell_angle_beta     62.2095
_cell_angle_gamma    120

_space_group_name_H-M_alt    "P 1"
_space_group_IT_number       1

loop_
  _space_group_symop_operation_xyz
  'x, y, z'

loop_
  _atom_site_type_symbol
  _atom_site_label
  _atom_site_symmetry_multiplicity
  _atom_site_fract_x
  _atom_site_fract_y
  _atom_site_fract_z
  _atom_site_occupancy
  Br  Br1       1.0  0.33300  0.66700  0.00014  1.0000
  Br  Br2       1.0  0.16700  0.83300  0.50000  1.0000
  Br  Br3       1.0  0.83300  0.16700  0.50000  1.0000
  Br  Br4       1.0  0.66700  0.33300  0.00000  1.0000
  Er  Er1       1.0  0.59900  0.75000  0.25000  1.0000
  Er  Er2       1.0  0.25000  0.09880  0.25000  1.0000
  Er  Er3       1.0  0.90100  0.40100  0.25000  1.0000
  Er  Er4       1.0  0.09880  0.59900  0.75000  1.0000
  Er  Er5       1.0  0.75000  0.90100  0.75000  1.0000
  Er  Er6       1.0  0.40100  0.25000  0.75000  1.0000
