data_image0
_chemical_formula_structural       Br4Te6
_chemical_formula_sum              "Br4 Te6"
_cell_length_a       6.1139
_cell_length_b       6.1139
_cell_length_c       10.1148
_cell_angle_alpha    107.591
_cell_angle_beta     72.4088
_cell_angle_gamma    120

_space_group_name_H-M_alt    "P 1"
_space_group_IT_number       1

loop_
  _space_group_symop_operation_xyz
  'x, y, z'

loop_
  _atom_site_type_symbol
  _atom_site_label
  _atom_site_symmetry_multiplicity
  _atom_site_fract_x
  _atom_site_fract_y
  _atom_site_fract_z
  _atom_site_occupancy
  Br  Br1       1.0  0.32400  0.67600  0.02660  1.0000
  Br  Br2       1.0  0.17600  0.82400  0.47300  1.0000
  Br  Br3       1.0  0.82400  0.17600  0.52700  1.0000
  Br  Br4       1.0  0.67600  0.32400  0.97300  1.0000
  Te  Te1       1.0  0.83600  0.33600  0.25000  1.0000
  Te  Te2       1.0  0.25000  0.16400  0.25000  1.0000
  Te  Te3       1.0  0.66400  0.75000  0.25000  1.0000
  Te  Te4       1.0  0.33600  0.25000  0.75000  1.0000
  Te  Te5       1.0  0.75000  0.83600  0.75000  1.0000
  Te  Te6       1.0  0.16400  0.66400  0.75000  1.0000
