data_image0
_chemical_formula_structural       Br4Yb6
_chemical_formula_sum              "Br4 Yb6"
_cell_length_a       6.97701
_cell_length_b       6.97701
_cell_length_c       8.43313
_cell_angle_alpha    114.435
_cell_angle_beta     65.5646
_cell_angle_gamma    120

_space_group_name_H-M_alt    "P 1"
_space_group_IT_number       1

loop_
  _space_group_symop_operation_xyz
  'x, y, z'

loop_
  _atom_site_type_symbol
  _atom_site_label
  _atom_site_symmetry_multiplicity
  _atom_site_fract_x
  _atom_site_fract_y
  _atom_site_fract_z
  _atom_site_occupancy
  Br  Br1       1.0  0.32800  0.67200  0.01510  1.0000
  Br  Br2       1.0  0.17200  0.82800  0.48500  1.0000
  Br  Br3       1.0  0.82800  0.17200  0.51500  1.0000
  Br  Br4       1.0  0.67200  0.32800  0.98500  1.0000
  Yb  Yb1       1.0  0.89700  0.39700  0.25000  1.0000
  Yb  Yb2       1.0  0.25000  0.10300  0.25000  1.0000
  Yb  Yb3       1.0  0.60300  0.75000  0.25000  1.0000
  Yb  Yb4       1.0  0.39700  0.25000  0.75000  1.0000
  Yb  Yb5       1.0  0.75000  0.89700  0.75000  1.0000
  Yb  Yb6       1.0  0.10300  0.60300  0.75000  1.0000
