data_image0
_chemical_formula_structural       Cr4F6
_chemical_formula_sum              "Cr4 F6"
_cell_length_a       5.51963
_cell_length_b       5.51963
_cell_length_c       5.92117
_cell_angle_alpha    117.781
_cell_angle_beta     62.219
_cell_angle_gamma    120

_space_group_name_H-M_alt    "P 1"
_space_group_IT_number       1

loop_
  _space_group_symop_operation_xyz
  'x, y, z'

loop_
  _atom_site_type_symbol
  _atom_site_label
  _atom_site_symmetry_multiplicity
  _atom_site_fract_x
  _atom_site_fract_y
  _atom_site_fract_z
  _atom_site_occupancy
  Cr  Cr1       1.0  0.64800  0.35200  0.05540  1.0000
  Cr  Cr2       1.0  0.85200  0.14800  0.44500  1.0000
  Cr  Cr3       1.0  0.14800  0.85200  0.55500  1.0000
  Cr  Cr4       1.0  0.35200  0.64800  0.94500  1.0000
  F   F1        1.0  0.25000  0.05470  0.25000  1.0000
  F   F2        1.0  0.55500  0.75000  0.25000  1.0000
  F   F3        1.0  0.94500  0.44500  0.25000  1.0000
  F   F4        1.0  0.05470  0.55500  0.75000  1.0000
  F   F5        1.0  0.44500  0.25000  0.75000  1.0000
  F   F6        1.0  0.75000  0.94500  0.75000  1.0000
