data_image0
_chemical_formula_structural       Br4Ru6
_chemical_formula_sum              "Br4 Ru6"
_cell_length_a       6.59122
_cell_length_b       6.59122
_cell_length_c       5.90555
_cell_angle_alpha    123.921
_cell_angle_beta     56.0788
_cell_angle_gamma    120

_space_group_name_H-M_alt    "P 1"
_space_group_IT_number       1

loop_
  _space_group_symop_operation_xyz
  'x, y, z'

loop_
  _atom_site_type_symbol
  _atom_site_label
  _atom_site_symmetry_multiplicity
  _atom_site_fract_x
  _atom_site_fract_y
  _atom_site_fract_z
  _atom_site_occupancy
  Br  Br1       1.0  0.61300  0.38700  0.16100  1.0000
  Br  Br2       1.0  0.88700  0.11300  0.33900  1.0000
  Br  Br3       1.0  0.11300  0.88700  0.66100  1.0000
  Br  Br4       1.0  0.38700  0.61300  0.83900  1.0000
  Ru  Ru1       1.0  0.50400  0.75000  0.25000  1.0000
  Ru  Ru2       1.0  0.99600  0.49600  0.25000  1.0000
  Ru  Ru3       1.0  0.25000  0.00399  0.25000  1.0000
  Ru  Ru4       1.0  0.75000  0.99600  0.75000  1.0000
  Ru  Ru5       1.0  0.00399  0.50400  0.75000  1.0000
  Ru  Ru6       1.0  0.49600  0.25000  0.75000  1.0000
