data_image0
_chemical_formula_structural       Br4Ho6
_chemical_formula_sum              "Br4 Ho6"
_cell_length_a       7.02841
_cell_length_b       7.02841
_cell_length_c       7.55406
_cell_angle_alpha    117.724
_cell_angle_beta     62.2763
_cell_angle_gamma    120

_space_group_name_H-M_alt    "P 1"
_space_group_IT_number       1

loop_
  _space_group_symop_operation_xyz
  'x, y, z'

loop_
  _atom_site_type_symbol
  _atom_site_label
  _atom_site_symmetry_multiplicity
  _atom_site_fract_x
  _atom_site_fract_y
  _atom_site_fract_z
  _atom_site_occupancy
  Br  Br1       1.0  0.33300  0.66700  0.00046  1.0000
  Br  Br2       1.0  0.16700  0.83300  0.50000  1.0000
  Br  Br3       1.0  0.83300  0.16700  0.50000  1.0000
  Br  Br4       1.0  0.66700  0.33300  0.00000  1.0000
  Ho  Ho1       1.0  0.59800  0.75000  0.25000  1.0000
  Ho  Ho2       1.0  0.90200  0.40200  0.25000  1.0000
  Ho  Ho3       1.0  0.25000  0.09810  0.25000  1.0000
  Ho  Ho4       1.0  0.75000  0.90200  0.75000  1.0000
  Ho  Ho5       1.0  0.09810  0.59800  0.75000  1.0000
  Ho  Ho6       1.0  0.40200  0.25000  0.75000  1.0000
