data_image0
_chemical_formula_structural       Br4Ca6
_chemical_formula_sum              "Br4 Ca6"
_cell_length_a       7.17319
_cell_length_b       7.17319
_cell_length_c       8.23663
_cell_angle_alpha    115.814
_cell_angle_beta     64.1864
_cell_angle_gamma    120

_space_group_name_H-M_alt    "P 1"
_space_group_IT_number       1

loop_
  _space_group_symop_operation_xyz
  'x, y, z'

loop_
  _atom_site_type_symbol
  _atom_site_label
  _atom_site_symmetry_multiplicity
  _atom_site_fract_x
  _atom_site_fract_y
  _atom_site_fract_z
  _atom_site_occupancy
  Br  Br1       1.0  0.33100  0.66900  0.00787  1.0000
  Br  Br2       1.0  0.16900  0.83100  0.49200  1.0000
  Br  Br3       1.0  0.83100  0.16900  0.50800  1.0000
  Br  Br4       1.0  0.66900  0.33100  0.99200  1.0000
  Ca  Ca1       1.0  0.60000  0.75000  0.25000  1.0000
  Ca  Ca2       1.0  0.90000  0.40000  0.25000  1.0000
  Ca  Ca3       1.0  0.25000  0.09970  0.25000  1.0000
  Ca  Ca4       1.0  0.75000  0.90000  0.75000  1.0000
  Ca  Ca5       1.0  0.09970  0.60000  0.75000  1.0000
  Ca  Ca6       1.0  0.40000  0.25000  0.75000  1.0000
