data_image0
_chemical_formula_structural       Ir4N6
_chemical_formula_sum              "Ir4 N6"
_cell_length_a       5.0153
_cell_length_b       5.01531
_cell_length_c       5.72097
_cell_angle_alpha    115.997
_cell_angle_beta     64.0029
_cell_angle_gamma    120

_space_group_name_H-M_alt    "P 1"
_space_group_IT_number       1

loop_
  _space_group_symop_operation_xyz
  'x, y, z'

loop_
  _atom_site_type_symbol
  _atom_site_label
  _atom_site_symmetry_multiplicity
  _atom_site_fract_x
  _atom_site_fract_y
  _atom_site_fract_z
  _atom_site_occupancy
  Ir  Ir1       1.0  0.64700  0.35300  0.05810  1.0000
  Ir  Ir2       1.0  0.85300  0.14700  0.44200  1.0000
  Ir  Ir3       1.0  0.14700  0.85300  0.55800  1.0000
  Ir  Ir4       1.0  0.35300  0.64700  0.94200  1.0000
  N   N1        1.0  0.25000  0.06630  0.25000  1.0000
  N   N2        1.0  0.93400  0.43400  0.25000  1.0000
  N   N3        1.0  0.56600  0.75000  0.25000  1.0000
  N   N4        1.0  0.43400  0.25000  0.75000  1.0000
  N   N5        1.0  0.06630  0.56600  0.75000  1.0000
  N   N6        1.0  0.75000  0.93400  0.75000  1.0000
