data_image0
_chemical_formula_structural       Cl4Pa6
_chemical_formula_sum              "Cl4 Pa6"
_cell_length_a       6.71606
_cell_length_b       6.71606
_cell_length_c       7.22103
_cell_angle_alpha    117.712
_cell_angle_beta     62.2875
_cell_angle_gamma    120

_space_group_name_H-M_alt    "P 1"
_space_group_IT_number       1

loop_
  _space_group_symop_operation_xyz
  'x, y, z'

loop_
  _atom_site_type_symbol
  _atom_site_label
  _atom_site_symmetry_multiplicity
  _atom_site_fract_x
  _atom_site_fract_y
  _atom_site_fract_z
  _atom_site_occupancy
  Cl  Cl1       1.0  0.66400  0.33600  0.00870  1.0000
  Cl  Cl2       1.0  0.83600  0.16400  0.49100  1.0000
  Cl  Cl3       1.0  0.16400  0.83600  0.50900  1.0000
  Cl  Cl4       1.0  0.33600  0.66400  0.99100  1.0000
  Pa  Pa1       1.0  0.58400  0.75000  0.25000  1.0000
  Pa  Pa2       1.0  0.91600  0.41600  0.25000  1.0000
  Pa  Pa3       1.0  0.25000  0.08410  0.25000  1.0000
  Pa  Pa4       1.0  0.75000  0.91600  0.75000  1.0000
  Pa  Pa5       1.0  0.08410  0.58400  0.75000  1.0000
  Pa  Pa6       1.0  0.41600  0.25000  0.75000  1.0000
