data_image0
_chemical_formula_structural       F4Gd6
_chemical_formula_sum              "F4 Gd6"
_cell_length_a       6.40296
_cell_length_b       6.40296
_cell_length_c       6.69768
_cell_angle_alpha    118.555
_cell_angle_beta     61.4452
_cell_angle_gamma    120

_space_group_name_H-M_alt    "P 1"
_space_group_IT_number       1

loop_
  _space_group_symop_operation_xyz
  'x, y, z'

loop_
  _atom_site_type_symbol
  _atom_site_label
  _atom_site_symmetry_multiplicity
  _atom_site_fract_x
  _atom_site_fract_y
  _atom_site_fract_z
  _atom_site_occupancy
  F   F1        1.0  0.33300  0.66700  0.00167  1.0000
  F   F2        1.0  0.16700  0.83300  0.49800  1.0000
  F   F3        1.0  0.83300  0.16700  0.50200  1.0000
  F   F4        1.0  0.66700  0.33300  0.99800  1.0000
  Gd  Gd1       1.0  0.58700  0.75000  0.25000  1.0000
  Gd  Gd2       1.0  0.25000  0.08700  0.25000  1.0000
  Gd  Gd3       1.0  0.91300  0.41300  0.25000  1.0000
  Gd  Gd4       1.0  0.08700  0.58700  0.75000  1.0000
  Gd  Gd5       1.0  0.75000  0.91300  0.75000  1.0000
  Gd  Gd6       1.0  0.41300  0.25000  0.75000  1.0000
