data_image0
_chemical_formula_structural       Fe4S6
_chemical_formula_sum              "Fe4 S6"
_cell_length_a       5.81402
_cell_length_b       5.81402
_cell_length_c       5.74526
_cell_angle_alpha    120.397
_cell_angle_beta     59.6033
_cell_angle_gamma    120

_space_group_name_H-M_alt    "P 1"
_space_group_IT_number       1

loop_
  _space_group_symop_operation_xyz
  'x, y, z'

loop_
  _atom_site_type_symbol
  _atom_site_label
  _atom_site_symmetry_multiplicity
  _atom_site_fract_x
  _atom_site_fract_y
  _atom_site_fract_z
  _atom_site_occupancy
  Fe  Fe1       1.0  0.65900  0.34100  0.02450  1.0000
  Fe  Fe2       1.0  0.84100  0.15900  0.47600  1.0000
  Fe  Fe3       1.0  0.15900  0.84100  0.52400  1.0000
  Fe  Fe4       1.0  0.34100  0.65900  0.97600  1.0000
  S   S1        1.0  0.56900  0.75000  0.25000  1.0000
  S   S2        1.0  0.25000  0.06860  0.25000  1.0000
  S   S3        1.0  0.93100  0.43100  0.25000  1.0000
  S   S4        1.0  0.06860  0.56900  0.75000  1.0000
  S   S5        1.0  0.75000  0.93100  0.75000  1.0000
  S   S6        1.0  0.43100  0.25000  0.75000  1.0000
