data_image0
_chemical_formula_structural       Cl4Sb6
_chemical_formula_sum              "Cl4 Sb6"
_cell_length_a       7.16447
_cell_length_b       7.16448
_cell_length_c       9.73255
_cell_angle_alpha    111.597
_cell_angle_beta     68.4035
_cell_angle_gamma    120

_space_group_name_H-M_alt    "P 1"
_space_group_IT_number       1

loop_
  _space_group_symop_operation_xyz
  'x, y, z'

loop_
  _atom_site_type_symbol
  _atom_site_label
  _atom_site_symmetry_multiplicity
  _atom_site_fract_x
  _atom_site_fract_y
  _atom_site_fract_z
  _atom_site_occupancy
  Cl  Cl1       1.0  0.65300  0.34700  0.04080  1.0000
  Cl  Cl2       1.0  0.84700  0.15300  0.45900  1.0000
  Cl  Cl3       1.0  0.15300  0.84700  0.54100  1.0000
  Cl  Cl4       1.0  0.34700  0.65300  0.95900  1.0000
  Sb  Sb1       1.0  0.47700  0.75000  0.25000  1.0000
  Sb  Sb2       1.0  0.25000  0.97700  0.25000  1.0000
  Sb  Sb3       1.0  0.02320  0.52300  0.25000  1.0000
  Sb  Sb4       1.0  0.97700  0.47700  0.75000  1.0000
  Sb  Sb5       1.0  0.75000  0.02320  0.75000  1.0000
  Sb  Sb6       1.0  0.52300  0.25000  0.75000  1.0000
