data_image0
_chemical_formula_structural       Cl4Pm6
_chemical_formula_sum              "Cl4 Pm6"
_cell_length_a       7.04257
_cell_length_b       7.04257
_cell_length_c       7.52171
_cell_angle_alpha    117.914
_cell_angle_beta     62.0858
_cell_angle_gamma    120

_space_group_name_H-M_alt    "P 1"
_space_group_IT_number       1

loop_
  _space_group_symop_operation_xyz
  'x, y, z'

loop_
  _atom_site_type_symbol
  _atom_site_label
  _atom_site_symmetry_multiplicity
  _atom_site_fract_x
  _atom_site_fract_y
  _atom_site_fract_z
  _atom_site_occupancy
  Cl  Cl1       1.0  0.66600  0.33400  0.00317  1.0000
  Cl  Cl2       1.0  0.83400  0.16600  0.49700  1.0000
  Cl  Cl3       1.0  0.16600  0.83400  0.50300  1.0000
  Cl  Cl4       1.0  0.33400  0.66600  0.99700  1.0000
  Pm  Pm1       1.0  0.59100  0.75000  0.25000  1.0000
  Pm  Pm2       1.0  0.90900  0.40900  0.25000  1.0000
  Pm  Pm3       1.0  0.25000  0.09080  0.25000  1.0000
  Pm  Pm4       1.0  0.75000  0.90900  0.75000  1.0000
  Pm  Pm5       1.0  0.09080  0.59100  0.75000  1.0000
  Pm  Pm6       1.0  0.40900  0.25000  0.75000  1.0000
