data_image0
_chemical_formula_structural       Li4S6
_chemical_formula_sum              "Li4 S6"
_cell_length_a       6.80785
_cell_length_b       6.80785
_cell_length_c       5.49641
_cell_angle_alpha    128.265
_cell_angle_beta     51.735
_cell_angle_gamma    120

_space_group_name_H-M_alt    "P 1"
_space_group_IT_number       1

loop_
  _space_group_symop_operation_xyz
  'x, y, z'

loop_
  _atom_site_type_symbol
  _atom_site_label
  _atom_site_symmetry_multiplicity
  _atom_site_fract_x
  _atom_site_fract_y
  _atom_site_fract_z
  _atom_site_occupancy
  Li  Li1       1.0  0.62100  0.37900  0.13800  1.0000
  Li  Li2       1.0  0.87900  0.12100  0.36200  1.0000
  Li  Li3       1.0  0.12100  0.87900  0.63800  1.0000
  Li  Li4       1.0  0.37900  0.62100  0.86200  1.0000
  S   S1        1.0  0.54000  0.75000  0.25000  1.0000
  S   S2        1.0  0.96000  0.46000  0.25000  1.0000
  S   S3        1.0  0.25000  0.04010  0.25000  1.0000
  S   S4        1.0  0.75000  0.96000  0.75000  1.0000
  S   S5        1.0  0.04010  0.54000  0.75000  1.0000
  S   S6        1.0  0.46000  0.25000  0.75000  1.0000
