data_image0
_chemical_formula_structural       F4Tl6
_chemical_formula_sum              "F4 Tl6"
_cell_length_a       6.34603
_cell_length_b       6.34603
_cell_length_c       7.52604
_cell_angle_alpha    114.936
_cell_angle_beta     65.0641
_cell_angle_gamma    120

_space_group_name_H-M_alt    "P 1"
_space_group_IT_number       1

loop_
  _space_group_symop_operation_xyz
  'x, y, z'

loop_
  _atom_site_type_symbol
  _atom_site_label
  _atom_site_symmetry_multiplicity
  _atom_site_fract_x
  _atom_site_fract_y
  _atom_site_fract_z
  _atom_site_occupancy
  F   F1        1.0  0.32300  0.67700  0.03060  1.0000
  F   F2        1.0  0.17700  0.82300  0.46900  1.0000
  F   F3        1.0  0.82300  0.17700  0.53100  1.0000
  F   F4        1.0  0.67700  0.32300  0.96900  1.0000
  Tl  Tl1       1.0  0.25000  0.10500  0.25000  1.0000
  Tl  Tl2       1.0  0.89500  0.39500  0.25000  1.0000
  Tl  Tl3       1.0  0.60500  0.75000  0.25000  1.0000
  Tl  Tl4       1.0  0.39500  0.25000  0.75000  1.0000
  Tl  Tl5       1.0  0.10500  0.60500  0.75000  1.0000
  Tl  Tl6       1.0  0.75000  0.89500  0.75000  1.0000
