data_image0
_chemical_formula_structural       Er4N6
_chemical_formula_sum              "Er4 N6"
_cell_length_a       5.86769
_cell_length_b       5.86769
_cell_length_c       6.11635
_cell_angle_alpha    118.664
_cell_angle_beta     61.336
_cell_angle_gamma    120

_space_group_name_H-M_alt    "P 1"
_space_group_IT_number       1

loop_
  _space_group_symop_operation_xyz
  'x, y, z'

loop_
  _atom_site_type_symbol
  _atom_site_label
  _atom_site_symmetry_multiplicity
  _atom_site_fract_x
  _atom_site_fract_y
  _atom_site_fract_z
  _atom_site_occupancy
  Er  Er1       1.0  0.64200  0.35800  0.07440  1.0000
  Er  Er2       1.0  0.85800  0.14200  0.42600  1.0000
  Er  Er3       1.0  0.14200  0.85800  0.57400  1.0000
  Er  Er4       1.0  0.35800  0.64200  0.92600  1.0000
  N   N1        1.0  0.53400  0.75000  0.25000  1.0000
  N   N2        1.0  0.25000  0.03410  0.25000  1.0000
  N   N3        1.0  0.96600  0.46600  0.25000  1.0000
  N   N4        1.0  0.03410  0.53400  0.75000  1.0000
  N   N5        1.0  0.75000  0.96600  0.75000  1.0000
  N   N6        1.0  0.46600  0.25000  0.75000  1.0000
