data_image0
_chemical_formula_structural       Cl4Tm6
_chemical_formula_sum              "Cl4 Tm6"
_cell_length_a       6.74239
_cell_length_b       6.74239
_cell_length_c       7.14238
_cell_angle_alpha    118.164
_cell_angle_beta     61.8359
_cell_angle_gamma    120

_space_group_name_H-M_alt    "P 1"
_space_group_IT_number       1

loop_
  _space_group_symop_operation_xyz
  'x, y, z'

loop_
  _atom_site_type_symbol
  _atom_site_label
  _atom_site_symmetry_multiplicity
  _atom_site_fract_x
  _atom_site_fract_y
  _atom_site_fract_z
  _atom_site_occupancy
  Cl  Cl1       1.0  0.66600  0.33400  0.00102  1.0000
  Cl  Cl2       1.0  0.83400  0.16600  0.49900  1.0000
  Cl  Cl3       1.0  0.16600  0.83400  0.50100  1.0000
  Cl  Cl4       1.0  0.33400  0.66600  0.99900  1.0000
  Tm  Tm1       1.0  0.90500  0.40500  0.25000  1.0000
  Tm  Tm2       1.0  0.25000  0.09530  0.25000  1.0000
  Tm  Tm3       1.0  0.59500  0.75000  0.25000  1.0000
  Tm  Tm4       1.0  0.40500  0.25000  0.75000  1.0000
  Tm  Tm5       1.0  0.75000  0.90500  0.75000  1.0000
  Tm  Tm6       1.0  0.09530  0.59500  0.75000  1.0000
