data_image0
_chemical_formula_structural       F4Sb6
_chemical_formula_sum              "F4 Sb6"
_cell_length_a       6.62827
_cell_length_b       6.62827
_cell_length_c       6.40304
_cell_angle_alpha    121.171
_cell_angle_beta     58.8294
_cell_angle_gamma    120

_space_group_name_H-M_alt    "P 1"
_space_group_IT_number       1

loop_
  _space_group_symop_operation_xyz
  'x, y, z'

loop_
  _atom_site_type_symbol
  _atom_site_label
  _atom_site_symmetry_multiplicity
  _atom_site_fract_x
  _atom_site_fract_y
  _atom_site_fract_z
  _atom_site_occupancy
  F   F1        1.0  0.91800  0.08190  0.24600  1.0000
  F   F2        1.0  0.58200  0.41800  0.25400  1.0000
  F   F3        1.0  0.41800  0.58200  0.74600  1.0000
  F   F4        1.0  0.08190  0.91800  0.75400  1.0000
  Sb  Sb1       1.0  0.52500  0.75000  0.25000  1.0000
  Sb  Sb2       1.0  0.97500  0.47500  0.25000  1.0000
  Sb  Sb3       1.0  0.25000  0.02500  0.25000  1.0000
  Sb  Sb4       1.0  0.75000  0.97500  0.75000  1.0000
  Sb  Sb5       1.0  0.02500  0.52500  0.75000  1.0000
  Sb  Sb6       1.0  0.47500  0.25000  0.75000  1.0000
