data_image0
_chemical_formula_structural       Cl4Re6
_chemical_formula_sum              "Cl4 Re6"
_cell_length_a       7.13215
_cell_length_b       7.13215
_cell_length_c       5.32929
_cell_angle_alpha    132.001
_cell_angle_beta     47.9988
_cell_angle_gamma    120

_space_group_name_H-M_alt    "P 1"
_space_group_IT_number       1

loop_
  _space_group_symop_operation_xyz
  'x, y, z'

loop_
  _atom_site_type_symbol
  _atom_site_label
  _atom_site_symmetry_multiplicity
  _atom_site_fract_x
  _atom_site_fract_y
  _atom_site_fract_z
  _atom_site_occupancy
  Cl  Cl1       1.0  0.62700  0.37300  0.12000  1.0000
  Cl  Cl2       1.0  0.87300  0.12700  0.38000  1.0000
  Cl  Cl3       1.0  0.12700  0.87300  0.62000  1.0000
  Cl  Cl4       1.0  0.37300  0.62700  0.88000  1.0000
  Re  Re1       1.0  0.90100  0.40100  0.25000  1.0000
  Re  Re2       1.0  0.59900  0.75000  0.25000  1.0000
  Re  Re3       1.0  0.25000  0.09890  0.25000  1.0000
  Re  Re4       1.0  0.75000  0.90100  0.75000  1.0000
  Re  Re5       1.0  0.40100  0.25000  0.75000  1.0000
  Re  Re6       1.0  0.09890  0.59900  0.75000  1.0000
