data_image0
_chemical_formula_structural       I4Te6
_chemical_formula_sum              "I4 Te6"
_cell_length_a       6.2591
_cell_length_b       6.2591
_cell_length_c       10.7711
_cell_angle_alpha    106.891
_cell_angle_beta     73.109
_cell_angle_gamma    120

_space_group_name_H-M_alt    "P 1"
_space_group_IT_number       1

loop_
  _space_group_symop_operation_xyz
  'x, y, z'

loop_
  _atom_site_type_symbol
  _atom_site_label
  _atom_site_symmetry_multiplicity
  _atom_site_fract_x
  _atom_site_fract_y
  _atom_site_fract_z
  _atom_site_occupancy
  I   I1        1.0  0.32300  0.67700  0.03050  1.0000
  I   I2        1.0  0.17700  0.82300  0.46900  1.0000
  I   I3        1.0  0.82300  0.17700  0.53100  1.0000
  I   I4        1.0  0.67700  0.32300  0.96900  1.0000
  Te  Te1       1.0  0.83100  0.33100  0.25000  1.0000
  Te  Te2       1.0  0.25000  0.16900  0.25000  1.0000
  Te  Te3       1.0  0.66900  0.75000  0.25000  1.0000
  Te  Te4       1.0  0.33100  0.25000  0.75000  1.0000
  Te  Te5       1.0  0.75000  0.83100  0.75000  1.0000
  Te  Te6       1.0  0.16900  0.66900  0.75000  1.0000
