data_image0
_chemical_formula_structural       Ba4N6
_chemical_formula_sum              "Ba4 N6"
_cell_length_a       5.92156
_cell_length_b       5.92156
_cell_length_c       7.90339
_cell_angle_alpha    112.001
_cell_angle_beta     67.9991
_cell_angle_gamma    120

_space_group_name_H-M_alt    "P 1"
_space_group_IT_number       1

loop_
  _space_group_symop_operation_xyz
  'x, y, z'

loop_
  _atom_site_type_symbol
  _atom_site_label
  _atom_site_symmetry_multiplicity
  _atom_site_fract_x
  _atom_site_fract_y
  _atom_site_fract_z
  _atom_site_occupancy
  Ba  Ba1       1.0  0.62700  0.37300  0.12000  1.0000
  Ba  Ba2       1.0  0.87300  0.12700  0.38000  1.0000
  Ba  Ba3       1.0  0.12700  0.87300  0.62000  1.0000
  Ba  Ba4       1.0  0.37300  0.62700  0.88000  1.0000
  N   N1        1.0  0.10600  0.60600  0.25000  1.0000
  N   N2        1.0  0.39400  0.75000  0.25000  1.0000
  N   N3        1.0  0.25000  0.89400  0.25000  1.0000
  N   N4        1.0  0.75000  0.10600  0.75000  1.0000
  N   N5        1.0  0.60600  0.25000  0.75000  1.0000
  N   N6        1.0  0.89400  0.39400  0.75000  1.0000
