data_image0
_chemical_formula_structural       Cl4Nd6
_chemical_formula_sum              "Cl4 Nd6"
_cell_length_a       7.11342
_cell_length_b       7.11342
_cell_length_c       7.57819
_cell_angle_alpha    117.991
_cell_angle_beta     62.0089
_cell_angle_gamma    120

_space_group_name_H-M_alt    "P 1"
_space_group_IT_number       1

loop_
  _space_group_symop_operation_xyz
  'x, y, z'

loop_
  _atom_site_type_symbol
  _atom_site_label
  _atom_site_symmetry_multiplicity
  _atom_site_fract_x
  _atom_site_fract_y
  _atom_site_fract_z
  _atom_site_occupancy
  Cl  Cl1       1.0  0.66500  0.33500  0.00421  1.0000
  Cl  Cl2       1.0  0.83500  0.16500  0.49600  1.0000
  Cl  Cl3       1.0  0.16500  0.83500  0.50400  1.0000
  Cl  Cl4       1.0  0.33500  0.66500  0.99600  1.0000
  Nd  Nd1       1.0  0.25000  0.08950  0.25000  1.0000
  Nd  Nd2       1.0  0.91100  0.41100  0.25000  1.0000
  Nd  Nd3       1.0  0.58900  0.75000  0.25000  1.0000
  Nd  Nd4       1.0  0.41100  0.25000  0.75000  1.0000
  Nd  Nd5       1.0  0.08950  0.58900  0.75000  1.0000
  Nd  Nd6       1.0  0.75000  0.91100  0.75000  1.0000
