data_image0
_chemical_formula_structural       F4P6
_chemical_formula_sum              "F4 P6"
_cell_length_a       6.44698
_cell_length_b       6.44698
_cell_length_c       6.62788
_cell_angle_alpha    119.101
_cell_angle_beta     60.8988
_cell_angle_gamma    120

_space_group_name_H-M_alt    "P 1"
_space_group_IT_number       1

loop_
  _space_group_symop_operation_xyz
  'x, y, z'

loop_
  _atom_site_type_symbol
  _atom_site_label
  _atom_site_symmetry_multiplicity
  _atom_site_fract_x
  _atom_site_fract_y
  _atom_site_fract_z
  _atom_site_occupancy
  F   F1        1.0  0.63400  0.36600  0.09780  1.0000
  F   F2        1.0  0.86600  0.13400  0.40200  1.0000
  F   F3        1.0  0.13400  0.86600  0.59800  1.0000
  F   F4        1.0  0.36600  0.63400  0.90200  1.0000
  P   P1        1.0  0.05800  0.55800  0.25000  1.0000
  P   P2        1.0  0.44200  0.75000  0.25000  1.0000
  P   P3        1.0  0.25000  0.94200  0.25000  1.0000
  P   P4        1.0  0.75000  0.05800  0.75000  1.0000
  P   P5        1.0  0.55800  0.25000  0.75000  1.0000
  P   P6        1.0  0.94200  0.44200  0.75000  1.0000
