data_image0
_chemical_formula_structural       I4Os6
_chemical_formula_sum              "I4 Os6"
_cell_length_a       6.80979
_cell_length_b       6.80979
_cell_length_c       6.26644
_cell_angle_alpha    122.912
_cell_angle_beta     57.0878
_cell_angle_gamma    120

_space_group_name_H-M_alt    "P 1"
_space_group_IT_number       1

loop_
  _space_group_symop_operation_xyz
  'x, y, z'

loop_
  _atom_site_type_symbol
  _atom_site_label
  _atom_site_symmetry_multiplicity
  _atom_site_fract_x
  _atom_site_fract_y
  _atom_site_fract_z
  _atom_site_occupancy
  I   I1        1.0  0.61100  0.38900  0.16800  1.0000
  I   I2        1.0  0.88900  0.11100  0.33200  1.0000
  I   I3        1.0  0.11100  0.88900  0.66800  1.0000
  I   I4        1.0  0.38900  0.61100  0.83200  1.0000
  Os  Os1       1.0  0.49600  0.75000  0.25000  1.0000
  Os  Os2       1.0  0.25000  0.99600  0.25000  1.0000
  Os  Os3       1.0  0.00395  0.50400  0.25000  1.0000
  Os  Os4       1.0  0.99600  0.49600  0.75000  1.0000
  Os  Os5       1.0  0.75000  0.00395  0.75000  1.0000
  Os  Os6       1.0  0.50400  0.25000  0.75000  1.0000
