data_image0
_chemical_formula_structural       F4Ti6
_chemical_formula_sum              "F4 Ti6"
_cell_length_a       5.63803
_cell_length_b       5.63803
_cell_length_c       5.67534
_cell_angle_alpha    119.783
_cell_angle_beta     60.2172
_cell_angle_gamma    120

_space_group_name_H-M_alt    "P 1"
_space_group_IT_number       1

loop_
  _space_group_symop_operation_xyz
  'x, y, z'

loop_
  _atom_site_type_symbol
  _atom_site_label
  _atom_site_symmetry_multiplicity
  _atom_site_fract_x
  _atom_site_fract_y
  _atom_site_fract_z
  _atom_site_occupancy
  F   F1        1.0  0.66300  0.33700  0.01100  1.0000
  F   F2        1.0  0.83700  0.16300  0.48900  1.0000
  F   F3        1.0  0.16300  0.83700  0.51100  1.0000
  F   F4        1.0  0.33700  0.66300  0.98900  1.0000
  Ti  Ti1       1.0  0.62800  0.75000  0.25000  1.0000
  Ti  Ti2       1.0  0.87200  0.37200  0.25000  1.0000
  Ti  Ti3       1.0  0.25000  0.12800  0.25000  1.0000
  Ti  Ti4       1.0  0.75000  0.87200  0.75000  1.0000
  Ti  Ti5       1.0  0.12800  0.62800  0.75000  1.0000
  Ti  Ti6       1.0  0.37200  0.25000  0.75000  1.0000
