data_image0
_chemical_formula_structural       Ce4Cl6
_chemical_formula_sum              "Ce4 Cl6"
_cell_length_a       6.66338
_cell_length_b       6.66338
_cell_length_c       8.50557
_cell_angle_alpha    113.061
_cell_angle_beta     66.9393
_cell_angle_gamma    120

_space_group_name_H-M_alt    "P 1"
_space_group_IT_number       1

loop_
  _space_group_symop_operation_xyz
  'x, y, z'

loop_
  _atom_site_type_symbol
  _atom_site_label
  _atom_site_symmetry_multiplicity
  _atom_site_fract_x
  _atom_site_fract_y
  _atom_site_fract_z
  _atom_site_occupancy
  Ce  Ce1       1.0  0.33200  0.66800  0.00347  1.0000
  Ce  Ce2       1.0  0.16800  0.83200  0.49700  1.0000
  Ce  Ce3       1.0  0.83200  0.16800  0.50300  1.0000
  Ce  Ce4       1.0  0.66800  0.33200  0.99700  1.0000
  Cl  Cl1       1.0  0.25000  0.08710  0.25000  1.0000
  Cl  Cl2       1.0  0.58700  0.75000  0.25000  1.0000
  Cl  Cl3       1.0  0.91300  0.41300  0.25000  1.0000
  Cl  Cl4       1.0  0.08720  0.58700  0.75000  1.0000
  Cl  Cl5       1.0  0.41300  0.25000  0.75000  1.0000
  Cl  Cl6       1.0  0.75000  0.91300  0.75000  1.0000
