data_image0
_chemical_formula_structural       I4Ir6
_chemical_formula_sum              "I4 Ir6"
_cell_length_a       6.69004
_cell_length_b       6.69005
_cell_length_c       6.59644
_cell_angle_alpha    120.471
_cell_angle_beta     59.5295
_cell_angle_gamma    120

_space_group_name_H-M_alt    "P 1"
_space_group_IT_number       1

loop_
  _space_group_symop_operation_xyz
  'x, y, z'

loop_
  _atom_site_type_symbol
  _atom_site_label
  _atom_site_symmetry_multiplicity
  _atom_site_fract_x
  _atom_site_fract_y
  _atom_site_fract_z
  _atom_site_occupancy
  I   I1        1.0  0.61200  0.38800  0.16500  1.0000
  I   I2        1.0  0.88800  0.11200  0.33500  1.0000
  I   I3        1.0  0.11200  0.88800  0.66500  1.0000
  I   I4        1.0  0.38800  0.61200  0.83500  1.0000
  Ir  Ir1       1.0  0.25000  0.98600  0.25000  1.0000
  Ir  Ir2       1.0  0.48600  0.75000  0.25000  1.0000
  Ir  Ir3       1.0  0.01380  0.51400  0.25000  1.0000
  Ir  Ir4       1.0  0.98600  0.48600  0.75000  1.0000
  Ir  Ir5       1.0  0.51400  0.25000  0.75000  1.0000
  Ir  Ir6       1.0  0.75000  0.01380  0.75000  1.0000
