data_image0
_chemical_formula_structural       F4Mn6
_chemical_formula_sum              "F4 Mn6"
_cell_length_a       5.50455
_cell_length_b       5.50455
_cell_length_c       5.90292
_cell_angle_alpha    117.792
_cell_angle_beta     62.2084
_cell_angle_gamma    120

_space_group_name_H-M_alt    "P 1"
_space_group_IT_number       1

loop_
  _space_group_symop_operation_xyz
  'x, y, z'

loop_
  _atom_site_type_symbol
  _atom_site_label
  _atom_site_symmetry_multiplicity
  _atom_site_fract_x
  _atom_site_fract_y
  _atom_site_fract_z
  _atom_site_occupancy
  F   F1        1.0  0.33000  0.67000  0.00891  1.0000
  F   F2        1.0  0.17000  0.83000  0.49100  1.0000
  F   F3        1.0  0.83000  0.17000  0.50900  1.0000
  F   F4        1.0  0.67000  0.33000  0.99100  1.0000
  Mn  Mn1       1.0  0.60800  0.75000  0.25000  1.0000
  Mn  Mn2       1.0  0.89200  0.39200  0.25000  1.0000
  Mn  Mn3       1.0  0.25000  0.10800  0.25000  1.0000
  Mn  Mn4       1.0  0.75000  0.89200  0.75000  1.0000
  Mn  Mn5       1.0  0.10800  0.60800  0.75000  1.0000
  Mn  Mn6       1.0  0.39200  0.25000  0.75000  1.0000
