data_image0
_chemical_formula_structural       Br4Sn6
_chemical_formula_sum              "Br4 Sn6"
_cell_length_a       8.89949
_cell_length_b       8.89949
_cell_length_c       6.93355
_cell_angle_alpha    129.924
_cell_angle_beta     50.076
_cell_angle_gamma    120

_space_group_name_H-M_alt    "P 1"
_space_group_IT_number       1

loop_
  _space_group_symop_operation_xyz
  'x, y, z'

loop_
  _atom_site_type_symbol
  _atom_site_label
  _atom_site_symmetry_multiplicity
  _atom_site_fract_x
  _atom_site_fract_y
  _atom_site_fract_z
  _atom_site_occupancy
  Br  Br1       1.0  0.63700  0.36300  0.08840  1.0000
  Br  Br2       1.0  0.86300  0.13700  0.41200  1.0000
  Br  Br3       1.0  0.13700  0.86300  0.58800  1.0000
  Br  Br4       1.0  0.36300  0.63700  0.91200  1.0000
  Sn  Sn1       1.0  0.65400  0.75000  0.25000  1.0000
  Sn  Sn2       1.0  0.84600  0.34600  0.25000  1.0000
  Sn  Sn3       1.0  0.25000  0.15400  0.25000  1.0000
  Sn  Sn4       1.0  0.75000  0.84600  0.75000  1.0000
  Sn  Sn5       1.0  0.15400  0.65400  0.75000  1.0000
  Sn  Sn6       1.0  0.34600  0.25000  0.75000  1.0000
