data_image0
_chemical_formula_structural       I4Mo6
_chemical_formula_sum              "I4 Mo6"
_cell_length_a       6.98083
_cell_length_b       6.98083
_cell_length_c       6.2782
_cell_angle_alpha    123.777
_cell_angle_beta     56.2233
_cell_angle_gamma    120

_space_group_name_H-M_alt    "P 1"
_space_group_IT_number       1

loop_
  _space_group_symop_operation_xyz
  'x, y, z'

loop_
  _atom_site_type_symbol
  _atom_site_label
  _atom_site_symmetry_multiplicity
  _atom_site_fract_x
  _atom_site_fract_y
  _atom_site_fract_z
  _atom_site_occupancy
  I   I1        1.0  0.61000  0.39000  0.17100  1.0000
  I   I2        1.0  0.89000  0.11000  0.32900  1.0000
  I   I3        1.0  0.11000  0.89000  0.67100  1.0000
  I   I4        1.0  0.39000  0.61000  0.82900  1.0000
  Mo  Mo1       1.0  0.98700  0.48700  0.25000  1.0000
  Mo  Mo2       1.0  0.51300  0.75000  0.25000  1.0000
  Mo  Mo3       1.0  0.25000  0.01350  0.25000  1.0000
  Mo  Mo4       1.0  0.75000  0.98700  0.75000  1.0000
  Mo  Mo5       1.0  0.48700  0.25000  0.75000  1.0000
  Mo  Mo6       1.0  0.01350  0.51300  0.75000  1.0000
