data_image0
_chemical_formula_structural       As4I6
_chemical_formula_sum              "As4 I6"
_cell_length_a       7.53633
_cell_length_b       7.53633
_cell_length_c       8.26555
_cell_angle_alpha    117.122
_cell_angle_beta     62.8779
_cell_angle_gamma    120

_space_group_name_H-M_alt    "P 1"
_space_group_IT_number       1

loop_
  _space_group_symop_operation_xyz
  'x, y, z'

loop_
  _atom_site_type_symbol
  _atom_site_label
  _atom_site_symmetry_multiplicity
  _atom_site_fract_x
  _atom_site_fract_y
  _atom_site_fract_z
  _atom_site_occupancy
  As  As1       1.0  0.65800  0.34200  0.02500  1.0000
  As  As2       1.0  0.84200  0.15800  0.47500  1.0000
  As  As3       1.0  0.15800  0.84200  0.52500  1.0000
  As  As4       1.0  0.34200  0.65800  0.97500  1.0000
  I   I1        1.0  0.25000  0.11400  0.25000  1.0000
  I   I2        1.0  0.88600  0.38600  0.25000  1.0000
  I   I3        1.0  0.61400  0.75000  0.25000  1.0000
  I   I4        1.0  0.38600  0.25000  0.75000  1.0000
  I   I5        1.0  0.11400  0.61400  0.75000  1.0000
  I   I6        1.0  0.75000  0.88600  0.75000  1.0000
