data_image0
_chemical_formula_structural       I4Si6
_chemical_formula_sum              "I4 Si6"
_cell_length_a       8.22281
_cell_length_b       8.22281
_cell_length_c       6.7401
_cell_angle_alpha    127.589
_cell_angle_beta     52.4111
_cell_angle_gamma    120

_space_group_name_H-M_alt    "P 1"
_space_group_IT_number       1

loop_
  _space_group_symop_operation_xyz
  'x, y, z'

loop_
  _atom_site_type_symbol
  _atom_site_label
  _atom_site_symmetry_multiplicity
  _atom_site_fract_x
  _atom_site_fract_y
  _atom_site_fract_z
  _atom_site_occupancy
  I   I1        1.0  0.62600  0.37400  0.12200  1.0000
  I   I2        1.0  0.87400  0.12600  0.37800  1.0000
  I   I3        1.0  0.12600  0.87400  0.62200  1.0000
  I   I4        1.0  0.37400  0.62600  0.87800  1.0000
  Si  Si1       1.0  0.91900  0.41900  0.25000  1.0000
  Si  Si2       1.0  0.58100  0.75000  0.25000  1.0000
  Si  Si3       1.0  0.25000  0.08100  0.25000  1.0000
  Si  Si4       1.0  0.75000  0.91900  0.75000  1.0000
  Si  Si5       1.0  0.41900  0.25000  0.75000  1.0000
  Si  Si6       1.0  0.08100  0.58100  0.75000  1.0000
