data_image0
_chemical_formula_structural       I4S6
_chemical_formula_sum              "I4 S6"
_cell_length_a       6.82917
_cell_length_b       6.82917
_cell_length_c       8.01747
_cell_angle_alpha    115.207
_cell_angle_beta     64.7928
_cell_angle_gamma    120

_space_group_name_H-M_alt    "P 1"
_space_group_IT_number       1

loop_
  _space_group_symop_operation_xyz
  'x, y, z'

loop_
  _atom_site_type_symbol
  _atom_site_label
  _atom_site_symmetry_multiplicity
  _atom_site_fract_x
  _atom_site_fract_y
  _atom_site_fract_z
  _atom_site_occupancy
  I   I1        1.0  0.65700  0.34300  0.03030  1.0000
  I   I2        1.0  0.84300  0.15700  0.47000  1.0000
  I   I3        1.0  0.15700  0.84300  0.53000  1.0000
  I   I4        1.0  0.34300  0.65700  0.97000  1.0000
  S   S1        1.0  0.90900  0.40900  0.25000  1.0000
  S   S2        1.0  0.59100  0.75000  0.25000  1.0000
  S   S3        1.0  0.25000  0.09130  0.25000  1.0000
  S   S4        1.0  0.75000  0.90900  0.75000  1.0000
  S   S5        1.0  0.40900  0.25000  0.75000  1.0000
  S   S6        1.0  0.09130  0.59100  0.75000  1.0000
