data_image0
_chemical_formula_structural       Hf4S6
_chemical_formula_sum              "Hf4 S6"
_cell_length_a       6.3094
_cell_length_b       6.3094
_cell_length_c       6.97526
_cell_angle_alpha    116.889
_cell_angle_beta     63.1106
_cell_angle_gamma    120

_space_group_name_H-M_alt    "P 1"
_space_group_IT_number       1

loop_
  _space_group_symop_operation_xyz
  'x, y, z'

loop_
  _atom_site_type_symbol
  _atom_site_label
  _atom_site_symmetry_multiplicity
  _atom_site_fract_x
  _atom_site_fract_y
  _atom_site_fract_z
  _atom_site_occupancy
  Hf  Hf1       1.0  0.66300  0.33700  0.01000  1.0000
  Hf  Hf2       1.0  0.83700  0.16300  0.49000  1.0000
  Hf  Hf3       1.0  0.16300  0.83700  0.51000  1.0000
  Hf  Hf4       1.0  0.33700  0.66300  0.99000  1.0000
  S   S1        1.0  0.25000  0.07560  0.25000  1.0000
  S   S2        1.0  0.92400  0.42400  0.25000  1.0000
  S   S3        1.0  0.57600  0.75000  0.25000  1.0000
  S   S4        1.0  0.42400  0.25000  0.75000  1.0000
  S   S5        1.0  0.07560  0.57600  0.75000  1.0000
  S   S6        1.0  0.75000  0.92400  0.75000  1.0000
