data_image0
_chemical_formula_structural       I4N6
_chemical_formula_sum              "I4 N6"
_cell_length_a       5.58746
_cell_length_b       5.58746
_cell_length_c       6.8443
_cell_angle_alpha    114.091
_cell_angle_beta     65.9092
_cell_angle_gamma    120

_space_group_name_H-M_alt    "P 1"
_space_group_IT_number       1

loop_
  _space_group_symop_operation_xyz
  'x, y, z'

loop_
  _atom_site_type_symbol
  _atom_site_label
  _atom_site_symmetry_multiplicity
  _atom_site_fract_x
  _atom_site_fract_y
  _atom_site_fract_z
  _atom_site_occupancy
  I   I1        1.0  0.63600  0.36400  0.09340  1.0000
  I   I2        1.0  0.86400  0.13600  0.40700  1.0000
  I   I3        1.0  0.13600  0.86400  0.59300  1.0000
  I   I4        1.0  0.36400  0.63600  0.90700  1.0000
  N   N1        1.0  0.25000  0.08810  0.25000  1.0000
  N   N2        1.0  0.91200  0.41200  0.25000  1.0000
  N   N3        1.0  0.58800  0.75000  0.25000  1.0000
  N   N4        1.0  0.41200  0.25000  0.75000  1.0000
  N   N5        1.0  0.08810  0.58800  0.75000  1.0000
  N   N6        1.0  0.75000  0.91200  0.75000  1.0000
