data_image0
_chemical_formula_structural       F4Ga6
_chemical_formula_sum              "F4 Ga6"
_cell_length_a       5.39286
_cell_length_b       5.39286
_cell_length_c       7.16553
_cell_angle_alpha    112.105
_cell_angle_beta     67.895
_cell_angle_gamma    120

_space_group_name_H-M_alt    "P 1"
_space_group_IT_number       1

loop_
  _space_group_symop_operation_xyz
  'x, y, z'

loop_
  _atom_site_type_symbol
  _atom_site_label
  _atom_site_symmetry_multiplicity
  _atom_site_fract_x
  _atom_site_fract_y
  _atom_site_fract_z
  _atom_site_occupancy
  F   F1        1.0  0.31700  0.68300  0.05000  1.0000
  F   F2        1.0  0.18300  0.81700  0.45000  1.0000
  F   F3        1.0  0.81700  0.18300  0.55000  1.0000
  F   F4        1.0  0.68300  0.31700  0.95000  1.0000
  Ga  Ga1       1.0  0.62700  0.75000  0.25000  1.0000
  Ga  Ga2       1.0  0.87300  0.37300  0.25000  1.0000
  Ga  Ga3       1.0  0.25000  0.12700  0.25000  1.0000
  Ga  Ga4       1.0  0.75000  0.87300  0.75000  1.0000
  Ga  Ga5       1.0  0.12700  0.62700  0.75000  1.0000
  Ga  Ga6       1.0  0.37300  0.25000  0.75000  1.0000
