data_image0
_chemical_formula_structural       I4Sr6
_chemical_formula_sum              "I4 Sr6"
_cell_length_a       7.85376
_cell_length_b       7.85376
_cell_length_c       9.51634
_cell_angle_alpha    114.371
_cell_angle_beta     65.6289
_cell_angle_gamma    120

_space_group_name_H-M_alt    "P 1"
_space_group_IT_number       1

loop_
  _space_group_symop_operation_xyz
  'x, y, z'

loop_
  _atom_site_type_symbol
  _atom_site_label
  _atom_site_symmetry_multiplicity
  _atom_site_fract_x
  _atom_site_fract_y
  _atom_site_fract_z
  _atom_site_occupancy
  I   I1        1.0  0.32800  0.67200  0.01690  1.0000
  I   I2        1.0  0.17200  0.82800  0.48300  1.0000
  I   I3        1.0  0.82800  0.17200  0.51700  1.0000
  I   I4        1.0  0.67200  0.32800  0.98300  1.0000
  Sr  Sr1       1.0  0.25000  0.10700  0.25000  1.0000
  Sr  Sr2       1.0  0.89300  0.39300  0.25000  1.0000
  Sr  Sr3       1.0  0.60700  0.75000  0.25000  1.0000
  Sr  Sr4       1.0  0.39300  0.25000  0.75000  1.0000
  Sr  Sr5       1.0  0.10700  0.60700  0.75000  1.0000
  Sr  Sr6       1.0  0.75000  0.89300  0.75000  1.0000
