data_image0
_chemical_formula_structural       Fe4I6
_chemical_formula_sum              "Fe4 I6"
_cell_length_a       7.02653
_cell_length_b       7.02653
_cell_length_c       7.65032
_cell_angle_alpha    117.338
_cell_angle_beta     62.6625
_cell_angle_gamma    120

_space_group_name_H-M_alt    "P 1"
_space_group_IT_number       1

loop_
  _space_group_symop_operation_xyz
  'x, y, z'

loop_
  _atom_site_type_symbol
  _atom_site_label
  _atom_site_symmetry_multiplicity
  _atom_site_fract_x
  _atom_site_fract_y
  _atom_site_fract_z
  _atom_site_occupancy
  Fe  Fe1       1.0  0.65900  0.34100  0.02250  1.0000
  Fe  Fe2       1.0  0.84100  0.15900  0.47700  1.0000
  Fe  Fe3       1.0  0.15900  0.84100  0.52300  1.0000
  Fe  Fe4       1.0  0.34100  0.65900  0.97700  1.0000
  I   I1        1.0  0.57200  0.75000  0.25000  1.0000
  I   I2        1.0  0.25000  0.07190  0.25000  1.0000
  I   I3        1.0  0.92800  0.42800  0.25000  1.0000
  I   I4        1.0  0.07190  0.57200  0.75000  1.0000
  I   I5        1.0  0.75000  0.92800  0.75000  1.0000
  I   I6        1.0  0.42800  0.25000  0.75000  1.0000
