data_image0
_chemical_formula_structural       Mg4S6
_chemical_formula_sum              "Mg4 S6"
_cell_length_a       6.72554
_cell_length_b       6.72554
_cell_length_c       6.39641
_cell_angle_alpha    121.717
_cell_angle_beta     58.2828
_cell_angle_gamma    120

_space_group_name_H-M_alt    "P 1"
_space_group_IT_number       1

loop_
  _space_group_symop_operation_xyz
  'x, y, z'

loop_
  _atom_site_type_symbol
  _atom_site_label
  _atom_site_symmetry_multiplicity
  _atom_site_fract_x
  _atom_site_fract_y
  _atom_site_fract_z
  _atom_site_occupancy
  Mg  Mg1       1.0  0.64600  0.35400  0.06120  1.0000
  Mg  Mg2       1.0  0.85400  0.14600  0.43900  1.0000
  Mg  Mg3       1.0  0.14600  0.85400  0.56100  1.0000
  Mg  Mg4       1.0  0.35400  0.64600  0.93900  1.0000
  S   S1        1.0  0.93200  0.43200  0.25000  1.0000
  S   S2        1.0  0.56800  0.75000  0.25000  1.0000
  S   S3        1.0  0.25000  0.06800  0.25000  1.0000
  S   S4        1.0  0.75000  0.93200  0.75000  1.0000
  S   S5        1.0  0.43200  0.25000  0.75000  1.0000
  S   S6        1.0  0.06800  0.56800  0.75000  1.0000
