data_image0
_chemical_formula_structural       F4Re6
_chemical_formula_sum              "F4 Re6"
_cell_length_a       5.79197
_cell_length_b       5.79197
_cell_length_c       5.43456
_cell_angle_alpha    122.2
_cell_angle_beta     57.7996
_cell_angle_gamma    120

_space_group_name_H-M_alt    "P 1"
_space_group_IT_number       1

loop_
  _space_group_symop_operation_xyz
  'x, y, z'

loop_
  _atom_site_type_symbol
  _atom_site_label
  _atom_site_symmetry_multiplicity
  _atom_site_fract_x
  _atom_site_fract_y
  _atom_site_fract_z
  _atom_site_occupancy
  F   F1        1.0  0.92000  0.08000  0.24000  1.0000
  F   F2        1.0  0.58000  0.42000  0.26000  1.0000
  F   F3        1.0  0.42000  0.58000  0.74000  1.0000
  F   F4        1.0  0.08000  0.92000  0.76000  1.0000
  Re  Re1       1.0  0.97900  0.47900  0.25000  1.0000
  Re  Re2       1.0  0.25000  0.02100  0.25000  1.0000
  Re  Re3       1.0  0.52100  0.75000  0.25000  1.0000
  Re  Re4       1.0  0.47900  0.25000  0.75000  1.0000
  Re  Re5       1.0  0.75000  0.97900  0.75000  1.0000
  Re  Re6       1.0  0.02100  0.52100  0.75000  1.0000
