data_image0
_chemical_formula_structural       I4Pd6
_chemical_formula_sum              "I4 Pd6"
_cell_length_a       6.73461
_cell_length_b       6.73462
_cell_length_c       7.17784
_cell_angle_alpha    117.978
_cell_angle_beta     62.0225
_cell_angle_gamma    120

_space_group_name_H-M_alt    "P 1"
_space_group_IT_number       1

loop_
  _space_group_symop_operation_xyz
  'x, y, z'

loop_
  _atom_site_type_symbol
  _atom_site_label
  _atom_site_symmetry_multiplicity
  _atom_site_fract_x
  _atom_site_fract_y
  _atom_site_fract_z
  _atom_site_occupancy
  I   I1        1.0  0.61400  0.38600  0.15900  1.0000
  I   I2        1.0  0.88600  0.11400  0.34100  1.0000
  I   I3        1.0  0.11400  0.88600  0.65900  1.0000
  I   I4        1.0  0.38600  0.61400  0.84100  1.0000
  Pd  Pd1       1.0  0.02050  0.52000  0.25000  1.0000
  Pd  Pd2       1.0  0.25000  0.98000  0.25000  1.0000
  Pd  Pd3       1.0  0.48000  0.75000  0.25000  1.0000
  Pd  Pd4       1.0  0.52000  0.25000  0.75000  1.0000
  Pd  Pd5       1.0  0.75000  0.02050  0.75000  1.0000
  Pd  Pd6       1.0  0.98000  0.48000  0.75000  1.0000
