data_image0
_chemical_formula_structural       Gd4N6
_chemical_formula_sum              "Gd4 N6"
_cell_length_a       6.02644
_cell_length_b       6.02644
_cell_length_c       6.20839
_cell_angle_alpha    119.035
_cell_angle_beta     60.9648
_cell_angle_gamma    120

_space_group_name_H-M_alt    "P 1"
_space_group_IT_number       1

loop_
  _space_group_symop_operation_xyz
  'x, y, z'

loop_
  _atom_site_type_symbol
  _atom_site_label
  _atom_site_symmetry_multiplicity
  _atom_site_fract_x
  _atom_site_fract_y
  _atom_site_fract_z
  _atom_site_occupancy
  Gd  Gd1       1.0  0.64000  0.36000  0.08090  1.0000
  Gd  Gd2       1.0  0.86000  0.14000  0.41900  1.0000
  Gd  Gd3       1.0  0.14000  0.86000  0.58100  1.0000
  Gd  Gd4       1.0  0.36000  0.64000  0.91900  1.0000
  N   N1        1.0  0.53100  0.75000  0.25000  1.0000
  N   N2        1.0  0.25000  0.03090  0.25000  1.0000
  N   N3        1.0  0.96900  0.46900  0.25000  1.0000
  N   N4        1.0  0.03090  0.53100  0.75000  1.0000
  N   N5        1.0  0.75000  0.96900  0.75000  1.0000
  N   N6        1.0  0.46900  0.25000  0.75000  1.0000
