data_image0
_chemical_formula_structural       Br4In6
_chemical_formula_sum              "Br4 In6"
_cell_length_a       6.65541
_cell_length_b       6.65541
_cell_length_c       9.02788
_cell_angle_alpha    111.63
_cell_angle_beta     68.3705
_cell_angle_gamma    120

_space_group_name_H-M_alt    "P 1"
_space_group_IT_number       1

loop_
  _space_group_symop_operation_xyz
  'x, y, z'

loop_
  _atom_site_type_symbol
  _atom_site_label
  _atom_site_symmetry_multiplicity
  _atom_site_fract_x
  _atom_site_fract_y
  _atom_site_fract_z
  _atom_site_occupancy
  Br  Br1       1.0  0.31700  0.68300  0.04960  1.0000
  Br  Br2       1.0  0.18300  0.81700  0.45000  1.0000
  Br  Br3       1.0  0.81700  0.18300  0.55000  1.0000
  Br  Br4       1.0  0.68300  0.31700  0.95000  1.0000
  In  In1       1.0  0.25000  0.17100  0.25000  1.0000
  In  In2       1.0  0.82900  0.32900  0.25000  1.0000
  In  In3       1.0  0.67100  0.75000  0.25000  1.0000
  In  In4       1.0  0.32900  0.25000  0.75000  1.0000
  In  In5       1.0  0.17100  0.67100  0.75000  1.0000
  In  In6       1.0  0.75000  0.82900  0.75000  1.0000
