data_image0
_chemical_formula_structural       I4U6
_chemical_formula_sum              "I4 U6"
_cell_length_a       8.40534
_cell_length_b       8.40534
_cell_length_c       6.90046
_cell_angle_alpha    127.52
_cell_angle_beta     52.4798
_cell_angle_gamma    120

_space_group_name_H-M_alt    "P 1"
_space_group_IT_number       1

loop_
  _space_group_symop_operation_xyz
  'x, y, z'

loop_
  _atom_site_type_symbol
  _atom_site_label
  _atom_site_symmetry_multiplicity
  _atom_site_fract_x
  _atom_site_fract_y
  _atom_site_fract_z
  _atom_site_occupancy
  I   I1        1.0  0.62900  0.37100  0.11200  1.0000
  I   I2        1.0  0.87100  0.12900  0.38800  1.0000
  I   I3        1.0  0.12900  0.87100  0.61200  1.0000
  I   I4        1.0  0.37100  0.62900  0.88800  1.0000
  U   U1        1.0  0.53100  0.75000  0.25000  1.0000
  U   U2        1.0  0.96900  0.46900  0.25000  1.0000
  U   U3        1.0  0.25000  0.03080  0.25000  1.0000
  U   U4        1.0  0.75000  0.96900  0.75000  1.0000
  U   U5        1.0  0.03080  0.53100  0.75000  1.0000
  U   U6        1.0  0.46900  0.25000  0.75000  1.0000
