data_image0
_chemical_formula_structural       Br4Th6
_chemical_formula_sum              "Br4 Th6"
_cell_length_a       6.75899
_cell_length_b       6.75898
_cell_length_c       8.54412
_cell_angle_alpha    113.299
_cell_angle_beta     66.7007
_cell_angle_gamma    120

_space_group_name_H-M_alt    "P 1"
_space_group_IT_number       1

loop_
  _space_group_symop_operation_xyz
  'x, y, z'

loop_
  _atom_site_type_symbol
  _atom_site_label
  _atom_site_symmetry_multiplicity
  _atom_site_fract_x
  _atom_site_fract_y
  _atom_site_fract_z
  _atom_site_occupancy
  Br  Br1       1.0  0.32700  0.67300  0.02040  1.0000
  Br  Br2       1.0  0.17300  0.82700  0.48000  1.0000
  Br  Br3       1.0  0.82700  0.17300  0.52000  1.0000
  Br  Br4       1.0  0.67300  0.32700  0.98000  1.0000
  Th  Th1       1.0  0.25000  0.11300  0.25000  1.0000
  Th  Th2       1.0  0.88700  0.38700  0.25000  1.0000
  Th  Th3       1.0  0.61300  0.75000  0.25000  1.0000
  Th  Th4       1.0  0.38700  0.25000  0.75000  1.0000
  Th  Th5       1.0  0.11300  0.61300  0.75000  1.0000
  Th  Th6       1.0  0.75000  0.88700  0.75000  1.0000
