data_image0
_chemical_formula_structural       Mg2S4
_chemical_formula_sum              "Mg2 S4"
_cell_length_a       4.02345
_cell_length_b       4.02344
_cell_length_c       10.6951
_cell_angle_alpha    90
_cell_angle_beta     90
_cell_angle_gamma    120

_space_group_name_H-M_alt    "P 1"
_space_group_IT_number       1

loop_
  _space_group_symop_operation_xyz
  'x, y, z'

loop_
  _atom_site_type_symbol
  _atom_site_label
  _atom_site_symmetry_multiplicity
  _atom_site_fract_x
  _atom_site_fract_y
  _atom_site_fract_z
  _atom_site_occupancy
  Mg  Mg1       1.0  0.00000  0.00000  0.64900  1.0000
  Mg  Mg2       1.0  0.66700  0.33300  0.85100  1.0000
  S   S1        1.0  0.00000  0.00000  0.89400  1.0000
  S   S2        1.0  0.66700  0.33300  0.22500  1.0000
  S   S3        1.0  0.00000  0.00000  0.27500  1.0000
  S   S4        1.0  0.66700  0.33300  0.60600  1.0000
