data_image0
_chemical_formula_structural       Cl4Th6
_chemical_formula_sum              "Cl4 Th6"
_cell_length_a       6.89588
_cell_length_b       6.89588
_cell_length_c       7.6975
_cell_angle_alpha    116.611
_cell_angle_beta     63.389
_cell_angle_gamma    120

_space_group_name_H-M_alt    "P 1"
_space_group_IT_number       1

loop_
  _space_group_symop_operation_xyz
  'x, y, z'

loop_
  _atom_site_type_symbol
  _atom_site_label
  _atom_site_symmetry_multiplicity
  _atom_site_fract_x
  _atom_site_fract_y
  _atom_site_fract_z
  _atom_site_occupancy
  Cl  Cl1       1.0  0.33100  0.66900  0.00771  1.0000
  Cl  Cl2       1.0  0.16900  0.83100  0.49200  1.0000
  Cl  Cl3       1.0  0.83100  0.16900  0.50800  1.0000
  Cl  Cl4       1.0  0.66900  0.33100  0.99200  1.0000
  Th  Th1       1.0  0.59700  0.75000  0.25000  1.0000
  Th  Th2       1.0  0.90300  0.40300  0.25000  1.0000
  Th  Th3       1.0  0.25000  0.09730  0.25000  1.0000
  Th  Th4       1.0  0.75000  0.90300  0.75000  1.0000
  Th  Th5       1.0  0.09730  0.59700  0.75000  1.0000
  Th  Th6       1.0  0.40300  0.25000  0.75000  1.0000
