data_image0
_chemical_formula_structural       F4Pd6
_chemical_formula_sum              "F4 Pd6"
_cell_length_a       6.70907
_cell_length_b       6.70907
_cell_length_c       5.14683
_cell_angle_alpha    130.675
_cell_angle_beta     49.325
_cell_angle_gamma    120

_space_group_name_H-M_alt    "P 1"
_space_group_IT_number       1

loop_
  _space_group_symop_operation_xyz
  'x, y, z'

loop_
  _atom_site_type_symbol
  _atom_site_label
  _atom_site_symmetry_multiplicity
  _atom_site_fract_x
  _atom_site_fract_y
  _atom_site_fract_z
  _atom_site_occupancy
  F   F1        1.0  0.62700  0.37300  0.11900  1.0000
  F   F2        1.0  0.87300  0.12700  0.38100  1.0000
  F   F3        1.0  0.12700  0.87300  0.61900  1.0000
  F   F4        1.0  0.37300  0.62700  0.88100  1.0000
  Pd  Pd1       1.0  0.25000  0.08960  0.25000  1.0000
  Pd  Pd2       1.0  0.91000  0.41000  0.25000  1.0000
  Pd  Pd3       1.0  0.59000  0.75000  0.25000  1.0000
  Pd  Pd4       1.0  0.41000  0.25000  0.75000  1.0000
  Pd  Pd5       1.0  0.08960  0.59000  0.75000  1.0000
  Pd  Pd6       1.0  0.75000  0.91000  0.75000  1.0000
