data_image0
_chemical_formula_structural       Ce4N6
_chemical_formula_sum              "Ce4 N6"
_cell_length_a       6.36466
_cell_length_b       6.36467
_cell_length_c       6.45421
_cell_angle_alpha    119.542
_cell_angle_beta     60.4579
_cell_angle_gamma    120

_space_group_name_H-M_alt    "P 1"
_space_group_IT_number       1

loop_
  _space_group_symop_operation_xyz
  'x, y, z'

loop_
  _atom_site_type_symbol
  _atom_site_label
  _atom_site_symmetry_multiplicity
  _atom_site_fract_x
  _atom_site_fract_y
  _atom_site_fract_z
  _atom_site_occupancy
  Ce  Ce1       1.0  0.63700  0.36300  0.09020  1.0000
  Ce  Ce2       1.0  0.86300  0.13700  0.41000  1.0000
  Ce  Ce3       1.0  0.13700  0.86300  0.59000  1.0000
  Ce  Ce4       1.0  0.36300  0.63700  0.91000  1.0000
  N   N1        1.0  0.52700  0.75000  0.25000  1.0000
  N   N2        1.0  0.97300  0.47300  0.25000  1.0000
  N   N3        1.0  0.25000  0.02690  0.25000  1.0000
  N   N4        1.0  0.75000  0.97300  0.75000  1.0000
  N   N5        1.0  0.02690  0.52700  0.75000  1.0000
  N   N6        1.0  0.47300  0.25000  0.75000  1.0000
