data_image0
_chemical_formula_structural       I4Sb6
_chemical_formula_sum              "I4 Sb6"
_cell_length_a       7.14659
_cell_length_b       7.14659
_cell_length_c       11.0565
_cell_angle_alpha    108.856
_cell_angle_beta     71.1444
_cell_angle_gamma    120

_space_group_name_H-M_alt    "P 1"
_space_group_IT_number       1

loop_
  _space_group_symop_operation_xyz
  'x, y, z'

loop_
  _atom_site_type_symbol
  _atom_site_label
  _atom_site_symmetry_multiplicity
  _atom_site_fract_x
  _atom_site_fract_y
  _atom_site_fract_z
  _atom_site_occupancy
  I   I1        1.0  0.65700  0.34300  0.02870  1.0000
  I   I2        1.0  0.84300  0.15700  0.47100  1.0000
  I   I3        1.0  0.15700  0.84300  0.52900  1.0000
  I   I4        1.0  0.34300  0.65700  0.97100  1.0000
  Sb  Sb1       1.0  0.01870  0.51900  0.25000  1.0000
  Sb  Sb2       1.0  0.48100  0.75000  0.25000  1.0000
  Sb  Sb3       1.0  0.25000  0.98100  0.25000  1.0000
  Sb  Sb4       1.0  0.75000  0.01870  0.75000  1.0000
  Sb  Sb5       1.0  0.51900  0.25000  0.75000  1.0000
  Sb  Sb6       1.0  0.98100  0.48100  0.75000  1.0000
