data_image0
_chemical_formula_structural       Cl4I6
_chemical_formula_sum              "Cl4 I6"
_cell_length_a       6.19763
_cell_length_b       6.19763
_cell_length_c       10.1834
_cell_angle_alpha    107.716
_cell_angle_beta     72.2839
_cell_angle_gamma    120

_space_group_name_H-M_alt    "P 1"
_space_group_IT_number       1

loop_
  _space_group_symop_operation_xyz
  'x, y, z'

loop_
  _atom_site_type_symbol
  _atom_site_label
  _atom_site_symmetry_multiplicity
  _atom_site_fract_x
  _atom_site_fract_y
  _atom_site_fract_z
  _atom_site_occupancy
  Cl  Cl1       1.0  0.31500  0.68500  0.05420  1.0000
  Cl  Cl2       1.0  0.18500  0.81500  0.44600  1.0000
  Cl  Cl3       1.0  0.81500  0.18500  0.55400  1.0000
  Cl  Cl4       1.0  0.68500  0.31500  0.94600  1.0000
  I   I1        1.0  0.25000  0.16700  0.25000  1.0000
  I   I2        1.0  0.66700  0.75000  0.25000  1.0000
  I   I3        1.0  0.83300  0.33300  0.25000  1.0000
  I   I4        1.0  0.16700  0.66700  0.75000  1.0000
  I   I5        1.0  0.33300  0.25000  0.75000  1.0000
  I   I6        1.0  0.75000  0.83300  0.75000  1.0000
