data_image0
_chemical_formula_structural       Bi4F6
_chemical_formula_sum              "Bi4 F6"
_cell_length_a       6.95465
_cell_length_b       6.95464
_cell_length_c       5.96404
_cell_angle_alpha    125.665
_cell_angle_beta     54.3348
_cell_angle_gamma    120

_space_group_name_H-M_alt    "P 1"
_space_group_IT_number       1

loop_
  _space_group_symop_operation_xyz
  'x, y, z'

loop_
  _atom_site_type_symbol
  _atom_site_label
  _atom_site_symmetry_multiplicity
  _atom_site_fract_x
  _atom_site_fract_y
  _atom_site_fract_z
  _atom_site_occupancy
  Bi  Bi1       1.0  0.61500  0.38500  0.15600  1.0000
  Bi  Bi2       1.0  0.88500  0.11500  0.34400  1.0000
  Bi  Bi3       1.0  0.11500  0.88500  0.65600  1.0000
  Bi  Bi4       1.0  0.38500  0.61500  0.84400  1.0000
  F   F1        1.0  0.56900  0.75000  0.25000  1.0000
  F   F2        1.0  0.93100  0.43100  0.25000  1.0000
  F   F3        1.0  0.25000  0.06940  0.25000  1.0000
  F   F4        1.0  0.75000  0.93100  0.75000  1.0000
  F   F5        1.0  0.06940  0.56900  0.75000  1.0000
  F   F6        1.0  0.43100  0.25000  0.75000  1.0000
