data_image0
_chemical_formula_structural       Ir4S6
_chemical_formula_sum              "Ir4 S6"
_cell_length_a       6.01817
_cell_length_b       6.01817
_cell_length_c       6.33295
_cell_angle_alpha    118.369
_cell_angle_beta     61.631
_cell_angle_gamma    120

_space_group_name_H-M_alt    "P 1"
_space_group_IT_number       1

loop_
  _space_group_symop_operation_xyz
  'x, y, z'

loop_
  _atom_site_type_symbol
  _atom_site_label
  _atom_site_symmetry_multiplicity
  _atom_site_fract_x
  _atom_site_fract_y
  _atom_site_fract_z
  _atom_site_occupancy
  Ir  Ir1       1.0  0.64800  0.35200  0.05500  1.0000
  Ir  Ir2       1.0  0.85200  0.14800  0.44500  1.0000
  Ir  Ir3       1.0  0.14800  0.85200  0.55500  1.0000
  Ir  Ir4       1.0  0.35200  0.64800  0.94500  1.0000
  S   S1        1.0  0.54600  0.75000  0.25000  1.0000
  S   S2        1.0  0.25000  0.04650  0.25000  1.0000
  S   S3        1.0  0.95400  0.45400  0.25000  1.0000
  S   S4        1.0  0.04650  0.54600  0.75000  1.0000
  S   S5        1.0  0.75000  0.95400  0.75000  1.0000
  S   S6        1.0  0.45400  0.25000  0.75000  1.0000
