data_image0
_chemical_formula_structural       I4Ru6
_chemical_formula_sum              "I4 Ru6"
_cell_length_a       6.81088
_cell_length_b       6.81088
_cell_length_c       6.25218
_cell_angle_alpha    123.003
_cell_angle_beta     56.9972
_cell_angle_gamma    120

_space_group_name_H-M_alt    "P 1"
_space_group_IT_number       1

loop_
  _space_group_symop_operation_xyz
  'x, y, z'

loop_
  _atom_site_type_symbol
  _atom_site_label
  _atom_site_symmetry_multiplicity
  _atom_site_fract_x
  _atom_site_fract_y
  _atom_site_fract_z
  _atom_site_occupancy
  I   I1        1.0  0.61400  0.38600  0.15800  1.0000
  I   I2        1.0  0.88600  0.11400  0.34200  1.0000
  I   I3        1.0  0.11400  0.88600  0.65800  1.0000
  I   I4        1.0  0.38600  0.61400  0.84200  1.0000
  Ru  Ru1       1.0  0.50200  0.75000  0.25000  1.0000
  Ru  Ru2       1.0  0.99800  0.49800  0.25000  1.0000
  Ru  Ru3       1.0  0.25000  0.00232  0.25000  1.0000
  Ru  Ru4       1.0  0.75000  0.99800  0.75000  1.0000
  Ru  Ru5       1.0  0.00232  0.50200  0.75000  1.0000
  Ru  Ru6       1.0  0.49800  0.25000  0.75000  1.0000
