data_image0
_chemical_formula_structural       Fe4N6
_chemical_formula_sum              "Fe4 N6"
_cell_length_a       4.70894
_cell_length_b       4.70894
_cell_length_c       5.11763
_cell_angle_alpha    117.392
_cell_angle_beta     62.6083
_cell_angle_gamma    120

_space_group_name_H-M_alt    "P 1"
_space_group_IT_number       1

loop_
  _space_group_symop_operation_xyz
  'x, y, z'

loop_
  _atom_site_type_symbol
  _atom_site_label
  _atom_site_symmetry_multiplicity
  _atom_site_fract_x
  _atom_site_fract_y
  _atom_site_fract_z
  _atom_site_occupancy
  Fe  Fe1       1.0  0.65300  0.34700  0.04190  1.0000
  Fe  Fe2       1.0  0.84700  0.15300  0.45800  1.0000
  Fe  Fe3       1.0  0.15300  0.84700  0.54200  1.0000
  Fe  Fe4       1.0  0.34700  0.65300  0.95800  1.0000
  N   N1        1.0  0.25000  0.08830  0.25000  1.0000
  N   N2        1.0  0.91200  0.41200  0.25000  1.0000
  N   N3        1.0  0.58800  0.75000  0.25000  1.0000
  N   N4        1.0  0.41200  0.25000  0.75000  1.0000
  N   N5        1.0  0.08830  0.58800  0.75000  1.0000
  N   N6        1.0  0.75000  0.91200  0.75000  1.0000
