data_image0
_chemical_formula_structural       F4Yb6
_chemical_formula_sum              "F4 Yb6"
_cell_length_a       6.25658
_cell_length_b       6.25658
_cell_length_c       6.83456
_cell_angle_alpha    117.24
_cell_angle_beta     62.7601
_cell_angle_gamma    120

_space_group_name_H-M_alt    "P 1"
_space_group_IT_number       1

loop_
  _space_group_symop_operation_xyz
  'x, y, z'

loop_
  _atom_site_type_symbol
  _atom_site_label
  _atom_site_symmetry_multiplicity
  _atom_site_fract_x
  _atom_site_fract_y
  _atom_site_fract_z
  _atom_site_occupancy
  F   F1        1.0  0.32400  0.67600  0.02710  1.0000
  F   F2        1.0  0.17600  0.82400  0.47300  1.0000
  F   F3        1.0  0.82400  0.17600  0.52700  1.0000
  F   F4        1.0  0.67600  0.32400  0.97300  1.0000
  Yb  Yb1       1.0  0.56900  0.75000  0.25000  1.0000
  Yb  Yb2       1.0  0.93100  0.43100  0.25000  1.0000
  Yb  Yb3       1.0  0.25000  0.06910  0.25000  1.0000
  Yb  Yb4       1.0  0.75000  0.93100  0.75000  1.0000
  Yb  Yb5       1.0  0.06910  0.56900  0.75000  1.0000
  Yb  Yb6       1.0  0.43100  0.25000  0.75000  1.0000
