data_image0
_chemical_formula_structural       Eu4I6
_chemical_formula_sum              "Eu4 I6"
_cell_length_a       7.86414
_cell_length_b       7.86414
_cell_length_c       8.96169
_cell_angle_alpha    116.025
_cell_angle_beta     63.9749
_cell_angle_gamma    120

_space_group_name_H-M_alt    "P 1"
_space_group_IT_number       1

loop_
  _space_group_symop_operation_xyz
  'x, y, z'

loop_
  _atom_site_type_symbol
  _atom_site_label
  _atom_site_symmetry_multiplicity
  _atom_site_fract_x
  _atom_site_fract_y
  _atom_site_fract_z
  _atom_site_occupancy
  Eu  Eu1       1.0  0.66200  0.33800  0.01420  1.0000
  Eu  Eu2       1.0  0.83800  0.16200  0.48600  1.0000
  Eu  Eu3       1.0  0.16200  0.83800  0.51400  1.0000
  Eu  Eu4       1.0  0.33800  0.66200  0.98600  1.0000
  I   I1        1.0  0.93200  0.43200  0.25000  1.0000
  I   I2        1.0  0.25000  0.06840  0.25000  1.0000
  I   I3        1.0  0.56800  0.75000  0.25000  1.0000
  I   I4        1.0  0.43200  0.25000  0.75000  1.0000
  I   I5        1.0  0.75000  0.93200  0.75000  1.0000
  I   I6        1.0  0.06840  0.56800  0.75000  1.0000
