data_image0
_chemical_formula_structural       Cl4La6
_chemical_formula_sum              "Cl4 La6"
_cell_length_a       7.26184
_cell_length_b       7.26184
_cell_length_c       7.76602
_cell_angle_alpha    117.875
_cell_angle_beta     62.1253
_cell_angle_gamma    120

_space_group_name_H-M_alt    "P 1"
_space_group_IT_number       1

loop_
  _space_group_symop_operation_xyz
  'x, y, z'

loop_
  _atom_site_type_symbol
  _atom_site_label
  _atom_site_symmetry_multiplicity
  _atom_site_fract_x
  _atom_site_fract_y
  _atom_site_fract_z
  _atom_site_occupancy
  Cl  Cl1       1.0  0.66500  0.33500  0.00498  1.0000
  Cl  Cl2       1.0  0.83500  0.16500  0.49500  1.0000
  Cl  Cl3       1.0  0.16500  0.83500  0.50500  1.0000
  Cl  Cl4       1.0  0.33500  0.66500  0.99500  1.0000
  La  La1       1.0  0.25000  0.08720  0.25000  1.0000
  La  La2       1.0  0.91300  0.41300  0.25000  1.0000
  La  La3       1.0  0.58700  0.75000  0.25000  1.0000
  La  La4       1.0  0.41300  0.25000  0.75000  1.0000
  La  La5       1.0  0.08720  0.58700  0.75000  1.0000
  La  La6       1.0  0.75000  0.91300  0.75000  1.0000
