data_image0
_chemical_formula_structural       Ho4S6
_chemical_formula_sum              "Ho4 S6"
_cell_length_a       6.86736
_cell_length_b       6.86736
_cell_length_c       7.30419
_cell_angle_alpha    118.041
_cell_angle_beta     61.9594
_cell_angle_gamma    120

_space_group_name_H-M_alt    "P 1"
_space_group_IT_number       1

loop_
  _space_group_symop_operation_xyz
  'x, y, z'

loop_
  _atom_site_type_symbol
  _atom_site_label
  _atom_site_symmetry_multiplicity
  _atom_site_fract_x
  _atom_site_fract_y
  _atom_site_fract_z
  _atom_site_occupancy
  Ho  Ho1       1.0  0.65000  0.35000  0.05050  1.0000
  Ho  Ho2       1.0  0.85000  0.15000  0.45000  1.0000
  Ho  Ho3       1.0  0.15000  0.85000  0.55000  1.0000
  Ho  Ho4       1.0  0.35000  0.65000  0.95000  1.0000
  S   S1        1.0  0.55200  0.75000  0.25000  1.0000
  S   S2        1.0  0.94800  0.44800  0.25000  1.0000
  S   S3        1.0  0.25000  0.05150  0.25000  1.0000
  S   S4        1.0  0.75000  0.94800  0.75000  1.0000
  S   S5        1.0  0.05150  0.55200  0.75000  1.0000
  S   S6        1.0  0.44800  0.25000  0.75000  1.0000
