data_image0
_chemical_formula_structural       I4Ti6
_chemical_formula_sum              "I4 Ti6"
_cell_length_a       6.89129
_cell_length_b       6.89129
_cell_length_c       6.70169
_cell_angle_alpha    120.94
_cell_angle_beta     59.0596
_cell_angle_gamma    120

_space_group_name_H-M_alt    "P 1"
_space_group_IT_number       1

loop_
  _space_group_symop_operation_xyz
  'x, y, z'

loop_
  _atom_site_type_symbol
  _atom_site_label
  _atom_site_symmetry_multiplicity
  _atom_site_fract_x
  _atom_site_fract_y
  _atom_site_fract_z
  _atom_site_occupancy
  I   I1        1.0  0.60500  0.39500  0.18500  1.0000
  I   I2        1.0  0.89500  0.10500  0.31500  1.0000
  I   I3        1.0  0.10500  0.89500  0.68500  1.0000
  I   I4        1.0  0.39500  0.60500  0.81500  1.0000
  Ti  Ti1       1.0  0.25000  0.97600  0.25000  1.0000
  Ti  Ti2       1.0  0.47600  0.75000  0.25000  1.0000
  Ti  Ti3       1.0  0.02360  0.52400  0.25000  1.0000
  Ti  Ti4       1.0  0.97600  0.47600  0.75000  1.0000
  Ti  Ti5       1.0  0.52400  0.25000  0.75000  1.0000
  Ti  Ti6       1.0  0.75000  0.02360  0.75000  1.0000
