data_image0
_chemical_formula_structural       Br4Sc6
_chemical_formula_sum              "Br4 Sc6"
_cell_length_a       6.46014
_cell_length_b       6.46015
_cell_length_c       7.32732
_cell_angle_alpha    116.157
_cell_angle_beta     63.8434
_cell_angle_gamma    120

_space_group_name_H-M_alt    "P 1"
_space_group_IT_number       1

loop_
  _space_group_symop_operation_xyz
  'x, y, z'

loop_
  _atom_site_type_symbol
  _atom_site_label
  _atom_site_symmetry_multiplicity
  _atom_site_fract_x
  _atom_site_fract_y
  _atom_site_fract_z
  _atom_site_occupancy
  Br  Br1       1.0  0.66500  0.33500  0.00548  1.0000
  Br  Br2       1.0  0.83500  0.16500  0.49500  1.0000
  Br  Br3       1.0  0.16500  0.83500  0.50500  1.0000
  Br  Br4       1.0  0.33500  0.66500  0.99500  1.0000
  Sc  Sc1       1.0  0.91000  0.41000  0.25000  1.0000
  Sc  Sc2       1.0  0.25000  0.08970  0.25000  1.0000
  Sc  Sc3       1.0  0.59000  0.75000  0.25000  1.0000
  Sc  Sc4       1.0  0.41000  0.25000  0.75000  1.0000
  Sc  Sc5       1.0  0.75000  0.91000  0.75000  1.0000
  Sc  Sc6       1.0  0.08970  0.59000  0.75000  1.0000
