data_image0
_chemical_formula_structural       I4Yb6
_chemical_formula_sum              "I4 Yb6"
_cell_length_a       6.95501
_cell_length_b       6.95501
_cell_length_c       10.1732
_cell_angle_alpha    109.988
_cell_angle_beta     70.0115
_cell_angle_gamma    120

_space_group_name_H-M_alt    "P 1"
_space_group_IT_number       1

loop_
  _space_group_symop_operation_xyz
  'x, y, z'

loop_
  _atom_site_type_symbol
  _atom_site_label
  _atom_site_symmetry_multiplicity
  _atom_site_fract_x
  _atom_site_fract_y
  _atom_site_fract_z
  _atom_site_occupancy
  I   I1        1.0  0.32400  0.67600  0.02790  1.0000
  I   I2        1.0  0.17600  0.82400  0.47200  1.0000
  I   I3        1.0  0.82400  0.17600  0.52800  1.0000
  I   I4        1.0  0.67600  0.32400  0.97200  1.0000
  Yb  Yb1       1.0  0.88900  0.38900  0.25000  1.0000
  Yb  Yb2       1.0  0.61100  0.75000  0.25000  1.0000
  Yb  Yb3       1.0  0.25000  0.11100  0.25000  1.0000
  Yb  Yb4       1.0  0.75000  0.88900  0.75000  1.0000
  Yb  Yb5       1.0  0.38900  0.25000  0.75000  1.0000
  Yb  Yb6       1.0  0.11100  0.61100  0.75000  1.0000
