data_image0
_chemical_formula_structural       Br4Tc6
_chemical_formula_sum              "Br4 Tc6"
_cell_length_a       6.615
_cell_length_b       6.615
_cell_length_c       5.87168
_cell_angle_alpha    124.284
_cell_angle_beta     55.7159
_cell_angle_gamma    120

_space_group_name_H-M_alt    "P 1"
_space_group_IT_number       1

loop_
  _space_group_symop_operation_xyz
  'x, y, z'

loop_
  _atom_site_type_symbol
  _atom_site_label
  _atom_site_symmetry_multiplicity
  _atom_site_fract_x
  _atom_site_fract_y
  _atom_site_fract_z
  _atom_site_occupancy
  Br  Br1       1.0  0.61100  0.38900  0.16700  1.0000
  Br  Br2       1.0  0.88900  0.11100  0.33300  1.0000
  Br  Br3       1.0  0.11100  0.88900  0.66700  1.0000
  Br  Br4       1.0  0.38900  0.61100  0.83300  1.0000
  Tc  Tc1       1.0  0.51100  0.75000  0.25000  1.0000
  Tc  Tc2       1.0  0.98900  0.48900  0.25000  1.0000
  Tc  Tc3       1.0  0.25000  0.01080  0.25000  1.0000
  Tc  Tc4       1.0  0.75000  0.98900  0.75000  1.0000
  Tc  Tc5       1.0  0.01080  0.51100  0.75000  1.0000
  Tc  Tc6       1.0  0.48900  0.25000  0.75000  1.0000
