data_image0
_chemical_formula_structural       Dy4N6
_chemical_formula_sum              "Dy4 N6"
_cell_length_a       5.94517
_cell_length_b       5.94516
_cell_length_c       6.15792
_cell_angle_alpha    118.864
_cell_angle_beta     61.1365
_cell_angle_gamma    120

_space_group_name_H-M_alt    "P 1"
_space_group_IT_number       1

loop_
  _space_group_symop_operation_xyz
  'x, y, z'

loop_
  _atom_site_type_symbol
  _atom_site_label
  _atom_site_symmetry_multiplicity
  _atom_site_fract_x
  _atom_site_fract_y
  _atom_site_fract_z
  _atom_site_occupancy
  Dy  Dy1       1.0  0.64100  0.35900  0.07780  1.0000
  Dy  Dy2       1.0  0.85900  0.14100  0.42200  1.0000
  Dy  Dy3       1.0  0.14100  0.85900  0.57800  1.0000
  Dy  Dy4       1.0  0.35900  0.64100  0.92200  1.0000
  N   N1        1.0  0.53300  0.75000  0.25000  1.0000
  N   N2        1.0  0.96700  0.46700  0.25000  1.0000
  N   N3        1.0  0.25000  0.03260  0.25000  1.0000
  N   N4        1.0  0.75000  0.96700  0.75000  1.0000
  N   N5        1.0  0.03250  0.53300  0.75000  1.0000
  N   N6        1.0  0.46700  0.25000  0.75000  1.0000
