data_image0
_chemical_formula_structural       Hf4N6
_chemical_formula_sum              "Hf4 N6"
_cell_length_a       5.4867
_cell_length_b       5.4867
_cell_length_c       5.80722
_cell_angle_alpha    118.19
_cell_angle_beta     61.8096
_cell_angle_gamma    120

_space_group_name_H-M_alt    "P 1"
_space_group_IT_number       1

loop_
  _space_group_symop_operation_xyz
  'x, y, z'

loop_
  _atom_site_type_symbol
  _atom_site_label
  _atom_site_symmetry_multiplicity
  _atom_site_fract_x
  _atom_site_fract_y
  _atom_site_fract_z
  _atom_site_occupancy
  Hf  Hf1       1.0  0.64400  0.35600  0.06790  1.0000
  Hf  Hf2       1.0  0.85600  0.14400  0.43200  1.0000
  Hf  Hf3       1.0  0.14400  0.85600  0.56800  1.0000
  Hf  Hf4       1.0  0.35600  0.64400  0.93200  1.0000
  N   N1        1.0  0.54800  0.75000  0.25000  1.0000
  N   N2        1.0  0.95200  0.45200  0.25000  1.0000
  N   N3        1.0  0.25000  0.04810  0.25000  1.0000
  N   N4        1.0  0.75000  0.95200  0.75000  1.0000
  N   N5        1.0  0.04810  0.54800  0.75000  1.0000
  N   N6        1.0  0.45200  0.25000  0.75000  1.0000
