data_image0
_chemical_formula_structural       Ge4S6
_chemical_formula_sum              "Ge4 S6"
_cell_length_a       6.31116
_cell_length_b       6.31116
_cell_length_c       6.91533
_cell_angle_alpha    117.15
_cell_angle_beta     62.8503
_cell_angle_gamma    120

_space_group_name_H-M_alt    "P 1"
_space_group_IT_number       1

loop_
  _space_group_symop_operation_xyz
  'x, y, z'

loop_
  _atom_site_type_symbol
  _atom_site_label
  _atom_site_symmetry_multiplicity
  _atom_site_fract_x
  _atom_site_fract_y
  _atom_site_fract_z
  _atom_site_occupancy
  Ge  Ge1       1.0  0.65200  0.34800  0.04260  1.0000
  Ge  Ge2       1.0  0.84800  0.15200  0.45700  1.0000
  Ge  Ge3       1.0  0.15200  0.84800  0.54300  1.0000
  Ge  Ge4       1.0  0.34800  0.65200  0.95700  1.0000
  S   S1        1.0  0.56500  0.75000  0.25000  1.0000
  S   S2        1.0  0.93500  0.43500  0.25000  1.0000
  S   S3        1.0  0.25000  0.06500  0.25000  1.0000
  S   S4        1.0  0.75000  0.93500  0.75000  1.0000
  S   S5        1.0  0.06500  0.56500  0.75000  1.0000
  S   S6        1.0  0.43500  0.25000  0.75000  1.0000
