data_image0
_chemical_formula_structural       S4Sm6
_chemical_formula_sum              "S4 Sm6"
_cell_length_a       6.87373
_cell_length_b       6.87373
_cell_length_c       7.58056
_cell_angle_alpha    116.961
_cell_angle_beta     63.0393
_cell_angle_gamma    120

_space_group_name_H-M_alt    "P 1"
_space_group_IT_number       1

loop_
  _space_group_symop_operation_xyz
  'x, y, z'

loop_
  _atom_site_type_symbol
  _atom_site_label
  _atom_site_symmetry_multiplicity
  _atom_site_fract_x
  _atom_site_fract_y
  _atom_site_fract_z
  _atom_site_occupancy
  S   S1        1.0  0.66300  0.33700  0.01130  1.0000
  S   S2        1.0  0.83700  0.16300  0.48900  1.0000
  S   S3        1.0  0.16300  0.83700  0.51100  1.0000
  S   S4        1.0  0.33700  0.66300  0.98900  1.0000
  Sm  Sm1       1.0  0.25000  0.07990  0.25000  1.0000
  Sm  Sm2       1.0  0.92000  0.42000  0.25000  1.0000
  Sm  Sm3       1.0  0.58000  0.75000  0.25000  1.0000
  Sm  Sm4       1.0  0.42000  0.25000  0.75000  1.0000
  Sm  Sm5       1.0  0.07990  0.58000  0.75000  1.0000
  Sm  Sm6       1.0  0.75000  0.92000  0.75000  1.0000
