data_image0
_chemical_formula_structural       F4Th6
_chemical_formula_sum              "F4 Th6"
_cell_length_a       6.55406
_cell_length_b       6.55407
_cell_length_c       7.01002
_cell_angle_alpha    117.871
_cell_angle_beta     62.1292
_cell_angle_gamma    120

_space_group_name_H-M_alt    "P 1"
_space_group_IT_number       1

loop_
  _space_group_symop_operation_xyz
  'x, y, z'

loop_
  _atom_site_type_symbol
  _atom_site_label
  _atom_site_symmetry_multiplicity
  _atom_site_fract_x
  _atom_site_fract_y
  _atom_site_fract_z
  _atom_site_occupancy
  F   F1        1.0  0.32600  0.67400  0.02240  1.0000
  F   F2        1.0  0.17400  0.82600  0.47800  1.0000
  F   F3        1.0  0.82600  0.17400  0.52200  1.0000
  F   F4        1.0  0.67400  0.32600  0.97800  1.0000
  Th  Th1       1.0  0.59700  0.75000  0.25000  1.0000
  Th  Th2       1.0  0.25000  0.09750  0.25000  1.0000
  Th  Th3       1.0  0.90300  0.40300  0.25000  1.0000
  Th  Th4       1.0  0.09750  0.59700  0.75000  1.0000
  Th  Th5       1.0  0.75000  0.90300  0.75000  1.0000
  Th  Th6       1.0  0.40300  0.25000  0.75000  1.0000
