data_image0
_chemical_formula_structural       Ba4Cl6
_chemical_formula_sum              "Ba4 Cl6"
_cell_length_a       8.58251
_cell_length_b       8.58251
_cell_length_c       7.52571
_cell_angle_alpha    124.765
_cell_angle_beta     55.235
_cell_angle_gamma    120

_space_group_name_H-M_alt    "P 1"
_space_group_IT_number       1

loop_
  _space_group_symop_operation_xyz
  'x, y, z'

loop_
  _atom_site_type_symbol
  _atom_site_label
  _atom_site_symmetry_multiplicity
  _atom_site_fract_x
  _atom_site_fract_y
  _atom_site_fract_z
  _atom_site_occupancy
  Ba  Ba1       1.0  0.63100  0.36900  0.10800  1.0000
  Ba  Ba2       1.0  0.86900  0.13100  0.39200  1.0000
  Ba  Ba3       1.0  0.13100  0.86900  0.60800  1.0000
  Ba  Ba4       1.0  0.36900  0.63100  0.89200  1.0000
  Cl  Cl1       1.0  0.54500  0.75000  0.25000  1.0000
  Cl  Cl2       1.0  0.25000  0.04480  0.25000  1.0000
  Cl  Cl3       1.0  0.95500  0.45500  0.25000  1.0000
  Cl  Cl4       1.0  0.04480  0.54500  0.75000  1.0000
  Cl  Cl5       1.0  0.75000  0.95500  0.75000  1.0000
  Cl  Cl6       1.0  0.45500  0.25000  0.75000  1.0000
