data_image0
_chemical_formula_structural       N4O6
_chemical_formula_sum              "N4 O6"
_cell_length_a       4.15705
_cell_length_b       4.15705
_cell_length_c       6.16627
_cell_angle_alpha    109.699
_cell_angle_beta     70.3009
_cell_angle_gamma    120

_space_group_name_H-M_alt    "P 1"
_space_group_IT_number       1

loop_
  _space_group_symop_operation_xyz
  'x, y, z'

loop_
  _atom_site_type_symbol
  _atom_site_label
  _atom_site_symmetry_multiplicity
  _atom_site_fract_x
  _atom_site_fract_y
  _atom_site_fract_z
  _atom_site_occupancy
  N   N1        1.0  0.61700  0.38300  0.14800  1.0000
  N   N2        1.0  0.88300  0.11700  0.35200  1.0000
  N   N3        1.0  0.11700  0.88300  0.64800  1.0000
  N   N4        1.0  0.38300  0.61700  0.85200  1.0000
  O   O1        1.0  0.25000  0.09430  0.25000  1.0000
  O   O2        1.0  0.90600  0.40600  0.25000  1.0000
  O   O3        1.0  0.59400  0.75000  0.25000  1.0000
  O   O4        1.0  0.40600  0.25000  0.75000  1.0000
  O   O5        1.0  0.09430  0.59400  0.75000  1.0000
  O   O6        1.0  0.75000  0.90600  0.75000  1.0000
