data_image0
_chemical_formula_structural       S4Te6
_chemical_formula_sum              "S4 Te6"
_cell_length_a       6.43123
_cell_length_b       6.43124
_cell_length_c       9.21218
_cell_angle_alpha    110.43
_cell_angle_beta     69.5701
_cell_angle_gamma    120

_space_group_name_H-M_alt    "P 1"
_space_group_IT_number       1

loop_
  _space_group_symop_operation_xyz
  'x, y, z'

loop_
  _atom_site_type_symbol
  _atom_site_label
  _atom_site_symmetry_multiplicity
  _atom_site_fract_x
  _atom_site_fract_y
  _atom_site_fract_z
  _atom_site_occupancy
  S   S1        1.0  0.63800  0.36200  0.08460  1.0000
  S   S2        1.0  0.86200  0.13800  0.41500  1.0000
  S   S3        1.0  0.13800  0.86200  0.58500  1.0000
  S   S4        1.0  0.36200  0.63800  0.91500  1.0000
  Te  Te1       1.0  0.97100  0.47100  0.25000  1.0000
  Te  Te2       1.0  0.52900  0.75000  0.25000  1.0000
  Te  Te3       1.0  0.25000  0.02920  0.25000  1.0000
  Te  Te4       1.0  0.75000  0.97100  0.75000  1.0000
  Te  Te5       1.0  0.47100  0.25000  0.75000  1.0000
  Te  Te6       1.0  0.02920  0.52900  0.75000  1.0000
