data_image0
_chemical_formula_structural       N4P6
_chemical_formula_sum              "N4 P6"
_cell_length_a       5.94432
_cell_length_b       5.94432
_cell_length_c       4.92655
_cell_angle_alpha    127.106
_cell_angle_beta     52.8938
_cell_angle_gamma    120

_space_group_name_H-M_alt    "P 1"
_space_group_IT_number       1

loop_
  _space_group_symop_operation_xyz
  'x, y, z'

loop_
  _atom_site_type_symbol
  _atom_site_label
  _atom_site_symmetry_multiplicity
  _atom_site_fract_x
  _atom_site_fract_y
  _atom_site_fract_z
  _atom_site_occupancy
  N   N1        1.0  0.63500  0.36500  0.09540  1.0000
  N   N2        1.0  0.86500  0.13500  0.40500  1.0000
  N   N3        1.0  0.13500  0.86500  0.59500  1.0000
  N   N4        1.0  0.36500  0.63500  0.90500  1.0000
  P   P1        1.0  0.74900  0.75000  0.25000  1.0000
  P   P2        1.0  0.75100  0.25100  0.25000  1.0000
  P   P3        1.0  0.25000  0.24900  0.25000  1.0000
  P   P4        1.0  0.75000  0.75100  0.75000  1.0000
  P   P5        1.0  0.24900  0.74900  0.75000  1.0000
  P   P6        1.0  0.25100  0.25000  0.75000  1.0000
