data_image0
_chemical_formula_structural       F4Y6
_chemical_formula_sum              "F4 Y6"
_cell_length_a       6.3565
_cell_length_b       6.3565
_cell_length_c       6.66256
_cell_angle_alpha    118.492
_cell_angle_beta     61.5083
_cell_angle_gamma    120

_space_group_name_H-M_alt    "P 1"
_space_group_IT_number       1

loop_
  _space_group_symop_operation_xyz
  'x, y, z'

loop_
  _atom_site_type_symbol
  _atom_site_label
  _atom_site_symmetry_multiplicity
  _atom_site_fract_x
  _atom_site_fract_y
  _atom_site_fract_z
  _atom_site_occupancy
  F   F1        1.0  0.33200  0.66800  0.00363  1.0000
  F   F2        1.0  0.16800  0.83200  0.49600  1.0000
  F   F3        1.0  0.83200  0.16800  0.50400  1.0000
  F   F4        1.0  0.66800  0.33200  0.99600  1.0000
  Y   Y1        1.0  0.58700  0.75000  0.25000  1.0000
  Y   Y2        1.0  0.91300  0.41300  0.25000  1.0000
  Y   Y3        1.0  0.25000  0.08650  0.25000  1.0000
  Y   Y4        1.0  0.75000  0.91300  0.75000  1.0000
  Y   Y5        1.0  0.08650  0.58700  0.75000  1.0000
  Y   Y6        1.0  0.41300  0.25000  0.75000  1.0000
