data_image0
_chemical_formula_structural       Ga4N6
_chemical_formula_sum              "Ga4 N6"
_cell_length_a       5.30135
_cell_length_b       5.30135
_cell_length_c       5.2545
_cell_angle_alpha    120.295
_cell_angle_beta     59.7046
_cell_angle_gamma    120

_space_group_name_H-M_alt    "P 1"
_space_group_IT_number       1

loop_
  _space_group_symop_operation_xyz
  'x, y, z'

loop_
  _atom_site_type_symbol
  _atom_site_label
  _atom_site_symmetry_multiplicity
  _atom_site_fract_x
  _atom_site_fract_y
  _atom_site_fract_z
  _atom_site_occupancy
  Ga  Ga1       1.0  0.63900  0.36100  0.08150  1.0000
  Ga  Ga2       1.0  0.86100  0.13900  0.41800  1.0000
  Ga  Ga3       1.0  0.13900  0.86100  0.58200  1.0000
  Ga  Ga4       1.0  0.36100  0.63900  0.91800  1.0000
  N   N1        1.0  0.56100  0.75000  0.25000  1.0000
  N   N2        1.0  0.93900  0.43900  0.25000  1.0000
  N   N3        1.0  0.25000  0.06060  0.25000  1.0000
  N   N4        1.0  0.75000  0.93900  0.75000  1.0000
  N   N5        1.0  0.06060  0.56100  0.75000  1.0000
  N   N6        1.0  0.43900  0.25000  0.75000  1.0000
