data_image0
_chemical_formula_structural       Ca4F6
_chemical_formula_sum              "Ca4 F6"
_cell_length_a       6.04786
_cell_length_b       6.04786
_cell_length_c       5.95625
_cell_angle_alpha    120.51
_cell_angle_beta     59.4899
_cell_angle_gamma    120

_space_group_name_H-M_alt    "P 1"
_space_group_IT_number       1

loop_
  _space_group_symop_operation_xyz
  'x, y, z'

loop_
  _atom_site_type_symbol
  _atom_site_label
  _atom_site_symmetry_multiplicity
  _atom_site_fract_x
  _atom_site_fract_y
  _atom_site_fract_z
  _atom_site_occupancy
  Ca  Ca1       1.0  0.63200  0.36800  0.10500  1.0000
  Ca  Ca2       1.0  0.86800  0.13200  0.39500  1.0000
  Ca  Ca3       1.0  0.13200  0.86800  0.60500  1.0000
  Ca  Ca4       1.0  0.36800  0.63200  0.89500  1.0000
  F   F1        1.0  0.25000  0.02120  0.25000  1.0000
  F   F2        1.0  0.52100  0.75000  0.25000  1.0000
  F   F3        1.0  0.97900  0.47900  0.25000  1.0000
  F   F4        1.0  0.02120  0.52100  0.75000  1.0000
  F   F5        1.0  0.47900  0.25000  0.75000  1.0000
  F   F6        1.0  0.75000  0.97900  0.75000  1.0000
