data_image0
_chemical_formula_structural       Re4S6
_chemical_formula_sum              "Re4 S6"
_cell_length_a       6.10661
_cell_length_b       6.10661
_cell_length_c       6.23612
_cell_angle_alpha    119.315
_cell_angle_beta     60.6847
_cell_angle_gamma    120

_space_group_name_H-M_alt    "P 1"
_space_group_IT_number       1

loop_
  _space_group_symop_operation_xyz
  'x, y, z'

loop_
  _atom_site_type_symbol
  _atom_site_label
  _atom_site_symmetry_multiplicity
  _atom_site_fract_x
  _atom_site_fract_y
  _atom_site_fract_z
  _atom_site_occupancy
  Re  Re1       1.0  0.66400  0.33600  0.00705  1.0000
  Re  Re2       1.0  0.83600  0.16400  0.49300  1.0000
  Re  Re3       1.0  0.16400  0.83600  0.50700  1.0000
  Re  Re4       1.0  0.33600  0.66400  0.99300  1.0000
  S   S1        1.0  0.58500  0.75000  0.25000  1.0000
  S   S2        1.0  0.91500  0.41500  0.25000  1.0000
  S   S3        1.0  0.25000  0.08490  0.25000  1.0000
  S   S4        1.0  0.75000  0.91500  0.75000  1.0000
  S   S5        1.0  0.08490  0.58500  0.75000  1.0000
  S   S6        1.0  0.41500  0.25000  0.75000  1.0000
