data_image0
_chemical_formula_structural       I4K6
_chemical_formula_sum              "I4 K6"
_cell_length_a       8.73411
_cell_length_b       8.73411
_cell_length_c       9.96906
_cell_angle_alpha    115.98
_cell_angle_beta     64.0198
_cell_angle_gamma    120

_space_group_name_H-M_alt    "P 1"
_space_group_IT_number       1

loop_
  _space_group_symop_operation_xyz
  'x, y, z'

loop_
  _atom_site_type_symbol
  _atom_site_label
  _atom_site_symmetry_multiplicity
  _atom_site_fract_x
  _atom_site_fract_y
  _atom_site_fract_z
  _atom_site_occupancy
  I   I1        1.0  0.66100  0.33900  0.01710  1.0000
  I   I2        1.0  0.83900  0.16100  0.48300  1.0000
  I   I3        1.0  0.16100  0.83900  0.51700  1.0000
  I   I4        1.0  0.33900  0.66100  0.98300  1.0000
  K   K1        1.0  0.25000  0.07260  0.25000  1.0000
  K   K2        1.0  0.92700  0.42700  0.25000  1.0000
  K   K3        1.0  0.57300  0.75000  0.25000  1.0000
  K   K4        1.0  0.42700  0.25000  0.75000  1.0000
  K   K5        1.0  0.07260  0.57300  0.75000  1.0000
  K   K6        1.0  0.75000  0.92700  0.75000  1.0000
