data_image0
_chemical_formula_structural       F4Ru6
_chemical_formula_sum              "F4 Ru6"
_cell_length_a       6.77158
_cell_length_b       6.77158
_cell_length_c       4.88136
_cell_angle_alpha    133.917
_cell_angle_beta     46.0829
_cell_angle_gamma    120

_space_group_name_H-M_alt    "P 1"
_space_group_IT_number       1

loop_
  _space_group_symop_operation_xyz
  'x, y, z'

loop_
  _atom_site_type_symbol
  _atom_site_label
  _atom_site_symmetry_multiplicity
  _atom_site_fract_x
  _atom_site_fract_y
  _atom_site_fract_z
  _atom_site_occupancy
  F   F1        1.0  0.62600  0.37400  0.12200  1.0000
  F   F2        1.0  0.87400  0.12600  0.37800  1.0000
  F   F3        1.0  0.12600  0.87400  0.62200  1.0000
  F   F4        1.0  0.37400  0.62600  0.87800  1.0000
  Ru  Ru1       1.0  0.25000  0.10100  0.25000  1.0000
  Ru  Ru2       1.0  0.89900  0.39900  0.25000  1.0000
  Ru  Ru3       1.0  0.60100  0.75000  0.25000  1.0000
  Ru  Ru4       1.0  0.39900  0.25000  0.75000  1.0000
  Ru  Ru5       1.0  0.10100  0.60100  0.75000  1.0000
  Ru  Ru6       1.0  0.75000  0.89900  0.75000  1.0000
