data_image0
_chemical_formula_structural       O4V6
_chemical_formula_sum              "O4 V6"
_cell_length_a       5.27672
_cell_length_b       5.27672
_cell_length_c       6.14964
_cell_angle_alpha    115.406
_cell_angle_beta     64.5942
_cell_angle_gamma    120

_space_group_name_H-M_alt    "P 1"
_space_group_IT_number       1

loop_
  _space_group_symop_operation_xyz
  'x, y, z'

loop_
  _atom_site_type_symbol
  _atom_site_label
  _atom_site_symmetry_multiplicity
  _atom_site_fract_x
  _atom_site_fract_y
  _atom_site_fract_z
  _atom_site_occupancy
  O   O1        1.0  0.66300  0.33700  0.01230  1.0000
  O   O2        1.0  0.83700  0.16300  0.48800  1.0000
  O   O3        1.0  0.16300  0.83700  0.51200  1.0000
  O   O4        1.0  0.33700  0.66300  0.98800  1.0000
  V   V1        1.0  0.90800  0.40800  0.25000  1.0000
  V   V2        1.0  0.25000  0.09210  0.25000  1.0000
  V   V3        1.0  0.59200  0.75000  0.25000  1.0000
  V   V4        1.0  0.40800  0.25000  0.75000  1.0000
  V   V5        1.0  0.75000  0.90800  0.75000  1.0000
  V   V6        1.0  0.09210  0.59200  0.75000  1.0000
