data_image0
_chemical_formula_structural       B4F6
_chemical_formula_sum              "B4 F6"
_cell_length_a       4.54948
_cell_length_b       4.54948
_cell_length_c       6.30649
_cell_angle_alpha    111.143
_cell_angle_beta     68.8569
_cell_angle_gamma    120

_space_group_name_H-M_alt    "P 1"
_space_group_IT_number       1

loop_
  _space_group_symop_operation_xyz
  'x, y, z'

loop_
  _atom_site_type_symbol
  _atom_site_label
  _atom_site_symmetry_multiplicity
  _atom_site_fract_x
  _atom_site_fract_y
  _atom_site_fract_z
  _atom_site_occupancy
  B   B1        1.0  0.62700  0.37300  0.11800  1.0000
  B   B2        1.0  0.87300  0.12700  0.38200  1.0000
  B   B3        1.0  0.12700  0.87300  0.61800  1.0000
  B   B4        1.0  0.37300  0.62700  0.88200  1.0000
  F   F1        1.0  0.25000  0.23900  0.25000  1.0000
  F   F2        1.0  0.76100  0.26100  0.25000  1.0000
  F   F3        1.0  0.73900  0.75000  0.25000  1.0000
  F   F4        1.0  0.26100  0.25000  0.75000  1.0000
  F   F5        1.0  0.23900  0.73900  0.75000  1.0000
  F   F6        1.0  0.75000  0.76100  0.75000  1.0000
