data_image0
_chemical_formula_structural       I4Nb6
_chemical_formula_sum              "I4 Nb6"
_cell_length_a       7.13442
_cell_length_b       7.13442
_cell_length_c       6.73763
_cell_angle_alpha    121.968
_cell_angle_beta     58.032
_cell_angle_gamma    120

_space_group_name_H-M_alt    "P 1"
_space_group_IT_number       1

loop_
  _space_group_symop_operation_xyz
  'x, y, z'

loop_
  _atom_site_type_symbol
  _atom_site_label
  _atom_site_symmetry_multiplicity
  _atom_site_fract_x
  _atom_site_fract_y
  _atom_site_fract_z
  _atom_site_occupancy
  I   I1        1.0  0.60100  0.39900  0.19700  1.0000
  I   I2        1.0  0.89900  0.10100  0.30300  1.0000
  I   I3        1.0  0.10100  0.89900  0.69700  1.0000
  I   I4        1.0  0.39900  0.60100  0.80300  1.0000
  Nb  Nb1       1.0  0.02560  0.52600  0.25000  1.0000
  Nb  Nb2       1.0  0.47400  0.75000  0.25000  1.0000
  Nb  Nb3       1.0  0.25000  0.97400  0.25000  1.0000
  Nb  Nb4       1.0  0.75000  0.02560  0.75000  1.0000
  Nb  Nb5       1.0  0.52600  0.25000  0.75000  1.0000
  Nb  Nb6       1.0  0.97400  0.47400  0.75000  1.0000
