data_image0
_chemical_formula_structural       Cl4Pu6
_chemical_formula_sum              "Cl4 Pu6"
_cell_length_a       6.96967
_cell_length_b       6.96967
_cell_length_c       7.37789
_cell_angle_alpha    118.186
_cell_angle_beta     61.8141
_cell_angle_gamma    120

_space_group_name_H-M_alt    "P 1"
_space_group_IT_number       1

loop_
  _space_group_symop_operation_xyz
  'x, y, z'

loop_
  _atom_site_type_symbol
  _atom_site_label
  _atom_site_symmetry_multiplicity
  _atom_site_fract_x
  _atom_site_fract_y
  _atom_site_fract_z
  _atom_site_occupancy
  Cl  Cl1       1.0  0.33200  0.66800  0.00253  1.0000
  Cl  Cl2       1.0  0.16800  0.83200  0.49700  1.0000
  Cl  Cl3       1.0  0.83200  0.16800  0.50300  1.0000
  Cl  Cl4       1.0  0.66800  0.33200  0.99700  1.0000
  Pu  Pu1       1.0  0.25000  0.10000  0.25000  1.0000
  Pu  Pu2       1.0  0.90000  0.40000  0.25000  1.0000
  Pu  Pu3       1.0  0.60000  0.75000  0.25000  1.0000
  Pu  Pu4       1.0  0.40000  0.25000  0.75000  1.0000
  Pu  Pu5       1.0  0.10000  0.60000  0.75000  1.0000
  Pu  Pu6       1.0  0.75000  0.90000  0.75000  1.0000
