data_image0
_chemical_formula_structural       F4Zr6
_chemical_formula_sum              "F4 Zr6"
_cell_length_a       6.14033
_cell_length_b       6.14033
_cell_length_c       6.17595
_cell_angle_alpha    119.809
_cell_angle_beta     60.1906
_cell_angle_gamma    120

_space_group_name_H-M_alt    "P 1"
_space_group_IT_number       1

loop_
  _space_group_symop_operation_xyz
  'x, y, z'

loop_
  _atom_site_type_symbol
  _atom_site_label
  _atom_site_symmetry_multiplicity
  _atom_site_fract_x
  _atom_site_fract_y
  _atom_site_fract_z
  _atom_site_occupancy
  F   F1        1.0  0.66200  0.33800  0.01300  1.0000
  F   F2        1.0  0.83800  0.16200  0.48700  1.0000
  F   F3        1.0  0.16200  0.83800  0.51300  1.0000
  F   F4        1.0  0.33800  0.66200  0.98700  1.0000
  Zr  Zr1       1.0  0.87400  0.37400  0.25000  1.0000
  Zr  Zr2       1.0  0.62600  0.75000  0.25000  1.0000
  Zr  Zr3       1.0  0.25000  0.12600  0.25000  1.0000
  Zr  Zr4       1.0  0.75000  0.87400  0.75000  1.0000
  Zr  Zr5       1.0  0.37400  0.25000  0.75000  1.0000
  Zr  Zr6       1.0  0.12600  0.62600  0.75000  1.0000
