data_image0
_chemical_formula_structural       O4Sn6
_chemical_formula_sum              "O4 Sn6"
_cell_length_a       5.68027
_cell_length_b       5.68027
_cell_length_c       7.3863
_cell_angle_alpha    112.614
_cell_angle_beta     67.3865
_cell_angle_gamma    120

_space_group_name_H-M_alt    "P 1"
_space_group_IT_number       1

loop_
  _space_group_symop_operation_xyz
  'x, y, z'

loop_
  _atom_site_type_symbol
  _atom_site_label
  _atom_site_symmetry_multiplicity
  _atom_site_fract_x
  _atom_site_fract_y
  _atom_site_fract_z
  _atom_site_occupancy
  O   O1        1.0  0.31700  0.68300  0.04910  1.0000
  O   O2        1.0  0.18300  0.81700  0.45100  1.0000
  O   O3        1.0  0.81700  0.18300  0.54900  1.0000
  O   O4        1.0  0.68300  0.31700  0.95100  1.0000
  Sn  Sn1       1.0  0.91400  0.41400  0.25000  1.0000
  Sn  Sn2       1.0  0.25000  0.08630  0.25000  1.0000
  Sn  Sn3       1.0  0.58600  0.75000  0.25000  1.0000
  Sn  Sn4       1.0  0.41400  0.25000  0.75000  1.0000
  Sn  Sn5       1.0  0.75000  0.91400  0.75000  1.0000
  Sn  Sn6       1.0  0.08630  0.58600  0.75000  1.0000
