data_image0
_chemical_formula_structural       S4Tm6
_chemical_formula_sum              "S4 Tm6"
_cell_length_a       6.558
_cell_length_b       6.558
_cell_length_c       7.28004
_cell_angle_alpha    116.77
_cell_angle_beta     63.2301
_cell_angle_gamma    120

_space_group_name_H-M_alt    "P 1"
_space_group_IT_number       1

loop_
  _space_group_symop_operation_xyz
  'x, y, z'

loop_
  _atom_site_type_symbol
  _atom_site_label
  _atom_site_symmetry_multiplicity
  _atom_site_fract_x
  _atom_site_fract_y
  _atom_site_fract_z
  _atom_site_occupancy
  S   S1        1.0  0.66300  0.33700  0.00997  1.0000
  S   S2        1.0  0.83700  0.16300  0.49000  1.0000
  S   S3        1.0  0.16300  0.83700  0.51000  1.0000
  S   S4        1.0  0.33700  0.66300  0.99000  1.0000
  Tm  Tm1       1.0  0.25000  0.08080  0.25000  1.0000
  Tm  Tm2       1.0  0.91900  0.41900  0.25000  1.0000
  Tm  Tm3       1.0  0.58100  0.75000  0.25000  1.0000
  Tm  Tm4       1.0  0.41900  0.25000  0.75000  1.0000
  Tm  Tm5       1.0  0.08080  0.58100  0.75000  1.0000
  Tm  Tm6       1.0  0.75000  0.91900  0.75000  1.0000
