data_image0
_chemical_formula_structural       Ho4I6
_chemical_formula_sum              "Ho4 I6"
_cell_length_a       7.05683
_cell_length_b       7.05683
_cell_length_c       8.85942
_cell_angle_alpha    113.47
_cell_angle_beta     66.5301
_cell_angle_gamma    120

_space_group_name_H-M_alt    "P 1"
_space_group_IT_number       1

loop_
  _space_group_symop_operation_xyz
  'x, y, z'

loop_
  _atom_site_type_symbol
  _atom_site_label
  _atom_site_symmetry_multiplicity
  _atom_site_fract_x
  _atom_site_fract_y
  _atom_site_fract_z
  _atom_site_occupancy
  Ho  Ho1       1.0  0.32900  0.67100  0.01210  1.0000
  Ho  Ho2       1.0  0.17100  0.82900  0.48800  1.0000
  Ho  Ho3       1.0  0.82900  0.17100  0.51200  1.0000
  Ho  Ho4       1.0  0.67100  0.32900  0.98800  1.0000
  I   I1        1.0  0.25000  0.09320  0.25000  1.0000
  I   I2        1.0  0.90700  0.40700  0.25000  1.0000
  I   I3        1.0  0.59300  0.75000  0.25000  1.0000
  I   I4        1.0  0.40700  0.25000  0.75000  1.0000
  I   I5        1.0  0.09320  0.59300  0.75000  1.0000
  I   I6        1.0  0.75000  0.90700  0.75000  1.0000
