data_image0
_chemical_formula_structural       H4O6
_chemical_formula_sum              "H4 O6"
_cell_length_a       4.82953
_cell_length_b       4.82952
_cell_length_c       3.98987
_cell_angle_alpha    127.245
_cell_angle_beta     52.7551
_cell_angle_gamma    120

_space_group_name_H-M_alt    "P 1"
_space_group_IT_number       1

loop_
  _space_group_symop_operation_xyz
  'x, y, z'

loop_
  _atom_site_type_symbol
  _atom_site_label
  _atom_site_symmetry_multiplicity
  _atom_site_fract_x
  _atom_site_fract_y
  _atom_site_fract_z
  _atom_site_occupancy
  H   H1        1.0  0.60900  0.39100  0.17400  1.0000
  H   H2        1.0  0.89100  0.10900  0.32600  1.0000
  H   H3        1.0  0.10900  0.89100  0.67400  1.0000
  H   H4        1.0  0.39100  0.60900  0.82600  1.0000
  O   O1        1.0  0.75000  0.25000  0.25000  1.0000
  O   O2        1.0  0.25000  0.25000  0.25000  1.0000
  O   O3        1.0  0.75000  0.75000  0.25000  1.0000
  O   O4        1.0  0.25000  0.25000  0.75000  1.0000
  O   O5        1.0  0.75000  0.75000  0.75000  1.0000
  O   O6        1.0  0.25000  0.75000  0.75000  1.0000
