data_image0
_chemical_formula_structural       Br4P6
_chemical_formula_sum              "Br4 P6"
_cell_length_a       5.3052
_cell_length_b       5.3052
_cell_length_c       12.5033
_cell_angle_alpha    102.248
_cell_angle_beta     77.7516
_cell_angle_gamma    120

_space_group_name_H-M_alt    "P 1"
_space_group_IT_number       1

loop_
  _space_group_symop_operation_xyz
  'x, y, z'

loop_
  _atom_site_type_symbol
  _atom_site_label
  _atom_site_symmetry_multiplicity
  _atom_site_fract_x
  _atom_site_fract_y
  _atom_site_fract_z
  _atom_site_occupancy
  Br  Br1       1.0  0.64000  0.36000  0.07880  1.0000
  Br  Br2       1.0  0.86000  0.14000  0.42100  1.0000
  Br  Br3       1.0  0.14000  0.86000  0.57900  1.0000
  Br  Br4       1.0  0.36000  0.64000  0.92100  1.0000
  P   P1        1.0  0.01780  0.51800  0.25000  1.0000
  P   P2        1.0  0.25000  0.98200  0.25000  1.0000
  P   P3        1.0  0.48200  0.75000  0.25000  1.0000
  P   P4        1.0  0.51800  0.25000  0.75000  1.0000
  P   P5        1.0  0.75000  0.01780  0.75000  1.0000
  P   P6        1.0  0.98200  0.48200  0.75000  1.0000
