data_image0
_chemical_formula_structural       S4Yb6
_chemical_formula_sum              "S4 Yb6"
_cell_length_a       6.7657
_cell_length_b       6.7657
_cell_length_c       7.7792
_cell_angle_alpha    115.776
_cell_angle_beta     64.2237
_cell_angle_gamma    120

_space_group_name_H-M_alt    "P 1"
_space_group_IT_number       1

loop_
  _space_group_symop_operation_xyz
  'x, y, z'

loop_
  _atom_site_type_symbol
  _atom_site_label
  _atom_site_symmetry_multiplicity
  _atom_site_fract_x
  _atom_site_fract_y
  _atom_site_fract_z
  _atom_site_occupancy
  S   S1        1.0  0.66400  0.33600  0.00866  1.0000
  S   S2        1.0  0.83600  0.16400  0.49100  1.0000
  S   S3        1.0  0.16400  0.83600  0.50900  1.0000
  S   S4        1.0  0.33600  0.66400  0.99100  1.0000
  Yb  Yb1       1.0  0.25000  0.08230  0.25000  1.0000
  Yb  Yb2       1.0  0.91800  0.41800  0.25000  1.0000
  Yb  Yb3       1.0  0.58200  0.75000  0.25000  1.0000
  Yb  Yb4       1.0  0.41800  0.25000  0.75000  1.0000
  Yb  Yb5       1.0  0.08230  0.58200  0.75000  1.0000
  Yb  Yb6       1.0  0.75000  0.91800  0.75000  1.0000
