data_image0
_chemical_formula_structural       F4Os6
_chemical_formula_sum              "F4 Os6"
_cell_length_a       5.72865
_cell_length_b       5.72865
_cell_length_c       5.72586
_cell_angle_alpha    120.016
_cell_angle_beta     59.9839
_cell_angle_gamma    120

_space_group_name_H-M_alt    "P 1"
_space_group_IT_number       1

loop_
  _space_group_symop_operation_xyz
  'x, y, z'

loop_
  _atom_site_type_symbol
  _atom_site_label
  _atom_site_symmetry_multiplicity
  _atom_site_fract_x
  _atom_site_fract_y
  _atom_site_fract_z
  _atom_site_occupancy
  F   F1        1.0  0.92500  0.07510  0.22500  1.0000
  F   F2        1.0  0.57500  0.42500  0.27500  1.0000
  F   F3        1.0  0.42500  0.57500  0.72500  1.0000
  F   F4        1.0  0.07510  0.92500  0.77500  1.0000
  Os  Os1       1.0  0.25000  0.99700  0.25000  1.0000
  Os  Os2       1.0  0.49700  0.75000  0.25000  1.0000
  Os  Os3       1.0  0.00264  0.50300  0.25000  1.0000
  Os  Os4       1.0  0.99700  0.49700  0.75000  1.0000
  Os  Os5       1.0  0.50300  0.25000  0.75000  1.0000
  Os  Os6       1.0  0.75000  0.00264  0.75000  1.0000
