data_image0
_chemical_formula_structural       Cl4P6
_chemical_formula_sum              "Cl4 P6"
_cell_length_a       7.55028
_cell_length_b       7.55028
_cell_length_c       8.27636
_cell_angle_alpha    117.138
_cell_angle_beta     62.862
_cell_angle_gamma    120

_space_group_name_H-M_alt    "P 1"
_space_group_IT_number       1

loop_
  _space_group_symop_operation_xyz
  'x, y, z'

loop_
  _atom_site_type_symbol
  _atom_site_label
  _atom_site_symmetry_multiplicity
  _atom_site_fract_x
  _atom_site_fract_y
  _atom_site_fract_z
  _atom_site_occupancy
  Cl  Cl1       1.0  0.63400  0.36600  0.09690  1.0000
  Cl  Cl2       1.0  0.86600  0.13400  0.40300  1.0000
  Cl  Cl3       1.0  0.13400  0.86600  0.59700  1.0000
  Cl  Cl4       1.0  0.36600  0.63400  0.90300  1.0000
  P   P1        1.0  0.08630  0.58600  0.25000  1.0000
  P   P2        1.0  0.41400  0.75000  0.25000  1.0000
  P   P3        1.0  0.25000  0.91400  0.25000  1.0000
  P   P4        1.0  0.75000  0.08630  0.75000  1.0000
  P   P5        1.0  0.58600  0.25000  0.75000  1.0000
  P   P6        1.0  0.91400  0.41400  0.75000  1.0000
