data_image0
_chemical_formula_structural       I4Pa6
_chemical_formula_sum              "I4 Pa6"
_cell_length_a       8.67713
_cell_length_b       8.67713
_cell_length_c       6.75377
_cell_angle_alpha    129.97
_cell_angle_beta     50.0296
_cell_angle_gamma    120

_space_group_name_H-M_alt    "P 1"
_space_group_IT_number       1

loop_
  _space_group_symop_operation_xyz
  'x, y, z'

loop_
  _atom_site_type_symbol
  _atom_site_label
  _atom_site_symmetry_multiplicity
  _atom_site_fract_x
  _atom_site_fract_y
  _atom_site_fract_z
  _atom_site_occupancy
  I   I1        1.0  0.61900  0.38100  0.14400  1.0000
  I   I2        1.0  0.88100  0.11900  0.35600  1.0000
  I   I3        1.0  0.11900  0.88100  0.64400  1.0000
  I   I4        1.0  0.38100  0.61900  0.85600  1.0000
  Pa  Pa1       1.0  0.53700  0.75000  0.25000  1.0000
  Pa  Pa2       1.0  0.96300  0.46300  0.25000  1.0000
  Pa  Pa3       1.0  0.25000  0.03720  0.25000  1.0000
  Pa  Pa4       1.0  0.75000  0.96300  0.75000  1.0000
  Pa  Pa5       1.0  0.03720  0.53700  0.75000  1.0000
  Pa  Pa6       1.0  0.46300  0.25000  0.75000  1.0000
