data_image0
_chemical_formula_structural       Br4Zn6
_chemical_formula_sum              "Br4 Zn6"
_cell_length_a       7.63528
_cell_length_b       7.63528
_cell_length_c       7.107
_cell_angle_alpha    122.491
_cell_angle_beta     57.5091
_cell_angle_gamma    120

_space_group_name_H-M_alt    "P 1"
_space_group_IT_number       1

loop_
  _space_group_symop_operation_xyz
  'x, y, z'

loop_
  _atom_site_type_symbol
  _atom_site_label
  _atom_site_symmetry_multiplicity
  _atom_site_fract_x
  _atom_site_fract_y
  _atom_site_fract_z
  _atom_site_occupancy
  Br  Br1       1.0  0.63500  0.36500  0.09630  1.0000
  Br  Br2       1.0  0.86500  0.13500  0.40400  1.0000
  Br  Br3       1.0  0.13500  0.86500  0.59600  1.0000
  Br  Br4       1.0  0.36500  0.63500  0.90400  1.0000
  Zn  Zn1       1.0  0.55000  0.75000  0.25000  1.0000
  Zn  Zn2       1.0  0.95000  0.45000  0.25000  1.0000
  Zn  Zn3       1.0  0.25000  0.05050  0.25000  1.0000
  Zn  Zn4       1.0  0.75000  0.95000  0.75000  1.0000
  Zn  Zn5       1.0  0.05050  0.55000  0.75000  1.0000
  Zn  Zn6       1.0  0.45000  0.25000  0.75000  1.0000
