data_image0
_chemical_formula_structural       Br4Sb6
_chemical_formula_sum              "Br4 Sb6"
_cell_length_a       6.41784
_cell_length_b       6.41784
_cell_length_c       10.9031
_cell_angle_alpha    107.116
_cell_angle_beta     72.8837
_cell_angle_gamma    120

_space_group_name_H-M_alt    "P 1"
_space_group_IT_number       1

loop_
  _space_group_symop_operation_xyz
  'x, y, z'

loop_
  _atom_site_type_symbol
  _atom_site_label
  _atom_site_symmetry_multiplicity
  _atom_site_fract_x
  _atom_site_fract_y
  _atom_site_fract_z
  _atom_site_occupancy
  Br  Br1       1.0  0.66100  0.33900  0.01730  1.0000
  Br  Br2       1.0  0.83900  0.16100  0.48300  1.0000
  Br  Br3       1.0  0.16100  0.83900  0.51700  1.0000
  Br  Br4       1.0  0.33900  0.66100  0.98300  1.0000
  Sb  Sb1       1.0  0.99300  0.49300  0.25000  1.0000
  Sb  Sb2       1.0  0.50700  0.75000  0.25000  1.0000
  Sb  Sb3       1.0  0.25000  0.00683  0.25000  1.0000
  Sb  Sb4       1.0  0.00683  0.50700  0.75000  1.0000
  Sb  Sb5       1.0  0.49300  0.25000  0.75000  1.0000
  Sb  Sb6       1.0  0.75000  0.99300  0.75000  1.0000
