data_image0
_chemical_formula_structural       B4Br6
_chemical_formula_sum              "B4 Br6"
_cell_length_a       6.36635
_cell_length_b       6.36635
_cell_length_c       8.77316
_cell_angle_alpha    111.274
_cell_angle_beta     68.7258
_cell_angle_gamma    120

_space_group_name_H-M_alt    "P 1"
_space_group_IT_number       1

loop_
  _space_group_symop_operation_xyz
  'x, y, z'

loop_
  _atom_site_type_symbol
  _atom_site_label
  _atom_site_symmetry_multiplicity
  _atom_site_fract_x
  _atom_site_fract_y
  _atom_site_fract_z
  _atom_site_occupancy
  B   B1        1.0  0.61900  0.38100  0.14300  1.0000
  B   B2        1.0  0.88100  0.11900  0.35700  1.0000
  B   B3        1.0  0.11900  0.88100  0.64300  1.0000
  B   B4        1.0  0.38100  0.61900  0.85700  1.0000
  Br  Br1       1.0  0.25000  0.12200  0.25000  1.0000
  Br  Br2       1.0  0.87800  0.37800  0.25000  1.0000
  Br  Br3       1.0  0.62200  0.75000  0.25000  1.0000
  Br  Br4       1.0  0.37800  0.25000  0.75000  1.0000
  Br  Br5       1.0  0.12200  0.62200  0.75000  1.0000
  Br  Br6       1.0  0.75000  0.87800  0.75000  1.0000
