data_image0
_chemical_formula_structural       Cu4F6
_chemical_formula_sum              "Cu4 F6"
_cell_length_a       5.24445
_cell_length_b       5.24107
_cell_length_c       5.6019
_cell_angle_alpha    117.894
_cell_angle_beta     62.1001
_cell_angle_gamma    119.985

_space_group_name_H-M_alt    "P 1"
_space_group_IT_number       1

loop_
  _space_group_symop_operation_xyz
  'x, y, z'

loop_
  _atom_site_type_symbol
  _atom_site_label
  _atom_site_symmetry_multiplicity
  _atom_site_fract_x
  _atom_site_fract_y
  _atom_site_fract_z
  _atom_site_occupancy
  Cu  Cu1       1.0  0.65000  0.35000  0.04910  1.0000
  Cu  Cu2       1.0  0.85000  0.15000  0.45100  1.0000
  Cu  Cu3       1.0  0.15000  0.85000  0.54900  1.0000
  Cu  Cu4       1.0  0.35000  0.65000  0.95100  1.0000
  F   F1        1.0  0.93800  0.43800  0.25000  1.0000
  F   F2        1.0  0.25000  0.06200  0.25000  1.0000
  F   F3        1.0  0.56200  0.75000  0.25000  1.0000
  F   F4        1.0  0.43800  0.25000  0.75000  1.0000
  F   F5        1.0  0.75000  0.93800  0.75000  1.0000
  F   F6        1.0  0.06200  0.56200  0.75000  1.0000
