data_image0
_chemical_formula_structural       Br4Cr6
_chemical_formula_sum              "Br4 Cr6"
_cell_length_a       6.5728
_cell_length_b       6.5728
_cell_length_c       7.66977
_cell_angle_alpha    115.372
_cell_angle_beta     64.6284
_cell_angle_gamma    120

_space_group_name_H-M_alt    "P 1"
_space_group_IT_number       1

loop_
  _space_group_symop_operation_xyz
  'x, y, z'

loop_
  _atom_site_type_symbol
  _atom_site_label
  _atom_site_symmetry_multiplicity
  _atom_site_fract_x
  _atom_site_fract_y
  _atom_site_fract_z
  _atom_site_occupancy
  Br  Br1       1.0  0.33200  0.66800  0.00256  1.0000
  Br  Br2       1.0  0.16800  0.83200  0.49700  1.0000
  Br  Br3       1.0  0.83200  0.16800  0.50300  1.0000
  Br  Br4       1.0  0.66800  0.33200  0.99700  1.0000
  Cr  Cr1       1.0  0.25000  0.24600  0.25000  1.0000
  Cr  Cr2       1.0  0.75400  0.25400  0.25000  1.0000
  Cr  Cr3       1.0  0.74600  0.75000  0.25000  1.0000
  Cr  Cr4       1.0  0.25400  0.25000  0.75000  1.0000
  Cr  Cr5       1.0  0.24600  0.74600  0.75000  1.0000
  Cr  Cr6       1.0  0.75000  0.75400  0.75000  1.0000
