data_image0
_chemical_formula_structural       Al4F6
_chemical_formula_sum              "Al4 F6"
_cell_length_a       5.56174
_cell_length_b       5.56174
_cell_length_c       5.5851
_cell_angle_alpha    119.862
_cell_angle_beta     60.1383
_cell_angle_gamma    120

_space_group_name_H-M_alt    "P 1"
_space_group_IT_number       1

loop_
  _space_group_symop_operation_xyz
  'x, y, z'

loop_
  _atom_site_type_symbol
  _atom_site_label
  _atom_site_symmetry_multiplicity
  _atom_site_fract_x
  _atom_site_fract_y
  _atom_site_fract_z
  _atom_site_occupancy
  Al  Al1       1.0  0.65400  0.34600  0.03680  1.0000
  Al  Al2       1.0  0.84600  0.15400  0.46300  1.0000
  Al  Al3       1.0  0.15400  0.84600  0.53700  1.0000
  Al  Al4       1.0  0.34600  0.65400  0.96300  1.0000
  F   F1        1.0  0.74900  0.24900  0.25000  1.0000
  F   F2        1.0  0.25000  0.25100  0.25000  1.0000
  F   F3        1.0  0.75100  0.75000  0.25000  1.0000
  F   F4        1.0  0.24900  0.25000  0.75000  1.0000
  F   F5        1.0  0.75000  0.74900  0.75000  1.0000
  F   F6        1.0  0.25100  0.75100  0.75000  1.0000
