data_image0
_chemical_formula_structural       N4Si6
_chemical_formula_sum              "N4 Si6"
_cell_length_a       5.994
_cell_length_b       5.994
_cell_length_c       5.26288
_cell_angle_alpha    124.713
_cell_angle_beta     55.2874
_cell_angle_gamma    120

_space_group_name_H-M_alt    "P 1"
_space_group_IT_number       1

loop_
  _space_group_symop_operation_xyz
  'x, y, z'

loop_
  _atom_site_type_symbol
  _atom_site_label
  _atom_site_symmetry_multiplicity
  _atom_site_fract_x
  _atom_site_fract_y
  _atom_site_fract_z
  _atom_site_occupancy
  N   N1        1.0  0.63100  0.36900  0.10800  1.0000
  N   N2        1.0  0.86900  0.13100  0.39200  1.0000
  N   N3        1.0  0.13100  0.86900  0.60800  1.0000
  N   N4        1.0  0.36900  0.63100  0.89200  1.0000
  Si  Si1       1.0  0.74800  0.75000  0.25000  1.0000
  Si  Si2       1.0  0.25000  0.24800  0.25000  1.0000
  Si  Si3       1.0  0.75200  0.25200  0.25000  1.0000
  Si  Si4       1.0  0.24800  0.74800  0.75000  1.0000
  Si  Si5       1.0  0.75000  0.75200  0.75000  1.0000
  Si  Si6       1.0  0.25200  0.25000  0.75000  1.0000
