data_image0
_chemical_formula_structural       F4Pb6
_chemical_formula_sum              "F4 Pb6"
_cell_length_a       6.97406
_cell_length_b       6.97406
_cell_length_c       6.70406
_cell_angle_alpha    121.341
_cell_angle_beta     58.6585
_cell_angle_gamma    120

_space_group_name_H-M_alt    "P 1"
_space_group_IT_number       1

loop_
  _space_group_symop_operation_xyz
  'x, y, z'

loop_
  _atom_site_type_symbol
  _atom_site_label
  _atom_site_symmetry_multiplicity
  _atom_site_fract_x
  _atom_site_fract_y
  _atom_site_fract_z
  _atom_site_occupancy
  F   F1        1.0  0.66200  0.33800  0.01410  1.0000
  F   F2        1.0  0.83800  0.16200  0.48600  1.0000
  F   F3        1.0  0.16200  0.83800  0.51400  1.0000
  F   F4        1.0  0.33800  0.66200  0.98600  1.0000
  Pb  Pb1       1.0  0.62200  0.75000  0.25000  1.0000
  Pb  Pb2       1.0  0.87800  0.37800  0.25000  1.0000
  Pb  Pb3       1.0  0.25000  0.12200  0.25000  1.0000
  Pb  Pb4       1.0  0.75000  0.87800  0.75000  1.0000
  Pb  Pb5       1.0  0.12200  0.62200  0.75000  1.0000
  Pb  Pb6       1.0  0.37800  0.25000  0.75000  1.0000
