data_image0
_chemical_formula_structural       N4Tc6
_chemical_formula_sum              "N4 Tc6"
_cell_length_a       4.97053
_cell_length_b       4.97053
_cell_length_c       5.91094
_cell_angle_alpha    114.863
_cell_angle_beta     65.1369
_cell_angle_gamma    120

_space_group_name_H-M_alt    "P 1"
_space_group_IT_number       1

loop_
  _space_group_symop_operation_xyz
  'x, y, z'

loop_
  _atom_site_type_symbol
  _atom_site_label
  _atom_site_symmetry_multiplicity
  _atom_site_fract_x
  _atom_site_fract_y
  _atom_site_fract_z
  _atom_site_occupancy
  N   N1        1.0  0.66100  0.33900  0.01690  1.0000
  N   N2        1.0  0.83900  0.16100  0.48300  1.0000
  N   N3        1.0  0.16100  0.83900  0.51700  1.0000
  N   N4        1.0  0.33900  0.66100  0.98300  1.0000
  Tc  Tc1       1.0  0.58600  0.75000  0.25000  1.0000
  Tc  Tc2       1.0  0.25000  0.08640  0.25000  1.0000
  Tc  Tc3       1.0  0.91400  0.41400  0.25000  1.0000
  Tc  Tc4       1.0  0.08640  0.58600  0.75000  1.0000
  Tc  Tc5       1.0  0.75000  0.91400  0.75000  1.0000
  Tc  Tc6       1.0  0.41400  0.25000  0.75000  1.0000
