data_image0
_chemical_formula_structural       S4Sb6
_chemical_formula_sum              "S4 Sb6"
_cell_length_a       8.53746
_cell_length_b       8.53746
_cell_length_c       6.64853
_cell_angle_alpha    129.945
_cell_angle_beta     50.0547
_cell_angle_gamma    120

_space_group_name_H-M_alt    "P 1"
_space_group_IT_number       1

loop_
  _space_group_symop_operation_xyz
  'x, y, z'

loop_
  _atom_site_type_symbol
  _atom_site_label
  _atom_site_symmetry_multiplicity
  _atom_site_fract_x
  _atom_site_fract_y
  _atom_site_fract_z
  _atom_site_occupancy
  S   S1        1.0  0.64900  0.35100  0.05160  1.0000
  S   S2        1.0  0.85100  0.14900  0.44800  1.0000
  S   S3        1.0  0.14900  0.85100  0.55200  1.0000
  S   S4        1.0  0.35100  0.64900  0.94800  1.0000
  Sb  Sb1       1.0  0.74800  0.75000  0.25000  1.0000
  Sb  Sb2       1.0  0.75200  0.25200  0.25000  1.0000
  Sb  Sb3       1.0  0.25000  0.24800  0.25000  1.0000
  Sb  Sb4       1.0  0.75000  0.75200  0.75000  1.0000
  Sb  Sb5       1.0  0.24800  0.74800  0.75000  1.0000
  Sb  Sb6       1.0  0.25200  0.25000  0.75000  1.0000
