data_image0
_chemical_formula_structural       I4Pt6
_chemical_formula_sum              "I4 Pt6"
_cell_length_a       6.56406
_cell_length_b       6.56406
_cell_length_c       7.53287
_cell_angle_alpha    115.829
_cell_angle_beta     64.1705
_cell_angle_gamma    120

_space_group_name_H-M_alt    "P 1"
_space_group_IT_number       1

loop_
  _space_group_symop_operation_xyz
  'x, y, z'

loop_
  _atom_site_type_symbol
  _atom_site_label
  _atom_site_symmetry_multiplicity
  _atom_site_fract_x
  _atom_site_fract_y
  _atom_site_fract_z
  _atom_site_occupancy
  I   I1        1.0  0.61400  0.38600  0.15700  1.0000
  I   I2        1.0  0.88600  0.11400  0.34300  1.0000
  I   I3        1.0  0.11400  0.88600  0.65700  1.0000
  I   I4        1.0  0.38600  0.61400  0.84300  1.0000
  Pt  Pt1       1.0  0.02130  0.52100  0.25000  1.0000
  Pt  Pt2       1.0  0.47900  0.75000  0.25000  1.0000
  Pt  Pt3       1.0  0.25000  0.97900  0.25000  1.0000
  Pt  Pt4       1.0  0.75000  0.02130  0.75000  1.0000
  Pt  Pt5       1.0  0.52100  0.25000  0.75000  1.0000
  Pt  Pt6       1.0  0.97900  0.47900  0.75000  1.0000
