data_image0
_chemical_formula_structural       F4Ni6
_chemical_formula_sum              "F4 Ni6"
_cell_length_a       5.74492
_cell_length_b       5.74492
_cell_length_c       5.26566
_cell_angle_alpha    123.059
_cell_angle_beta     56.9406
_cell_angle_gamma    120

_space_group_name_H-M_alt    "P 1"
_space_group_IT_number       1

loop_
  _space_group_symop_operation_xyz
  'x, y, z'

loop_
  _atom_site_type_symbol
  _atom_site_label
  _atom_site_symmetry_multiplicity
  _atom_site_fract_x
  _atom_site_fract_y
  _atom_site_fract_z
  _atom_site_occupancy
  F   F1        1.0  0.65600  0.34400  0.03170  1.0000
  F   F2        1.0  0.84400  0.15600  0.46800  1.0000
  F   F3        1.0  0.15600  0.84400  0.53200  1.0000
  F   F4        1.0  0.34400  0.65600  0.96800  1.0000
  Ni  Ni1       1.0  0.75300  0.75000  0.25000  1.0000
  Ni  Ni2       1.0  0.74700  0.24700  0.25000  1.0000
  Ni  Ni3       1.0  0.25000  0.25300  0.25000  1.0000
  Ni  Ni4       1.0  0.75000  0.74700  0.75000  1.0000
  Ni  Ni5       1.0  0.25300  0.75300  0.75000  1.0000
  Ni  Ni6       1.0  0.24700  0.25000  0.75000  1.0000
