data_image0
_chemical_formula_structural       Cl4Ta6
_chemical_formula_sum              "Cl4 Ta6"
_cell_length_a       6.6157
_cell_length_b       6.6157
_cell_length_c       6.024
_cell_angle_alpha    123.306
_cell_angle_beta     56.6939
_cell_angle_gamma    120

_space_group_name_H-M_alt    "P 1"
_space_group_IT_number       1

loop_
  _space_group_symop_operation_xyz
  'x, y, z'

loop_
  _atom_site_type_symbol
  _atom_site_label
  _atom_site_symmetry_multiplicity
  _atom_site_fract_x
  _atom_site_fract_y
  _atom_site_fract_z
  _atom_site_occupancy
  Cl  Cl1       1.0  0.59900  0.40100  0.20300  1.0000
  Cl  Cl2       1.0  0.90100  0.09890  0.29700  1.0000
  Cl  Cl3       1.0  0.09890  0.90100  0.70300  1.0000
  Cl  Cl4       1.0  0.40100  0.59900  0.79700  1.0000
  Ta  Ta1       1.0  0.50100  0.75000  0.25000  1.0000
  Ta  Ta2       1.0  0.99900  0.49900  0.25000  1.0000
  Ta  Ta3       1.0  0.25000  0.00147  0.25000  1.0000
  Ta  Ta4       1.0  0.75000  0.99900  0.75000  1.0000
  Ta  Ta5       1.0  0.00147  0.50100  0.75000  1.0000
  Ta  Ta6       1.0  0.49900  0.25000  0.75000  1.0000
