data_image0
_chemical_formula_structural       N4Tl6
_chemical_formula_sum              "N4 Tl6"
_cell_length_a       6.38394
_cell_length_b       6.38395
_cell_length_c       6.76096
_cell_angle_alpha    118.172
_cell_angle_beta     61.8281
_cell_angle_gamma    120

_space_group_name_H-M_alt    "P 1"
_space_group_IT_number       1

loop_
  _space_group_symop_operation_xyz
  'x, y, z'

loop_
  _atom_site_type_symbol
  _atom_site_label
  _atom_site_symmetry_multiplicity
  _atom_site_fract_x
  _atom_site_fract_y
  _atom_site_fract_z
  _atom_site_occupancy
  N   N1        1.0  0.64700  0.35300  0.06020  1.0000
  N   N2        1.0  0.85300  0.14700  0.44000  1.0000
  N   N3        1.0  0.14700  0.85300  0.56000  1.0000
  N   N4        1.0  0.35300  0.64700  0.94000  1.0000
  Tl  Tl1       1.0  0.56200  0.75000  0.25000  1.0000
  Tl  Tl2       1.0  0.25000  0.06220  0.25000  1.0000
  Tl  Tl3       1.0  0.93800  0.43800  0.25000  1.0000
  Tl  Tl4       1.0  0.06220  0.56200  0.75000  1.0000
  Tl  Tl5       1.0  0.75000  0.93800  0.75000  1.0000
  Tl  Tl6       1.0  0.43800  0.25000  0.75000  1.0000
