data_image0
_chemical_formula_structural       N4Zr6
_chemical_formula_sum              "N4 Zr6"
_cell_length_a       5.66087
_cell_length_b       5.66086
_cell_length_c       6.18005
_cell_angle_alpha    117.258
_cell_angle_beta     62.7422
_cell_angle_gamma    120

_space_group_name_H-M_alt    "P 1"
_space_group_IT_number       1

loop_
  _space_group_symop_operation_xyz
  'x, y, z'

loop_
  _atom_site_type_symbol
  _atom_site_label
  _atom_site_symmetry_multiplicity
  _atom_site_fract_x
  _atom_site_fract_y
  _atom_site_fract_z
  _atom_site_occupancy
  N   N1        1.0  0.66100  0.33900  0.01620  1.0000
  N   N2        1.0  0.83900  0.16100  0.48400  1.0000
  N   N3        1.0  0.16100  0.83900  0.51600  1.0000
  N   N4        1.0  0.33900  0.66100  0.98400  1.0000
  Zr  Zr1       1.0  0.57500  0.75000  0.25000  1.0000
  Zr  Zr2       1.0  0.92500  0.42500  0.25000  1.0000
  Zr  Zr3       1.0  0.25000  0.07540  0.25000  1.0000
  Zr  Zr4       1.0  0.75000  0.92500  0.75000  1.0000
  Zr  Zr5       1.0  0.07540  0.57500  0.75000  1.0000
  Zr  Zr6       1.0  0.42500  0.25000  0.75000  1.0000
