data_image0
_chemical_formula_structural       F4W6
_chemical_formula_sum              "F4 W6"
_cell_length_a       5.72855
_cell_length_b       5.72855
_cell_length_c       5.98524
_cell_angle_alpha    118.591
_cell_angle_beta     61.4088
_cell_angle_gamma    120

_space_group_name_H-M_alt    "P 1"
_space_group_IT_number       1

loop_
  _space_group_symop_operation_xyz
  'x, y, z'

loop_
  _atom_site_type_symbol
  _atom_site_label
  _atom_site_symmetry_multiplicity
  _atom_site_fract_x
  _atom_site_fract_y
  _atom_site_fract_z
  _atom_site_occupancy
  F   F1        1.0  0.92800  0.07180  0.21500  1.0000
  F   F2        1.0  0.57200  0.42800  0.28500  1.0000
  F   F3        1.0  0.42800  0.57200  0.71500  1.0000
  F   F4        1.0  0.07180  0.92800  0.78500  1.0000
  W   W1        1.0  0.25000  0.00911  0.25000  1.0000
  W   W2        1.0  0.99100  0.49100  0.25000  1.0000
  W   W3        1.0  0.50900  0.75000  0.25000  1.0000
  W   W4        1.0  0.49100  0.25000  0.75000  1.0000
  W   W5        1.0  0.00911  0.50900  0.75000  1.0000
  W   W6        1.0  0.75000  0.99100  0.75000  1.0000
