data_image0
_chemical_formula_structural       F4Hf6
_chemical_formula_sum              "F4 Hf6"
_cell_length_a       6.28853
_cell_length_b       6.28853
_cell_length_c       6.0398
_cell_angle_alpha    121.372
_cell_angle_beta     58.6281
_cell_angle_gamma    120

_space_group_name_H-M_alt    "P 1"
_space_group_IT_number       1

loop_
  _space_group_symop_operation_xyz
  'x, y, z'

loop_
  _atom_site_type_symbol
  _atom_site_label
  _atom_site_symmetry_multiplicity
  _atom_site_fract_x
  _atom_site_fract_y
  _atom_site_fract_z
  _atom_site_occupancy
  F   F1        1.0  0.65700  0.34300  0.02800  1.0000
  F   F2        1.0  0.84300  0.15700  0.47200  1.0000
  F   F3        1.0  0.15700  0.84300  0.52800  1.0000
  F   F4        1.0  0.34300  0.65700  0.97200  1.0000
  Hf  Hf1       1.0  0.65300  0.75000  0.25000  1.0000
  Hf  Hf2       1.0  0.25000  0.15300  0.25000  1.0000
  Hf  Hf3       1.0  0.84700  0.34700  0.25000  1.0000
  Hf  Hf4       1.0  0.15300  0.65300  0.75000  1.0000
  Hf  Hf5       1.0  0.75000  0.84700  0.75000  1.0000
  Hf  Hf6       1.0  0.34700  0.25000  0.75000  1.0000
