data_image0
_chemical_formula_structural       F4Ge6
_chemical_formula_sum              "F4 Ge6"
_cell_length_a       7.07887
_cell_length_b       7.07887
_cell_length_c       5.50816
_cell_angle_alpha    129.985
_cell_angle_beta     50.0155
_cell_angle_gamma    120

_space_group_name_H-M_alt    "P 1"
_space_group_IT_number       1

loop_
  _space_group_symop_operation_xyz
  'x, y, z'

loop_
  _atom_site_type_symbol
  _atom_site_label
  _atom_site_symmetry_multiplicity
  _atom_site_fract_x
  _atom_site_fract_y
  _atom_site_fract_z
  _atom_site_occupancy
  F   F1        1.0  0.64100  0.35900  0.07640  1.0000
  F   F2        1.0  0.85900  0.14100  0.42400  1.0000
  F   F3        1.0  0.14100  0.85900  0.57600  1.0000
  F   F4        1.0  0.35900  0.64100  0.92400  1.0000
  Ge  Ge1       1.0  0.74000  0.24000  0.25000  1.0000
  Ge  Ge2       1.0  0.25000  0.26000  0.25000  1.0000
  Ge  Ge3       1.0  0.76000  0.75000  0.25000  1.0000
  Ge  Ge4       1.0  0.24000  0.25000  0.75000  1.0000
  Ge  Ge5       1.0  0.75000  0.74000  0.75000  1.0000
  Ge  Ge6       1.0  0.26000  0.76000  0.75000  1.0000
