data_image0
_chemical_formula_structural       I4Tl6
_chemical_formula_sum              "I4 Tl6"
_cell_length_a       7.65301
_cell_length_b       7.65301
_cell_length_c       9.43857
_cell_angle_alpha    113.917
_cell_angle_beta     66.0831
_cell_angle_gamma    120

_space_group_name_H-M_alt    "P 1"
_space_group_IT_number       1

loop_
  _space_group_symop_operation_xyz
  'x, y, z'

loop_
  _atom_site_type_symbol
  _atom_site_label
  _atom_site_symmetry_multiplicity
  _atom_site_fract_x
  _atom_site_fract_y
  _atom_site_fract_z
  _atom_site_occupancy
  I   I1        1.0  0.32300  0.67700  0.03130  1.0000
  I   I2        1.0  0.17700  0.82300  0.46900  1.0000
  I   I3        1.0  0.82300  0.17700  0.53100  1.0000
  I   I4        1.0  0.67700  0.32300  0.96900  1.0000
  Tl  Tl1       1.0  0.86700  0.36700  0.25000  1.0000
  Tl  Tl2       1.0  0.25000  0.13300  0.25000  1.0000
  Tl  Tl3       1.0  0.63300  0.75000  0.25000  1.0000
  Tl  Tl4       1.0  0.36700  0.25000  0.75000  1.0000
  Tl  Tl5       1.0  0.13300  0.63300  0.75000  1.0000
  Tl  Tl6       1.0  0.75000  0.86700  0.75000  1.0000
