data_image0
_chemical_formula_structural       O4Te6
_chemical_formula_sum              "O4 Te6"
_cell_length_a       6.14192
_cell_length_b       6.14192
_cell_length_c       7.76699
_cell_angle_alpha    113.29
_cell_angle_beta     66.7099
_cell_angle_gamma    120

_space_group_name_H-M_alt    "P 1"
_space_group_IT_number       1

loop_
  _space_group_symop_operation_xyz
  'x, y, z'

loop_
  _atom_site_type_symbol
  _atom_site_label
  _atom_site_symmetry_multiplicity
  _atom_site_fract_x
  _atom_site_fract_y
  _atom_site_fract_z
  _atom_site_occupancy
  O   O1        1.0  0.64800  0.35200  0.05470  1.0000
  O   O2        1.0  0.85200  0.14800  0.44500  1.0000
  O   O3        1.0  0.14800  0.85200  0.55500  1.0000
  O   O4        1.0  0.35200  0.64800  0.94500  1.0000
  Te  Te1       1.0  0.25000  0.24600  0.25000  1.0000
  Te  Te2       1.0  0.75400  0.25400  0.25000  1.0000
  Te  Te3       1.0  0.74600  0.75000  0.25000  1.0000
  Te  Te4       1.0  0.25400  0.25000  0.75000  1.0000
  Te  Te5       1.0  0.24600  0.74600  0.75000  1.0000
  Te  Te6       1.0  0.75000  0.75400  0.75000  1.0000
