data_image0
_chemical_formula_structural       S4V6
_chemical_formula_sum              "S4 V6"
_cell_length_a       6.0425
_cell_length_b       6.0425
_cell_length_c       5.61483
_cell_angle_alpha    122.553
_cell_angle_beta     57.4467
_cell_angle_gamma    120

_space_group_name_H-M_alt    "P 1"
_space_group_IT_number       1

loop_
  _space_group_symop_operation_xyz
  'x, y, z'

loop_
  _atom_site_type_symbol
  _atom_site_label
  _atom_site_symmetry_multiplicity
  _atom_site_fract_x
  _atom_site_fract_y
  _atom_site_fract_z
  _atom_site_occupancy
  S   S1        1.0  0.61500  0.38500  0.15600  1.0000
  S   S2        1.0  0.88500  0.11500  0.34400  1.0000
  S   S3        1.0  0.11500  0.88500  0.65600  1.0000
  S   S4        1.0  0.38500  0.61500  0.84400  1.0000
  V   V1        1.0  0.51100  0.75000  0.25000  1.0000
  V   V2        1.0  0.98900  0.48900  0.25000  1.0000
  V   V3        1.0  0.25000  0.01060  0.25000  1.0000
  V   V4        1.0  0.75000  0.98900  0.75000  1.0000
  V   V5        1.0  0.01060  0.51100  0.75000  1.0000
  V   V6        1.0  0.48900  0.25000  0.75000  1.0000
