data_image0
_chemical_formula_structural       O4Pr6
_chemical_formula_sum              "O4 Pr6"
_cell_length_a       6.33619
_cell_length_b       6.33619
_cell_length_c       6.86751
_cell_angle_alpha    117.472
_cell_angle_beta     62.5279
_cell_angle_gamma    120

_space_group_name_H-M_alt    "P 1"
_space_group_IT_number       1

loop_
  _space_group_symop_operation_xyz
  'x, y, z'

loop_
  _atom_site_type_symbol
  _atom_site_label
  _atom_site_symmetry_multiplicity
  _atom_site_fract_x
  _atom_site_fract_y
  _atom_site_fract_z
  _atom_site_occupancy
  O   O1        1.0  0.66500  0.33500  0.00589  1.0000
  O   O2        1.0  0.83500  0.16500  0.49400  1.0000
  O   O3        1.0  0.16500  0.83500  0.50600  1.0000
  O   O4        1.0  0.33500  0.66500  0.99400  1.0000
  Pr  Pr1       1.0  0.25000  0.07940  0.25000  1.0000
  Pr  Pr2       1.0  0.57900  0.75000  0.25000  1.0000
  Pr  Pr3       1.0  0.92100  0.42100  0.25000  1.0000
  Pr  Pr4       1.0  0.07940  0.57900  0.75000  1.0000
  Pr  Pr5       1.0  0.42100  0.25000  0.75000  1.0000
  Pr  Pr6       1.0  0.75000  0.92100  0.75000  1.0000
