data_image0
_chemical_formula_structural       I4Tm6
_chemical_formula_sum              "I4 Tm6"
_cell_length_a       6.4078
_cell_length_b       6.40781
_cell_length_c       9.67534
_cell_angle_alpha    109.338
_cell_angle_beta     70.662
_cell_angle_gamma    120

_space_group_name_H-M_alt    "P 1"
_space_group_IT_number       1

loop_
  _space_group_symop_operation_xyz
  'x, y, z'

loop_
  _atom_site_type_symbol
  _atom_site_label
  _atom_site_symmetry_multiplicity
  _atom_site_fract_x
  _atom_site_fract_y
  _atom_site_fract_z
  _atom_site_occupancy
  I   I1        1.0  0.32700  0.67300  0.01850  1.0000
  I   I2        1.0  0.17300  0.82700  0.48100  1.0000
  I   I3        1.0  0.82700  0.17300  0.51900  1.0000
  I   I4        1.0  0.67300  0.32700  0.98100  1.0000
  Tm  Tm1       1.0  0.25000  0.11100  0.25000  1.0000
  Tm  Tm2       1.0  0.88900  0.38900  0.25000  1.0000
  Tm  Tm3       1.0  0.61100  0.75000  0.25000  1.0000
  Tm  Tm4       1.0  0.38900  0.25000  0.75000  1.0000
  Tm  Tm5       1.0  0.11100  0.61100  0.75000  1.0000
  Tm  Tm6       1.0  0.75000  0.88900  0.75000  1.0000
