data_image0
_chemical_formula_structural       I4Sc6
_chemical_formula_sum              "I4 Sc6"
_cell_length_a       7.17798
_cell_length_b       7.17798
_cell_length_c       7.48354
_cell_angle_alpha    118.658
_cell_angle_beta     61.3417
_cell_angle_gamma    120

_space_group_name_H-M_alt    "P 1"
_space_group_IT_number       1

loop_
  _space_group_symop_operation_xyz
  'x, y, z'

loop_
  _atom_site_type_symbol
  _atom_site_label
  _atom_site_symmetry_multiplicity
  _atom_site_fract_x
  _atom_site_fract_y
  _atom_site_fract_z
  _atom_site_occupancy
  I   I1        1.0  0.65000  0.35000  0.04990  1.0000
  I   I2        1.0  0.85000  0.15000  0.45000  1.0000
  I   I3        1.0  0.15000  0.85000  0.55000  1.0000
  I   I4        1.0  0.35000  0.65000  0.95000  1.0000
  Sc  Sc1       1.0  0.55500  0.75000  0.25000  1.0000
  Sc  Sc2       1.0  0.94500  0.44500  0.25000  1.0000
  Sc  Sc3       1.0  0.25000  0.05500  0.25000  1.0000
  Sc  Sc4       1.0  0.75000  0.94500  0.75000  1.0000
  Sc  Sc5       1.0  0.05500  0.55500  0.75000  1.0000
  Sc  Sc6       1.0  0.44500  0.25000  0.75000  1.0000
