data_image0
_chemical_formula_structural       F4Ir6
_chemical_formula_sum              "F4 Ir6"
_cell_length_a       5.72961
_cell_length_b       5.72961
_cell_length_c       5.77215
_cell_angle_alpha    119.756
_cell_angle_beta     60.2435
_cell_angle_gamma    120

_space_group_name_H-M_alt    "P 1"
_space_group_IT_number       1

loop_
  _space_group_symop_operation_xyz
  'x, y, z'

loop_
  _atom_site_type_symbol
  _atom_site_label
  _atom_site_symmetry_multiplicity
  _atom_site_fract_x
  _atom_site_fract_y
  _atom_site_fract_z
  _atom_site_occupancy
  F   F1        1.0  0.92400  0.07600  0.22800  1.0000
  F   F2        1.0  0.57600  0.42400  0.27200  1.0000
  F   F3        1.0  0.42400  0.57600  0.72800  1.0000
  F   F4        1.0  0.07600  0.92400  0.77200  1.0000
  Ir  Ir1       1.0  0.25000  0.99800  0.25000  1.0000
  Ir  Ir2       1.0  0.49800  0.75000  0.25000  1.0000
  Ir  Ir3       1.0  0.00152  0.50200  0.25000  1.0000
  Ir  Ir4       1.0  0.99800  0.49800  0.75000  1.0000
  Ir  Ir5       1.0  0.50200  0.25000  0.75000  1.0000
  Ir  Ir6       1.0  0.75000  0.00152  0.75000  1.0000
