data_image0
_chemical_formula_structural       O4S6
_chemical_formula_sum              "O4 S6"
_cell_length_a       5.19247
_cell_length_b       5.19247
_cell_length_c       6.79787
_cell_angle_alpha    112.453
_cell_angle_beta     67.5474
_cell_angle_gamma    120

_space_group_name_H-M_alt    "P 1"
_space_group_IT_number       1

loop_
  _space_group_symop_operation_xyz
  'x, y, z'

loop_
  _atom_site_type_symbol
  _atom_site_label
  _atom_site_symmetry_multiplicity
  _atom_site_fract_x
  _atom_site_fract_y
  _atom_site_fract_z
  _atom_site_occupancy
  O   O1        1.0  0.92000  0.08010  0.24000  1.0000
  O   O2        1.0  0.58000  0.42000  0.26000  1.0000
  O   O3        1.0  0.42000  0.58000  0.74000  1.0000
  O   O4        1.0  0.08010  0.92000  0.76000  1.0000
  S   S1        1.0  0.25000  0.99997  0.25000  1.0000
  S   S2        1.0  0.00003  0.50000  0.25000  1.0000
  S   S3        1.0  0.50000  0.75000  0.25000  1.0000
  S   S4        1.0  0.75000  0.00003  0.75000  1.0000
  S   S5        1.0  0.50000  0.25000  0.75000  1.0000
  S   S6        1.0  0.99997  0.50000  0.75000  1.0000
