data_image0
_chemical_formula_structural       I4Zr6
_chemical_formula_sum              "I4 Zr6"
_cell_length_a       7.40018
_cell_length_b       7.40018
_cell_length_c       6.95632
_cell_angle_alpha    122.134
_cell_angle_beta     57.8658
_cell_angle_gamma    120

_space_group_name_H-M_alt    "P 1"
_space_group_IT_number       1

loop_
  _space_group_symop_operation_xyz
  'x, y, z'

loop_
  _atom_site_type_symbol
  _atom_site_label
  _atom_site_symmetry_multiplicity
  _atom_site_fract_x
  _atom_site_fract_y
  _atom_site_fract_z
  _atom_site_occupancy
  I   I1        1.0  0.60400  0.39600  0.18900  1.0000
  I   I2        1.0  0.89600  0.10400  0.31100  1.0000
  I   I3        1.0  0.10400  0.89600  0.68900  1.0000
  I   I4        1.0  0.39600  0.60400  0.81100  1.0000
  Zr  Zr1       1.0  0.25000  0.98900  0.25000  1.0000
  Zr  Zr2       1.0  0.48900  0.75000  0.25000  1.0000
  Zr  Zr3       1.0  0.01050  0.51100  0.25000  1.0000
  Zr  Zr4       1.0  0.98900  0.48900  0.75000  1.0000
  Zr  Zr5       1.0  0.51100  0.25000  0.75000  1.0000
  Zr  Zr6       1.0  0.75000  0.01050  0.75000  1.0000
