data_image0
_chemical_formula_structural       I4Rb6
_chemical_formula_sum              "I4 Rb6"
_cell_length_a       9.10404
_cell_length_b       9.10404
_cell_length_c       10.3981
_cell_angle_alpha    115.962
_cell_angle_beta     64.038
_cell_angle_gamma    120

_space_group_name_H-M_alt    "P 1"
_space_group_IT_number       1

loop_
  _space_group_symop_operation_xyz
  'x, y, z'

loop_
  _atom_site_type_symbol
  _atom_site_label
  _atom_site_symmetry_multiplicity
  _atom_site_fract_x
  _atom_site_fract_y
  _atom_site_fract_z
  _atom_site_occupancy
  I   I1        1.0  0.66100  0.33900  0.01590  1.0000
  I   I2        1.0  0.83900  0.16100  0.48400  1.0000
  I   I3        1.0  0.16100  0.83900  0.51600  1.0000
  I   I4        1.0  0.33900  0.66100  0.98400  1.0000
  Rb  Rb1       1.0  0.57300  0.75000  0.25000  1.0000
  Rb  Rb2       1.0  0.92700  0.42700  0.25000  1.0000
  Rb  Rb3       1.0  0.25000  0.07340  0.25000  1.0000
  Rb  Rb4       1.0  0.75000  0.92700  0.75000  1.0000
  Rb  Rb5       1.0  0.07340  0.57300  0.75000  1.0000
  Rb  Rb6       1.0  0.42700  0.25000  0.75000  1.0000
