data_image0
_chemical_formula_structural       As4Cl6
_chemical_formula_sum              "As4 Cl6"
_cell_length_a       7.64495
_cell_length_b       7.64495
_cell_length_c       6.65858
_cell_angle_alpha    125.034
_cell_angle_beta     54.9656
_cell_angle_gamma    120

_space_group_name_H-M_alt    "P 1"
_space_group_IT_number       1

loop_
  _space_group_symop_operation_xyz
  'x, y, z'

loop_
  _atom_site_type_symbol
  _atom_site_label
  _atom_site_symmetry_multiplicity
  _atom_site_fract_x
  _atom_site_fract_y
  _atom_site_fract_z
  _atom_site_occupancy
  As  As1       1.0  0.66400  0.33600  0.00937  1.0000
  As  As2       1.0  0.83600  0.16400  0.49100  1.0000
  As  As3       1.0  0.16400  0.83600  0.50900  1.0000
  As  As4       1.0  0.33600  0.66400  0.99100  1.0000
  Cl  Cl1       1.0  0.25000  0.24100  0.25000  1.0000
  Cl  Cl2       1.0  0.74100  0.75000  0.25000  1.0000
  Cl  Cl3       1.0  0.75900  0.25900  0.25000  1.0000
  Cl  Cl4       1.0  0.24100  0.74100  0.75000  1.0000
  Cl  Cl5       1.0  0.25900  0.25000  0.75000  1.0000
  Cl  Cl6       1.0  0.75000  0.75900  0.75000  1.0000
