data_image0
_chemical_formula_structural       F4Rh6
_chemical_formula_sum              "F4 Rh6"
_cell_length_a       6.85728
_cell_length_b       6.85728
_cell_length_c       5.00808
_cell_angle_alpha    133.206
_cell_angle_beta     46.7941
_cell_angle_gamma    120

_space_group_name_H-M_alt    "P 1"
_space_group_IT_number       1

loop_
  _space_group_symop_operation_xyz
  'x, y, z'

loop_
  _atom_site_type_symbol
  _atom_site_label
  _atom_site_symmetry_multiplicity
  _atom_site_fract_x
  _atom_site_fract_y
  _atom_site_fract_z
  _atom_site_occupancy
  F   F1        1.0  0.62600  0.37400  0.12300  1.0000
  F   F2        1.0  0.87400  0.12600  0.37700  1.0000
  F   F3        1.0  0.12600  0.87400  0.62300  1.0000
  F   F4        1.0  0.37400  0.62600  0.87700  1.0000
  Rh  Rh1       1.0  0.25000  0.08690  0.25000  1.0000
  Rh  Rh2       1.0  0.58700  0.75000  0.25000  1.0000
  Rh  Rh3       1.0  0.91300  0.41300  0.25000  1.0000
  Rh  Rh4       1.0  0.08690  0.58700  0.75000  1.0000
  Rh  Rh5       1.0  0.41300  0.25000  0.75000  1.0000
  Rh  Rh6       1.0  0.75000  0.91300  0.75000  1.0000
