data_image0
_chemical_formula_structural       N4Th6
_chemical_formula_sum              "N4 Th6"
_cell_length_a       6.30519
_cell_length_b       6.30519
_cell_length_c       6.96017
_cell_angle_alpha    116.933
_cell_angle_beta     63.067
_cell_angle_gamma    120

_space_group_name_H-M_alt    "P 1"
_space_group_IT_number       1

loop_
  _space_group_symop_operation_xyz
  'x, y, z'

loop_
  _atom_site_type_symbol
  _atom_site_label
  _atom_site_symmetry_multiplicity
  _atom_site_fract_x
  _atom_site_fract_y
  _atom_site_fract_z
  _atom_site_occupancy
  N   N1        1.0  0.66300  0.33700  0.01090  1.0000
  N   N2        1.0  0.83700  0.16300  0.48900  1.0000
  N   N3        1.0  0.16300  0.83700  0.51100  1.0000
  N   N4        1.0  0.33700  0.66300  0.98900  1.0000
  Th  Th1       1.0  0.57800  0.75000  0.25000  1.0000
  Th  Th2       1.0  0.92200  0.42200  0.25000  1.0000
  Th  Th3       1.0  0.25000  0.07820  0.25000  1.0000
  Th  Th4       1.0  0.75000  0.92200  0.75000  1.0000
  Th  Th5       1.0  0.07820  0.57800  0.75000  1.0000
  Th  Th6       1.0  0.42200  0.25000  0.75000  1.0000
