data_image0
_chemical_formula_structural       F4Mo6
_chemical_formula_sum              "F4 Mo6"
_cell_length_a       5.78395
_cell_length_b       5.78396
_cell_length_c       5.72513
_cell_angle_alpha    120.34
_cell_angle_beta     59.6595
_cell_angle_gamma    120

_space_group_name_H-M_alt    "P 1"
_space_group_IT_number       1

loop_
  _space_group_symop_operation_xyz
  'x, y, z'

loop_
  _atom_site_type_symbol
  _atom_site_label
  _atom_site_symmetry_multiplicity
  _atom_site_fract_x
  _atom_site_fract_y
  _atom_site_fract_z
  _atom_site_occupancy
  F   F1        1.0  0.92200  0.07820  0.23500  1.0000
  F   F2        1.0  0.57800  0.42200  0.26500  1.0000
  F   F3        1.0  0.42200  0.57800  0.73500  1.0000
  F   F4        1.0  0.07820  0.92200  0.76500  1.0000
  Mo  Mo1       1.0  0.98800  0.48800  0.25000  1.0000
  Mo  Mo2       1.0  0.25000  0.01220  0.25000  1.0000
  Mo  Mo3       1.0  0.51200  0.75000  0.25000  1.0000
  Mo  Mo4       1.0  0.48800  0.25000  0.75000  1.0000
  Mo  Mo5       1.0  0.75000  0.98800  0.75000  1.0000
  Mo  Mo6       1.0  0.01220  0.51200  0.75000  1.0000
