data_image0
_chemical_formula_structural       I4Ni6
_chemical_formula_sum              "I4 Ni6"
_cell_length_a       6.24034
_cell_length_b       6.24034
_cell_length_c       6.77017
_cell_angle_alpha    117.443
_cell_angle_beta     62.5567
_cell_angle_gamma    120

_space_group_name_H-M_alt    "P 1"
_space_group_IT_number       1

loop_
  _space_group_symop_operation_xyz
  'x, y, z'

loop_
  _atom_site_type_symbol
  _atom_site_label
  _atom_site_symmetry_multiplicity
  _atom_site_fract_x
  _atom_site_fract_y
  _atom_site_fract_z
  _atom_site_occupancy
  I   I1        1.0  0.61500  0.38500  0.15600  1.0000
  I   I2        1.0  0.88500  0.11500  0.34400  1.0000
  I   I3        1.0  0.11500  0.88500  0.65600  1.0000
  I   I4        1.0  0.38500  0.61500  0.84400  1.0000
  Ni  Ni1       1.0  0.25000  0.97100  0.25000  1.0000
  Ni  Ni2       1.0  0.47100  0.75000  0.25000  1.0000
  Ni  Ni3       1.0  0.02950  0.52900  0.25000  1.0000
  Ni  Ni4       1.0  0.97100  0.47100  0.75000  1.0000
  Ni  Ni5       1.0  0.52900  0.25000  0.75000  1.0000
  Ni  Ni6       1.0  0.75000  0.02950  0.75000  1.0000
