data_image0
_chemical_formula_structural       Be4Br6
_chemical_formula_sum              "Be4 Br6"
_cell_length_a       6.37151
_cell_length_b       6.37151
_cell_length_c       8.06731
_cell_angle_alpha    113.26
_cell_angle_beta     66.7404
_cell_angle_gamma    120

_space_group_name_H-M_alt    "P 1"
_space_group_IT_number       1

loop_
  _space_group_symop_operation_xyz
  'x, y, z'

loop_
  _atom_site_type_symbol
  _atom_site_label
  _atom_site_symmetry_multiplicity
  _atom_site_fract_x
  _atom_site_fract_y
  _atom_site_fract_z
  _atom_site_occupancy
  Be  Be1       1.0  0.94500  0.05490  0.16500  1.0000
  Be  Be2       1.0  0.55500  0.44500  0.33500  1.0000
  Be  Be3       1.0  0.44500  0.55500  0.66500  1.0000
  Be  Be4       1.0  0.05490  0.94500  0.83500  1.0000
  Br  Br1       1.0  0.25000  0.09250  0.25000  1.0000
  Br  Br2       1.0  0.59200  0.75000  0.25000  1.0000
  Br  Br3       1.0  0.90800  0.40800  0.25000  1.0000
  Br  Br4       1.0  0.09250  0.59200  0.75000  1.0000
  Br  Br5       1.0  0.40800  0.25000  0.75000  1.0000
  Br  Br6       1.0  0.75000  0.90800  0.75000  1.0000
