data_image0
_chemical_formula_structural       Cl4Yb6
_chemical_formula_sum              "Cl4 Yb6"
_cell_length_a       6.84034
_cell_length_b       6.84034
_cell_length_c       7.79749
_cell_angle_alpha    116.016
_cell_angle_beta     63.9839
_cell_angle_gamma    120

_space_group_name_H-M_alt    "P 1"
_space_group_IT_number       1

loop_
  _space_group_symop_operation_xyz
  'x, y, z'

loop_
  _atom_site_type_symbol
  _atom_site_label
  _atom_site_symmetry_multiplicity
  _atom_site_fract_x
  _atom_site_fract_y
  _atom_site_fract_z
  _atom_site_occupancy
  Cl  Cl1       1.0  0.33000  0.67000  0.00929  1.0000
  Cl  Cl2       1.0  0.17000  0.83000  0.49100  1.0000
  Cl  Cl3       1.0  0.83000  0.17000  0.50900  1.0000
  Cl  Cl4       1.0  0.67000  0.33000  0.99100  1.0000
  Yb  Yb1       1.0  0.59400  0.75000  0.25000  1.0000
  Yb  Yb2       1.0  0.90600  0.40600  0.25000  1.0000
  Yb  Yb3       1.0  0.25000  0.09440  0.25000  1.0000
  Yb  Yb4       1.0  0.75000  0.90600  0.75000  1.0000
  Yb  Yb5       1.0  0.09440  0.59400  0.75000  1.0000
  Yb  Yb6       1.0  0.40600  0.25000  0.75000  1.0000
