data_image0
_chemical_formula_structural       I4Y6
_chemical_formula_sum              "I4 Y6"
_cell_length_a       6.55905
_cell_length_b       6.55905
_cell_length_c       9.61868
_cell_angle_alpha    109.935
_cell_angle_beta     70.065
_cell_angle_gamma    120

_space_group_name_H-M_alt    "P 1"
_space_group_IT_number       1

loop_
  _space_group_symop_operation_xyz
  'x, y, z'

loop_
  _atom_site_type_symbol
  _atom_site_label
  _atom_site_symmetry_multiplicity
  _atom_site_fract_x
  _atom_site_fract_y
  _atom_site_fract_z
  _atom_site_occupancy
  I   I1        1.0  0.33000  0.67000  0.01120  1.0000
  I   I2        1.0  0.17000  0.83000  0.48900  1.0000
  I   I3        1.0  0.83000  0.17000  0.51100  1.0000
  I   I4        1.0  0.67000  0.33000  0.98900  1.0000
  Y   Y1        1.0  0.89700  0.39700  0.25000  1.0000
  Y   Y2        1.0  0.25000  0.10300  0.25000  1.0000
  Y   Y3        1.0  0.60300  0.75000  0.25000  1.0000
  Y   Y4        1.0  0.39700  0.25000  0.75000  1.0000
  Y   Y5        1.0  0.75000  0.89700  0.75000  1.0000
  Y   Y6        1.0  0.10300  0.60300  0.75000  1.0000
