data_image0
_chemical_formula_structural       F4Nb6
_chemical_formula_sum              "F4 Nb6"
_cell_length_a       5.92544
_cell_length_b       5.92544
_cell_length_c       6.05596
_cell_angle_alpha    119.29
_cell_angle_beta     60.7104
_cell_angle_gamma    120

_space_group_name_H-M_alt    "P 1"
_space_group_IT_number       1

loop_
  _space_group_symop_operation_xyz
  'x, y, z'

loop_
  _atom_site_type_symbol
  _atom_site_label
  _atom_site_symmetry_multiplicity
  _atom_site_fract_x
  _atom_site_fract_y
  _atom_site_fract_z
  _atom_site_occupancy
  F   F1        1.0  0.92200  0.07760  0.23300  1.0000
  F   F2        1.0  0.57800  0.42200  0.26700  1.0000
  F   F3        1.0  0.42200  0.57800  0.73300  1.0000
  F   F4        1.0  0.07760  0.92200  0.76700  1.0000
  Nb  Nb1       1.0  0.52300  0.75000  0.25000  1.0000
  Nb  Nb2       1.0  0.97700  0.47700  0.25000  1.0000
  Nb  Nb3       1.0  0.25000  0.02340  0.25000  1.0000
  Nb  Nb4       1.0  0.75000  0.97700  0.75000  1.0000
  Nb  Nb5       1.0  0.02340  0.52300  0.75000  1.0000
  Nb  Nb6       1.0  0.47700  0.25000  0.75000  1.0000
