data_image0
_chemical_formula_structural       F4Sc6
_chemical_formula_sum              "F4 Sc6"
_cell_length_a       5.82594
_cell_length_b       5.82594
_cell_length_c       6.14156
_cell_angle_alpha    118.314
_cell_angle_beta     61.6859
_cell_angle_gamma    120

_space_group_name_H-M_alt    "P 1"
_space_group_IT_number       1

loop_
  _space_group_symop_operation_xyz
  'x, y, z'

loop_
  _atom_site_type_symbol
  _atom_site_label
  _atom_site_symmetry_multiplicity
  _atom_site_fract_x
  _atom_site_fract_y
  _atom_site_fract_z
  _atom_site_occupancy
  F   F1        1.0  0.33300  0.66700  0.00189  1.0000
  F   F2        1.0  0.16700  0.83300  0.49800  1.0000
  F   F3        1.0  0.83300  0.16700  0.50200  1.0000
  F   F4        1.0  0.66700  0.33300  0.99800  1.0000
  Sc  Sc1       1.0  0.58800  0.75000  0.25000  1.0000
  Sc  Sc2       1.0  0.91200  0.41200  0.25000  1.0000
  Sc  Sc3       1.0  0.25000  0.08830  0.25000  1.0000
  Sc  Sc4       1.0  0.75000  0.91200  0.75000  1.0000
  Sc  Sc5       1.0  0.08830  0.58800  0.75000  1.0000
  Sc  Sc6       1.0  0.41200  0.25000  0.75000  1.0000
