data_image0
_chemical_formula_structural       N4Ru6
_chemical_formula_sum              "N4 Ru6"
_cell_length_a       5.13646
_cell_length_b       5.13647
_cell_length_c       5.7064
_cell_angle_alpha    116.748
_cell_angle_beta     63.2523
_cell_angle_gamma    120

_space_group_name_H-M_alt    "P 1"
_space_group_IT_number       1

loop_
  _space_group_symop_operation_xyz
  'x, y, z'

loop_
  _atom_site_type_symbol
  _atom_site_label
  _atom_site_symmetry_multiplicity
  _atom_site_fract_x
  _atom_site_fract_y
  _atom_site_fract_z
  _atom_site_occupancy
  N   N1        1.0  0.65500  0.34500  0.03400  1.0000
  N   N2        1.0  0.84500  0.15500  0.46600  1.0000
  N   N3        1.0  0.15500  0.84500  0.53400  1.0000
  N   N4        1.0  0.34500  0.65500  0.96600  1.0000
  Ru  Ru1       1.0  0.92200  0.42200  0.25000  1.0000
  Ru  Ru2       1.0  0.25000  0.07810  0.25000  1.0000
  Ru  Ru3       1.0  0.57800  0.75000  0.25000  1.0000
  Ru  Ru4       1.0  0.42200  0.25000  0.75000  1.0000
  Ru  Ru5       1.0  0.75000  0.92200  0.75000  1.0000
  Ru  Ru6       1.0  0.07810  0.57800  0.75000  1.0000
