data_image0
_chemical_formula_structural       Br4Cd6
_chemical_formula_sum              "Br4 Cd6"
_cell_length_a       7.83688
_cell_length_b       7.83688
_cell_length_c       7.79886
_cell_angle_alpha    120.161
_cell_angle_beta     59.8386
_cell_angle_gamma    120

_space_group_name_H-M_alt    "P 1"
_space_group_IT_number       1

loop_
  _space_group_symop_operation_xyz
  'x, y, z'

loop_
  _atom_site_type_symbol
  _atom_site_label
  _atom_site_symmetry_multiplicity
  _atom_site_fract_x
  _atom_site_fract_y
  _atom_site_fract_z
  _atom_site_occupancy
  Br  Br1       1.0  0.64600  0.35400  0.06190  1.0000
  Br  Br2       1.0  0.85400  0.14600  0.43800  1.0000
  Br  Br3       1.0  0.14600  0.85400  0.56200  1.0000
  Br  Br4       1.0  0.35400  0.64600  0.93800  1.0000
  Cd  Cd1       1.0  0.55800  0.75000  0.25000  1.0000
  Cd  Cd2       1.0  0.94200  0.44200  0.25000  1.0000
  Cd  Cd3       1.0  0.25000  0.05800  0.25000  1.0000
  Cd  Cd4       1.0  0.75000  0.94200  0.75000  1.0000
  Cd  Cd5       1.0  0.05800  0.55800  0.75000  1.0000
  Cd  Cd6       1.0  0.44200  0.25000  0.75000  1.0000
