data_image0
_chemical_formula_structural       S4Zr6
_chemical_formula_sum              "S4 Zr6"
_cell_length_a       6.21113
_cell_length_b       6.21113
_cell_length_c       6.96154
_cell_angle_alpha    116.494
_cell_angle_beta     63.506
_cell_angle_gamma    120

_space_group_name_H-M_alt    "P 1"
_space_group_IT_number       1

loop_
  _space_group_symop_operation_xyz
  'x, y, z'

loop_
  _atom_site_type_symbol
  _atom_site_label
  _atom_site_symmetry_multiplicity
  _atom_site_fract_x
  _atom_site_fract_y
  _atom_site_fract_z
  _atom_site_occupancy
  S   S1        1.0  0.66000  0.34000  0.01980  1.0000
  S   S2        1.0  0.84000  0.16000  0.48000  1.0000
  S   S3        1.0  0.16000  0.84000  0.52000  1.0000
  S   S4        1.0  0.34000  0.66000  0.98000  1.0000
  Zr  Zr1       1.0  0.25000  0.07430  0.25000  1.0000
  Zr  Zr2       1.0  0.92600  0.42600  0.25000  1.0000
  Zr  Zr3       1.0  0.57400  0.75000  0.25000  1.0000
  Zr  Zr4       1.0  0.42600  0.25000  0.75000  1.0000
  Zr  Zr5       1.0  0.07430  0.57400  0.75000  1.0000
  Zr  Zr6       1.0  0.75000  0.92600  0.75000  1.0000
