data_image0
_chemical_formula_structural       S4Tl6
_chemical_formula_sum              "S4 Tl6"
_cell_length_a       7.72509
_cell_length_b       7.72509
_cell_length_c       7.7082
_cell_angle_alpha    120.073
_cell_angle_beta     59.9275
_cell_angle_gamma    120

_space_group_name_H-M_alt    "P 1"
_space_group_IT_number       1

loop_
  _space_group_symop_operation_xyz
  'x, y, z'

loop_
  _atom_site_type_symbol
  _atom_site_label
  _atom_site_symmetry_multiplicity
  _atom_site_fract_x
  _atom_site_fract_y
  _atom_site_fract_z
  _atom_site_occupancy
  S   S1        1.0  0.63500  0.36500  0.09480  1.0000
  S   S2        1.0  0.86500  0.13500  0.40500  1.0000
  S   S3        1.0  0.13500  0.86500  0.59500  1.0000
  S   S4        1.0  0.36500  0.63500  0.90500  1.0000
  Tl  Tl1       1.0  0.25000  0.03450  0.25000  1.0000
  Tl  Tl2       1.0  0.53400  0.75000  0.25000  1.0000
  Tl  Tl3       1.0  0.96600  0.46600  0.25000  1.0000
  Tl  Tl4       1.0  0.03450  0.53400  0.75000  1.0000
  Tl  Tl5       1.0  0.46600  0.25000  0.75000  1.0000
  Tl  Tl6       1.0  0.75000  0.96600  0.75000  1.0000
