data_image0
_chemical_formula_structural       N4Ta6
_chemical_formula_sum              "N4 Ta6"
_cell_length_a       5.25059
_cell_length_b       5.25059
_cell_length_c       6.01322
_cell_angle_alpha    115.886
_cell_angle_beta     64.1137
_cell_angle_gamma    120

_space_group_name_H-M_alt    "P 1"
_space_group_IT_number       1

loop_
  _space_group_symop_operation_xyz
  'x, y, z'

loop_
  _atom_site_type_symbol
  _atom_site_label
  _atom_site_symmetry_multiplicity
  _atom_site_fract_x
  _atom_site_fract_y
  _atom_site_fract_z
  _atom_site_occupancy
  N   N1        1.0  0.66200  0.33800  0.01540  1.0000
  N   N2        1.0  0.83800  0.16200  0.48500  1.0000
  N   N3        1.0  0.16200  0.83800  0.51500  1.0000
  N   N4        1.0  0.33800  0.66200  0.98500  1.0000
  Ta  Ta1       1.0  0.25000  0.07880  0.25000  1.0000
  Ta  Ta2       1.0  0.92100  0.42100  0.25000  1.0000
  Ta  Ta3       1.0  0.57900  0.75000  0.25000  1.0000
  Ta  Ta4       1.0  0.42100  0.25000  0.75000  1.0000
  Ta  Ta5       1.0  0.07880  0.57900  0.75000  1.0000
  Ta  Ta6       1.0  0.75000  0.92100  0.75000  1.0000
