data_image0
_chemical_formula_structural       O4Pd6
_chemical_formula_sum              "O4 Pd6"
_cell_length_a       6.05503
_cell_length_b       6.05503
_cell_length_c       5.60886
_cell_angle_alpha    122.668
_cell_angle_beta     57.3318
_cell_angle_gamma    120

_space_group_name_H-M_alt    "P 1"
_space_group_IT_number       1

loop_
  _space_group_symop_operation_xyz
  'x, y, z'

loop_
  _atom_site_type_symbol
  _atom_site_label
  _atom_site_symmetry_multiplicity
  _atom_site_fract_x
  _atom_site_fract_y
  _atom_site_fract_z
  _atom_site_occupancy
  O   O1        1.0  0.65200  0.34800  0.04440  1.0000
  O   O2        1.0  0.84800  0.15200  0.45600  1.0000
  O   O3        1.0  0.15200  0.84800  0.54400  1.0000
  O   O4        1.0  0.34800  0.65200  0.95600  1.0000
  Pd  Pd1       1.0  0.75000  0.75000  0.25000  1.0000
  Pd  Pd2       1.0  0.75000  0.25000  0.25000  1.0000
  Pd  Pd3       1.0  0.25000  0.25000  0.25000  1.0000
  Pd  Pd4       1.0  0.75000  0.75000  0.75000  1.0000
  Pd  Pd5       1.0  0.25000  0.75000  0.75000  1.0000
  Pd  Pd6       1.0  0.25000  0.25000  0.75000  1.0000
