data_image0
_chemical_formula_structural       Os4S6
_chemical_formula_sum              "Os4 S6"
_cell_length_a       5.85072
_cell_length_b       5.85072
_cell_length_c       6.49896
_cell_angle_alpha    116.752
_cell_angle_beta     63.2482
_cell_angle_gamma    120

_space_group_name_H-M_alt    "P 1"
_space_group_IT_number       1

loop_
  _space_group_symop_operation_xyz
  'x, y, z'

loop_
  _atom_site_type_symbol
  _atom_site_label
  _atom_site_symmetry_multiplicity
  _atom_site_fract_x
  _atom_site_fract_y
  _atom_site_fract_z
  _atom_site_occupancy
  Os  Os1       1.0  0.64600  0.35400  0.06210  1.0000
  Os  Os2       1.0  0.85400  0.14600  0.43800  1.0000
  Os  Os3       1.0  0.14600  0.85400  0.56200  1.0000
  Os  Os4       1.0  0.35400  0.64600  0.93800  1.0000
  S   S1        1.0  0.25000  0.05530  0.25000  1.0000
  S   S2        1.0  0.94500  0.44500  0.25000  1.0000
  S   S3        1.0  0.55500  0.75000  0.25000  1.0000
  S   S4        1.0  0.44500  0.25000  0.75000  1.0000
  S   S5        1.0  0.05530  0.55500  0.75000  1.0000
  S   S6        1.0  0.75000  0.94500  0.75000  1.0000
