data_image0
_chemical_formula_structural       N4Pd6
_chemical_formula_sum              "N4 Pd6"
_cell_length_a       6.26009
_cell_length_b       6.26009
_cell_length_c       5.20627
_cell_angle_alpha    126.956
_cell_angle_beta     53.0436
_cell_angle_gamma    120

_space_group_name_H-M_alt    "P 1"
_space_group_IT_number       1

loop_
  _space_group_symop_operation_xyz
  'x, y, z'

loop_
  _atom_site_type_symbol
  _atom_site_label
  _atom_site_symmetry_multiplicity
  _atom_site_fract_x
  _atom_site_fract_y
  _atom_site_fract_z
  _atom_site_occupancy
  N   N1        1.0  0.30700  0.69300  0.08050  1.0000
  N   N2        1.0  0.19300  0.80700  0.42000  1.0000
  N   N3        1.0  0.80700  0.19300  0.58000  1.0000
  N   N4        1.0  0.69300  0.30700  0.92000  1.0000
  Pd  Pd1       1.0  0.74800  0.75000  0.25000  1.0000
  Pd  Pd2       1.0  0.75200  0.25200  0.25000  1.0000
  Pd  Pd3       1.0  0.25000  0.24800  0.25000  1.0000
  Pd  Pd4       1.0  0.75000  0.75200  0.75000  1.0000
  Pd  Pd5       1.0  0.24800  0.74800  0.75000  1.0000
  Pd  Pd6       1.0  0.25200  0.25000  0.75000  1.0000
