data_image0
_chemical_formula_structural       Cl4Ru6
_chemical_formula_sum              "Cl4 Ru6"
_cell_length_a       6.39713
_cell_length_b       6.39713
_cell_length_c       5.66422
_cell_angle_alpha    124.381
_cell_angle_beta     55.6188
_cell_angle_gamma    120

_space_group_name_H-M_alt    "P 1"
_space_group_IT_number       1

loop_
  _space_group_symop_operation_xyz
  'x, y, z'

loop_
  _atom_site_type_symbol
  _atom_site_label
  _atom_site_symmetry_multiplicity
  _atom_site_fract_x
  _atom_site_fract_y
  _atom_site_fract_z
  _atom_site_occupancy
  Cl  Cl1       1.0  0.61500  0.38500  0.15600  1.0000
  Cl  Cl2       1.0  0.88500  0.11500  0.34400  1.0000
  Cl  Cl3       1.0  0.11500  0.88500  0.65600  1.0000
  Cl  Cl4       1.0  0.38500  0.61500  0.84400  1.0000
  Ru  Ru1       1.0  0.99300  0.49300  0.25000  1.0000
  Ru  Ru2       1.0  0.50700  0.75000  0.25000  1.0000
  Ru  Ru3       1.0  0.25000  0.00719  0.25000  1.0000
  Ru  Ru4       1.0  0.75000  0.99300  0.75000  1.0000
  Ru  Ru5       1.0  0.49300  0.25000  0.75000  1.0000
  Ru  Ru6       1.0  0.00719  0.50700  0.75000  1.0000
