data_image0
_chemical_formula_structural       O4Sb6
_chemical_formula_sum              "O4 Sb6"
_cell_length_a       7.36879
_cell_length_b       7.36879
_cell_length_c       6.06256
_cell_angle_alpha    127.426
_cell_angle_beta     52.5745
_cell_angle_gamma    120

_space_group_name_H-M_alt    "P 1"
_space_group_IT_number       1

loop_
  _space_group_symop_operation_xyz
  'x, y, z'

loop_
  _atom_site_type_symbol
  _atom_site_label
  _atom_site_symmetry_multiplicity
  _atom_site_fract_x
  _atom_site_fract_y
  _atom_site_fract_z
  _atom_site_occupancy
  O   O1        1.0  0.62500  0.37500  0.12600  1.0000
  O   O2        1.0  0.87500  0.12500  0.37400  1.0000
  O   O3        1.0  0.12500  0.87500  0.62600  1.0000
  O   O4        1.0  0.37500  0.62500  0.87400  1.0000
  Sb  Sb1       1.0  0.74700  0.75000  0.25000  1.0000
  Sb  Sb2       1.0  0.25000  0.24700  0.25000  1.0000
  Sb  Sb3       1.0  0.75300  0.25300  0.25000  1.0000
  Sb  Sb4       1.0  0.24700  0.74700  0.75000  1.0000
  Sb  Sb5       1.0  0.75000  0.75300  0.75000  1.0000
  Sb  Sb6       1.0  0.25300  0.25000  0.75000  1.0000
