data_image0
_chemical_formula_structural       Mo4S6
_chemical_formula_sum              "Mo4 S6"
_cell_length_a       5.61595
_cell_length_b       5.61595
_cell_length_c       6.91083
_cell_angle_alpha    113.974
_cell_angle_beta     66.0264
_cell_angle_gamma    120

_space_group_name_H-M_alt    "P 1"
_space_group_IT_number       1

loop_
  _space_group_symop_operation_xyz
  'x, y, z'

loop_
  _atom_site_type_symbol
  _atom_site_label
  _atom_site_symmetry_multiplicity
  _atom_site_fract_x
  _atom_site_fract_y
  _atom_site_fract_z
  _atom_site_occupancy
  Mo  Mo1       1.0  0.33300  0.66700  0.00117  1.0000
  Mo  Mo2       1.0  0.16700  0.83300  0.49900  1.0000
  Mo  Mo3       1.0  0.83300  0.16700  0.50100  1.0000
  Mo  Mo4       1.0  0.66700  0.33300  0.99900  1.0000
  S   S1        1.0  0.25000  0.09260  0.25000  1.0000
  S   S2        1.0  0.90700  0.40700  0.25000  1.0000
  S   S3        1.0  0.59300  0.75000  0.25000  1.0000
  S   S4        1.0  0.40700  0.25000  0.75000  1.0000
  S   S5        1.0  0.09260  0.59300  0.75000  1.0000
  S   S6        1.0  0.75000  0.90700  0.75000  1.0000
