data_image0
_chemical_formula_structural       N4Tb6
_chemical_formula_sum              "N4 Tb6"
_cell_length_a       5.99136
_cell_length_b       5.99136
_cell_length_c       6.73254
_cell_angle_alpha    116.42
_cell_angle_beta     63.5795
_cell_angle_gamma    120

_space_group_name_H-M_alt    "P 1"
_space_group_IT_number       1

loop_
  _space_group_symop_operation_xyz
  'x, y, z'

loop_
  _atom_site_type_symbol
  _atom_site_label
  _atom_site_symmetry_multiplicity
  _atom_site_fract_x
  _atom_site_fract_y
  _atom_site_fract_z
  _atom_site_occupancy
  N   N1        1.0  0.66200  0.33800  0.01370  1.0000
  N   N2        1.0  0.83800  0.16200  0.48600  1.0000
  N   N3        1.0  0.16200  0.83800  0.51400  1.0000
  N   N4        1.0  0.33800  0.66200  0.98600  1.0000
  Tb  Tb1       1.0  0.25000  0.07390  0.25000  1.0000
  Tb  Tb2       1.0  0.57400  0.75000  0.25000  1.0000
  Tb  Tb3       1.0  0.92600  0.42600  0.25000  1.0000
  Tb  Tb4       1.0  0.07390  0.57400  0.75000  1.0000
  Tb  Tb5       1.0  0.42600  0.25000  0.75000  1.0000
  Tb  Tb6       1.0  0.75000  0.92600  0.75000  1.0000
