data_image0
_chemical_formula_structural       Ag4F6
_chemical_formula_sum              "Ag4 F6"
_cell_length_a       5.74301
_cell_length_b       5.74301
_cell_length_c       6.22561
_cell_angle_alpha    117.467
_cell_angle_beta     62.5328
_cell_angle_gamma    120

_space_group_name_H-M_alt    "P 1"
_space_group_IT_number       1

loop_
  _space_group_symop_operation_xyz
  'x, y, z'

loop_
  _atom_site_type_symbol
  _atom_site_label
  _atom_site_symmetry_multiplicity
  _atom_site_fract_x
  _atom_site_fract_y
  _atom_site_fract_z
  _atom_site_occupancy
  Ag  Ag1       1.0  0.65200  0.34800  0.04330  1.0000
  Ag  Ag2       1.0  0.84800  0.15200  0.45700  1.0000
  Ag  Ag3       1.0  0.15200  0.84800  0.54300  1.0000
  Ag  Ag4       1.0  0.34800  0.65200  0.95700  1.0000
  F   F1        1.0  0.94100  0.44100  0.25000  1.0000
  F   F2        1.0  0.25000  0.05940  0.25000  1.0000
  F   F3        1.0  0.55900  0.75000  0.25000  1.0000
  F   F4        1.0  0.44100  0.25000  0.75000  1.0000
  F   F5        1.0  0.75000  0.94100  0.75000  1.0000
  F   F6        1.0  0.05940  0.55900  0.75000  1.0000
