data_image0
_chemical_formula_structural       N4Pr6
_chemical_formula_sum              "N4 Pr6"
_cell_length_a       6.29033
_cell_length_b       6.29033
_cell_length_c       7.05023
_cell_angle_alpha    116.494
_cell_angle_beta     63.5058
_cell_angle_gamma    120

_space_group_name_H-M_alt    "P 1"
_space_group_IT_number       1

loop_
  _space_group_symop_operation_xyz
  'x, y, z'

loop_
  _atom_site_type_symbol
  _atom_site_label
  _atom_site_symmetry_multiplicity
  _atom_site_fract_x
  _atom_site_fract_y
  _atom_site_fract_z
  _atom_site_occupancy
  N   N1        1.0  0.66200  0.33800  0.01390  1.0000
  N   N2        1.0  0.83800  0.16200  0.48600  1.0000
  N   N3        1.0  0.16200  0.83800  0.51400  1.0000
  N   N4        1.0  0.33800  0.66200  0.98600  1.0000
  Pr  Pr1       1.0  0.92700  0.42700  0.25000  1.0000
  Pr  Pr2       1.0  0.57300  0.75000  0.25000  1.0000
  Pr  Pr3       1.0  0.25000  0.07270  0.25000  1.0000
  Pr  Pr4       1.0  0.75000  0.92700  0.75000  1.0000
  Pr  Pr5       1.0  0.42700  0.25000  0.75000  1.0000
  Pr  Pr6       1.0  0.07270  0.57300  0.75000  1.0000
