data_image0
_chemical_formula_structural       Cl4Li6
_chemical_formula_sum              "Cl4 Li6"
_cell_length_a       6.13223
_cell_length_b       6.13223
_cell_length_c       7.0008
_cell_angle_alpha    115.974
_cell_angle_beta     64.0258
_cell_angle_gamma    120

_space_group_name_H-M_alt    "P 1"
_space_group_IT_number       1

loop_
  _space_group_symop_operation_xyz
  'x, y, z'

loop_
  _atom_site_type_symbol
  _atom_site_label
  _atom_site_symmetry_multiplicity
  _atom_site_fract_x
  _atom_site_fract_y
  _atom_site_fract_z
  _atom_site_occupancy
  Cl  Cl1       1.0  0.65800  0.34200  0.02730  1.0000
  Cl  Cl2       1.0  0.84200  0.15800  0.47300  1.0000
  Cl  Cl3       1.0  0.15800  0.84200  0.52700  1.0000
  Cl  Cl4       1.0  0.34200  0.65800  0.97300  1.0000
  Li  Li1       1.0  0.25000  0.06990  0.25000  1.0000
  Li  Li2       1.0  0.57000  0.75000  0.25000  1.0000
  Li  Li3       1.0  0.93000  0.43000  0.25000  1.0000
  Li  Li4       1.0  0.06990  0.57000  0.75000  1.0000
  Li  Li5       1.0  0.43000  0.25000  0.75000  1.0000
  Li  Li6       1.0  0.75000  0.93000  0.75000  1.0000
