data_image0
_chemical_formula_structural       Na4S6
_chemical_formula_sum              "Na4 S6"
_cell_length_a       7.57983
_cell_length_b       7.57983
_cell_length_c       5.97691
_cell_angle_alpha    129.353
_cell_angle_beta     50.6473
_cell_angle_gamma    120

_space_group_name_H-M_alt    "P 1"
_space_group_IT_number       1

loop_
  _space_group_symop_operation_xyz
  'x, y, z'

loop_
  _atom_site_type_symbol
  _atom_site_label
  _atom_site_symmetry_multiplicity
  _atom_site_fract_x
  _atom_site_fract_y
  _atom_site_fract_z
  _atom_site_occupancy
  Na  Na1       1.0  0.61500  0.38500  0.15500  1.0000
  Na  Na2       1.0  0.88500  0.11500  0.34500  1.0000
  Na  Na3       1.0  0.11500  0.88500  0.65500  1.0000
  Na  Na4       1.0  0.38500  0.61500  0.84500  1.0000
  S   S1        1.0  0.54100  0.75000  0.25000  1.0000
  S   S2        1.0  0.95900  0.45900  0.25000  1.0000
  S   S3        1.0  0.25000  0.04050  0.25000  1.0000
  S   S4        1.0  0.75000  0.95900  0.75000  1.0000
  S   S5        1.0  0.04050  0.54100  0.75000  1.0000
  S   S6        1.0  0.45900  0.25000  0.75000  1.0000
