data_image0
_chemical_formula_structural       Br4I6
_chemical_formula_sum              "Br4 I6"
_cell_length_a       9.74619
_cell_length_b       9.74619
_cell_length_c       8.6781
_cell_angle_alpha    124.162
_cell_angle_beta     55.8377
_cell_angle_gamma    120

_space_group_name_H-M_alt    "P 1"
_space_group_IT_number       1

loop_
  _space_group_symop_operation_xyz
  'x, y, z'

loop_
  _atom_site_type_symbol
  _atom_site_label
  _atom_site_symmetry_multiplicity
  _atom_site_fract_x
  _atom_site_fract_y
  _atom_site_fract_z
  _atom_site_occupancy
  Br  Br1       1.0  0.59900  0.40100  0.20200  1.0000
  Br  Br2       1.0  0.90100  0.09930  0.29800  1.0000
  Br  Br3       1.0  0.09930  0.90100  0.70200  1.0000
  Br  Br4       1.0  0.40100  0.59900  0.79800  1.0000
  I   I1        1.0  0.74900  0.24900  0.25000  1.0000
  I   I2        1.0  0.25000  0.25100  0.25000  1.0000
  I   I3        1.0  0.75100  0.75000  0.25000  1.0000
  I   I4        1.0  0.24900  0.25000  0.75000  1.0000
  I   I5        1.0  0.75000  0.74900  0.75000  1.0000
  I   I6        1.0  0.25100  0.75100  0.75000  1.0000
