data_image0
_chemical_formula_structural       I4Np6
_chemical_formula_sum              "I4 Np6"
_cell_length_a       7.14142
_cell_length_b       7.14142
_cell_length_c       8.95096
_cell_angle_alpha    113.511
_cell_angle_beta     66.4894
_cell_angle_gamma    120

_space_group_name_H-M_alt    "P 1"
_space_group_IT_number       1

loop_
  _space_group_symop_operation_xyz
  'x, y, z'

loop_
  _atom_site_type_symbol
  _atom_site_label
  _atom_site_symmetry_multiplicity
  _atom_site_fract_x
  _atom_site_fract_y
  _atom_site_fract_z
  _atom_site_occupancy
  I   I1        1.0  0.32700  0.67300  0.01770  1.0000
  I   I2        1.0  0.17300  0.82700  0.48200  1.0000
  I   I3        1.0  0.82700  0.17300  0.51800  1.0000
  I   I4        1.0  0.67300  0.32700  0.98200  1.0000
  Np  Np1       1.0  0.25000  0.09100  0.25000  1.0000
  Np  Np2       1.0  0.59100  0.75000  0.25000  1.0000
  Np  Np3       1.0  0.90900  0.40900  0.25000  1.0000
  Np  Np4       1.0  0.09100  0.59100  0.75000  1.0000
  Np  Np5       1.0  0.40900  0.25000  0.75000  1.0000
  Np  Np6       1.0  0.75000  0.90900  0.75000  1.0000
