data_image0
_chemical_formula_structural       Cd4S6
_chemical_formula_sum              "Cd4 S6"
_cell_length_a       6.6777
_cell_length_b       6.67771
_cell_length_c       7.06233
_cell_angle_alpha    118.214
_cell_angle_beta     61.7858
_cell_angle_gamma    120

_space_group_name_H-M_alt    "P 1"
_space_group_IT_number       1

loop_
  _space_group_symop_operation_xyz
  'x, y, z'

loop_
  _atom_site_type_symbol
  _atom_site_label
  _atom_site_symmetry_multiplicity
  _atom_site_fract_x
  _atom_site_fract_y
  _atom_site_fract_z
  _atom_site_occupancy
  Cd  Cd1       1.0  0.64400  0.35600  0.06920  1.0000
  Cd  Cd2       1.0  0.85600  0.14400  0.43100  1.0000
  Cd  Cd3       1.0  0.14400  0.85600  0.56900  1.0000
  Cd  Cd4       1.0  0.35600  0.64400  0.93100  1.0000
  S   S1        1.0  0.25000  0.04370  0.25000  1.0000
  S   S2        1.0  0.95600  0.45600  0.25000  1.0000
  S   S3        1.0  0.54400  0.75000  0.25000  1.0000
  S   S4        1.0  0.45600  0.25000  0.75000  1.0000
  S   S5        1.0  0.04370  0.54400  0.75000  1.0000
  S   S6        1.0  0.75000  0.95600  0.75000  1.0000
