data_image0
_chemical_formula_structural       Ge4N6
_chemical_formula_sum              "Ge4 N6"
_cell_length_a       5.02419
_cell_length_b       5.02419
_cell_length_c       5.37632
_cell_angle_alpha    117.856
_cell_angle_beta     62.144
_cell_angle_gamma    120

_space_group_name_H-M_alt    "P 1"
_space_group_IT_number       1

loop_
  _space_group_symop_operation_xyz
  'x, y, z'

loop_
  _atom_site_type_symbol
  _atom_site_label
  _atom_site_symmetry_multiplicity
  _atom_site_fract_x
  _atom_site_fract_y
  _atom_site_fract_z
  _atom_site_occupancy
  Ge  Ge1       1.0  0.64400  0.35600  0.06900  1.0000
  Ge  Ge2       1.0  0.85600  0.14400  0.43100  1.0000
  Ge  Ge3       1.0  0.14400  0.85600  0.56900  1.0000
  Ge  Ge4       1.0  0.35600  0.64400  0.93100  1.0000
  N   N1        1.0  0.94800  0.44800  0.25000  1.0000
  N   N2        1.0  0.55200  0.75000  0.25000  1.0000
  N   N3        1.0  0.25000  0.05200  0.25000  1.0000
  N   N4        1.0  0.75000  0.94800  0.75000  1.0000
  N   N5        1.0  0.44800  0.25000  0.75000  1.0000
  N   N6        1.0  0.05200  0.55200  0.75000  1.0000
