data_image0
_chemical_formula_structural       Mg4N6
_chemical_formula_sum              "Mg4 N6"
_cell_length_a       5.72149
_cell_length_b       5.72149
_cell_length_c       5.00268
_cell_angle_alpha    124.879
_cell_angle_beta     55.1212
_cell_angle_gamma    120

_space_group_name_H-M_alt    "P 1"
_space_group_IT_number       1

loop_
  _space_group_symop_operation_xyz
  'x, y, z'

loop_
  _atom_site_type_symbol
  _atom_site_label
  _atom_site_symmetry_multiplicity
  _atom_site_fract_x
  _atom_site_fract_y
  _atom_site_fract_z
  _atom_site_occupancy
  Mg  Mg1       1.0  0.63000  0.37000  0.10900  1.0000
  Mg  Mg2       1.0  0.87000  0.13000  0.39100  1.0000
  Mg  Mg3       1.0  0.13000  0.87000  0.60900  1.0000
  Mg  Mg4       1.0  0.37000  0.63000  0.89100  1.0000
  N   N1        1.0  0.55100  0.75000  0.25000  1.0000
  N   N2        1.0  0.94900  0.44900  0.25000  1.0000
  N   N3        1.0  0.25000  0.05070  0.25000  1.0000
  N   N4        1.0  0.75000  0.94900  0.75000  1.0000
  N   N5        1.0  0.05070  0.55100  0.75000  1.0000
  N   N6        1.0  0.44900  0.25000  0.75000  1.0000
