data_image0
_chemical_formula_structural       Cl4Ge6
_chemical_formula_sum              "Cl4 Ge6"
_cell_length_a       8.39502
_cell_length_b       8.39502
_cell_length_c       6.40755
_cell_angle_alpha    130.926
_cell_angle_beta     49.0737
_cell_angle_gamma    120

_space_group_name_H-M_alt    "P 1"
_space_group_IT_number       1

loop_
  _space_group_symop_operation_xyz
  'x, y, z'

loop_
  _atom_site_type_symbol
  _atom_site_label
  _atom_site_symmetry_multiplicity
  _atom_site_fract_x
  _atom_site_fract_y
  _atom_site_fract_z
  _atom_site_occupancy
  Cl  Cl1       1.0  0.63700  0.36300  0.08880  1.0000
  Cl  Cl2       1.0  0.86300  0.13700  0.41100  1.0000
  Cl  Cl3       1.0  0.13700  0.86300  0.58900  1.0000
  Cl  Cl4       1.0  0.36300  0.63700  0.91100  1.0000
  Ge  Ge1       1.0  0.25000  0.23000  0.25000  1.0000
  Ge  Ge2       1.0  0.77000  0.27000  0.25000  1.0000
  Ge  Ge3       1.0  0.73000  0.75000  0.25000  1.0000
  Ge  Ge4       1.0  0.27000  0.25000  0.75000  1.0000
  Ge  Ge5       1.0  0.23000  0.73000  0.75000  1.0000
  Ge  Ge6       1.0  0.75000  0.77000  0.75000  1.0000
