data_image0
_chemical_formula_structural       O4Sc6
_chemical_formula_sum              "O4 Sc6"
_cell_length_a       5.49649
_cell_length_b       5.49649
_cell_length_c       6.07182
_cell_angle_alpha    116.912
_cell_angle_beta     63.0879
_cell_angle_gamma    120

_space_group_name_H-M_alt    "P 1"
_space_group_IT_number       1

loop_
  _space_group_symop_operation_xyz
  'x, y, z'

loop_
  _atom_site_type_symbol
  _atom_site_label
  _atom_site_symmetry_multiplicity
  _atom_site_fract_x
  _atom_site_fract_y
  _atom_site_fract_z
  _atom_site_occupancy
  O   O1        1.0  0.66400  0.33600  0.00811  1.0000
  O   O2        1.0  0.83600  0.16400  0.49200  1.0000
  O   O3        1.0  0.16400  0.83600  0.50800  1.0000
  O   O4        1.0  0.33600  0.66400  0.99200  1.0000
  Sc  Sc1       1.0  0.57600  0.75000  0.25000  1.0000
  Sc  Sc2       1.0  0.92400  0.42400  0.25000  1.0000
  Sc  Sc3       1.0  0.25000  0.07620  0.25000  1.0000
  Sc  Sc4       1.0  0.75000  0.92400  0.75000  1.0000
  Sc  Sc5       1.0  0.07620  0.57600  0.75000  1.0000
  Sc  Sc6       1.0  0.42400  0.25000  0.75000  1.0000
