data_image0
_chemical_formula_structural       Cl4Sn6
_chemical_formula_sum              "Cl4 Sn6"
_cell_length_a       9.08704
_cell_length_b       9.08704
_cell_length_c       6.84151
_cell_angle_alpha    131.614
_cell_angle_beta     48.3858
_cell_angle_gamma    120

_space_group_name_H-M_alt    "P 1"
_space_group_IT_number       1

loop_
  _space_group_symop_operation_xyz
  'x, y, z'

loop_
  _atom_site_type_symbol
  _atom_site_label
  _atom_site_symmetry_multiplicity
  _atom_site_fract_x
  _atom_site_fract_y
  _atom_site_fract_z
  _atom_site_occupancy
  Cl  Cl1       1.0  0.63600  0.36400  0.09170  1.0000
  Cl  Cl2       1.0  0.86400  0.13600  0.40800  1.0000
  Cl  Cl3       1.0  0.13600  0.86400  0.59200  1.0000
  Cl  Cl4       1.0  0.36400  0.63600  0.90800  1.0000
  Sn  Sn1       1.0  0.75400  0.25400  0.25000  1.0000
  Sn  Sn2       1.0  0.74600  0.75000  0.25000  1.0000
  Sn  Sn3       1.0  0.25000  0.24600  0.25000  1.0000
  Sn  Sn4       1.0  0.75000  0.75400  0.75000  1.0000
  Sn  Sn5       1.0  0.25400  0.25000  0.75000  1.0000
  Sn  Sn6       1.0  0.24600  0.74600  0.75000  1.0000
