data_image0
_chemical_formula_structural       N4Se6
_chemical_formula_sum              "N4 Se6"
_cell_length_a       5.59513
_cell_length_b       5.59513
_cell_length_c       7.45028
_cell_angle_alpha    112.055
_cell_angle_beta     67.9449
_cell_angle_gamma    120

_space_group_name_H-M_alt    "P 1"
_space_group_IT_number       1

loop_
  _space_group_symop_operation_xyz
  'x, y, z'

loop_
  _atom_site_type_symbol
  _atom_site_label
  _atom_site_symmetry_multiplicity
  _atom_site_fract_x
  _atom_site_fract_y
  _atom_site_fract_z
  _atom_site_occupancy
  N   N1        1.0  0.58600  0.41400  0.24200  1.0000
  N   N2        1.0  0.91400  0.08610  0.25800  1.0000
  N   N3        1.0  0.08610  0.91400  0.74200  1.0000
  N   N4        1.0  0.41400  0.58600  0.75800  1.0000
  Se  Se1       1.0  0.25000  0.04550  0.25000  1.0000
  Se  Se2       1.0  0.95400  0.45400  0.25000  1.0000
  Se  Se3       1.0  0.54600  0.75000  0.25000  1.0000
  Se  Se4       1.0  0.45400  0.25000  0.75000  1.0000
  Se  Se5       1.0  0.04550  0.54600  0.75000  1.0000
  Se  Se6       1.0  0.75000  0.95400  0.75000  1.0000
