data_image0
_chemical_formula_structural       Hg4S6
_chemical_formula_sum              "Hg4 S6"
_cell_length_a       6.71806
_cell_length_b       6.71806
_cell_length_c       7.13834
_cell_angle_alpha    118.071
_cell_angle_beta     61.9292
_cell_angle_gamma    120

_space_group_name_H-M_alt    "P 1"
_space_group_IT_number       1

loop_
  _space_group_symop_operation_xyz
  'x, y, z'

loop_
  _atom_site_type_symbol
  _atom_site_label
  _atom_site_symmetry_multiplicity
  _atom_site_fract_x
  _atom_site_fract_y
  _atom_site_fract_z
  _atom_site_occupancy
  Hg  Hg1       1.0  0.64300  0.35700  0.07070  1.0000
  Hg  Hg2       1.0  0.85700  0.14300  0.42900  1.0000
  Hg  Hg3       1.0  0.14300  0.85700  0.57100  1.0000
  Hg  Hg4       1.0  0.35700  0.64300  0.92900  1.0000
  S   S1        1.0  0.25000  0.04310  0.25000  1.0000
  S   S2        1.0  0.95700  0.45700  0.25000  1.0000
  S   S3        1.0  0.54300  0.75000  0.25000  1.0000
  S   S4        1.0  0.45700  0.25000  0.75000  1.0000
  S   S5        1.0  0.04310  0.54300  0.75000  1.0000
  S   S6        1.0  0.75000  0.95700  0.75000  1.0000
