data_image0
_chemical_formula_structural       N4Zn6
_chemical_formula_sum              "N4 Zn6"
_cell_length_a       5.30509
_cell_length_b       5.30509
_cell_length_c       5.63527
_cell_angle_alpha    118.08
_cell_angle_beta     61.92
_cell_angle_gamma    120

_space_group_name_H-M_alt    "P 1"
_space_group_IT_number       1

loop_
  _space_group_symop_operation_xyz
  'x, y, z'

loop_
  _atom_site_type_symbol
  _atom_site_label
  _atom_site_symmetry_multiplicity
  _atom_site_fract_x
  _atom_site_fract_y
  _atom_site_fract_z
  _atom_site_occupancy
  N   N1        1.0  0.64200  0.35800  0.07420  1.0000
  N   N2        1.0  0.85800  0.14200  0.42600  1.0000
  N   N3        1.0  0.14200  0.85800  0.57400  1.0000
  N   N4        1.0  0.35800  0.64200  0.92600  1.0000
  Zn  Zn1       1.0  0.94400  0.44400  0.25000  1.0000
  Zn  Zn2       1.0  0.25000  0.05570  0.25000  1.0000
  Zn  Zn3       1.0  0.55600  0.75000  0.25000  1.0000
  Zn  Zn4       1.0  0.44400  0.25000  0.75000  1.0000
  Zn  Zn5       1.0  0.75000  0.94400  0.75000  1.0000
  Zn  Zn6       1.0  0.05570  0.55600  0.75000  1.0000
