data_image0
_chemical_formula_structural       I4Pm6
_chemical_formula_sum              "I4 Pm6"
_cell_length_a       6.90421
_cell_length_b       6.90421
_cell_length_c       9.27495
_cell_angle_alpha    111.851
_cell_angle_beta     68.1488
_cell_angle_gamma    120

_space_group_name_H-M_alt    "P 1"
_space_group_IT_number       1

loop_
  _space_group_symop_operation_xyz
  'x, y, z'

loop_
  _atom_site_type_symbol
  _atom_site_label
  _atom_site_symmetry_multiplicity
  _atom_site_fract_x
  _atom_site_fract_y
  _atom_site_fract_z
  _atom_site_occupancy
  I   I1        1.0  0.32900  0.67100  0.01220  1.0000
  I   I2        1.0  0.17100  0.82900  0.48800  1.0000
  I   I3        1.0  0.82900  0.17100  0.51200  1.0000
  I   I4        1.0  0.67100  0.32900  0.98800  1.0000
  Pm  Pm1       1.0  0.25000  0.10400  0.25000  1.0000
  Pm  Pm2       1.0  0.89600  0.39600  0.25000  1.0000
  Pm  Pm3       1.0  0.60400  0.75000  0.25000  1.0000
  Pm  Pm4       1.0  0.39600  0.25000  0.75000  1.0000
  Pm  Pm5       1.0  0.10400  0.60400  0.75000  1.0000
  Pm  Pm6       1.0  0.75000  0.89600  0.75000  1.0000
