data_image0
_chemical_formula_structural       La4N6
_chemical_formula_sum              "La4 N6"
_cell_length_a       6.33197
_cell_length_b       6.33197
_cell_length_c       6.41027
_cell_angle_alpha    119.597
_cell_angle_beta     60.4032
_cell_angle_gamma    120

_space_group_name_H-M_alt    "P 1"
_space_group_IT_number       1

loop_
  _space_group_symop_operation_xyz
  'x, y, z'

loop_
  _atom_site_type_symbol
  _atom_site_label
  _atom_site_symmetry_multiplicity
  _atom_site_fract_x
  _atom_site_fract_y
  _atom_site_fract_z
  _atom_site_occupancy
  La  La1       1.0  0.63500  0.36500  0.09390  1.0000
  La  La2       1.0  0.86500  0.13500  0.40600  1.0000
  La  La3       1.0  0.13500  0.86500  0.59400  1.0000
  La  La4       1.0  0.36500  0.63500  0.90600  1.0000
  N   N1        1.0  0.52300  0.75000  0.25000  1.0000
  N   N2        1.0  0.25000  0.02280  0.25000  1.0000
  N   N3        1.0  0.97700  0.47700  0.25000  1.0000
  N   N4        1.0  0.02280  0.52300  0.75000  1.0000
  N   N5        1.0  0.75000  0.97700  0.75000  1.0000
  N   N6        1.0  0.47700  0.25000  0.75000  1.0000
