data_image0
_chemical_formula_structural       N4Pb6
_chemical_formula_sum              "N4 Pb6"
_cell_length_a       6.44318
_cell_length_b       6.44318
_cell_length_c       7.30381
_cell_angle_alpha    116.173
_cell_angle_beta     63.827
_cell_angle_gamma    120

_space_group_name_H-M_alt    "P 1"
_space_group_IT_number       1

loop_
  _space_group_symop_operation_xyz
  'x, y, z'

loop_
  _atom_site_type_symbol
  _atom_site_label
  _atom_site_symmetry_multiplicity
  _atom_site_fract_x
  _atom_site_fract_y
  _atom_site_fract_z
  _atom_site_occupancy
  N   N1        1.0  0.61200  0.38800  0.16300  1.0000
  N   N2        1.0  0.88800  0.11200  0.33700  1.0000
  N   N3        1.0  0.11200  0.88800  0.66300  1.0000
  N   N4        1.0  0.38800  0.61200  0.83700  1.0000
  Pb  Pb1       1.0  0.25000  0.05580  0.25000  1.0000
  Pb  Pb2       1.0  0.94400  0.44400  0.25000  1.0000
  Pb  Pb3       1.0  0.55600  0.75000  0.25000  1.0000
  Pb  Pb4       1.0  0.44400  0.25000  0.75000  1.0000
  Pb  Pb5       1.0  0.05580  0.55600  0.75000  1.0000
  Pb  Pb6       1.0  0.75000  0.94400  0.75000  1.0000
