data_image0
_chemical_formula_structural       O4Se6
_chemical_formula_sum              "O4 Se6"
_cell_length_a       5.1504
_cell_length_b       5.1504
_cell_length_c       7.83769
_cell_angle_alpha    109.182
_cell_angle_beta     70.8182
_cell_angle_gamma    120

_space_group_name_H-M_alt    "P 1"
_space_group_IT_number       1

loop_
  _space_group_symop_operation_xyz
  'x, y, z'

loop_
  _atom_site_type_symbol
  _atom_site_label
  _atom_site_symmetry_multiplicity
  _atom_site_fract_x
  _atom_site_fract_y
  _atom_site_fract_z
  _atom_site_occupancy
  O   O1        1.0  0.63800  0.36200  0.08750  1.0000
  O   O2        1.0  0.86200  0.13800  0.41300  1.0000
  O   O3        1.0  0.13800  0.86200  0.58700  1.0000
  O   O4        1.0  0.36200  0.63800  0.91300  1.0000
  Se  Se1       1.0  0.25000  0.04920  0.25000  1.0000
  Se  Se2       1.0  0.95100  0.45100  0.25000  1.0000
  Se  Se3       1.0  0.54900  0.75000  0.25000  1.0000
  Se  Se4       1.0  0.45100  0.25000  0.75000  1.0000
  Se  Se5       1.0  0.04920  0.54900  0.75000  1.0000
  Se  Se6       1.0  0.75000  0.95100  0.75000  1.0000
