data_image0
_chemical_formula_structural       I4Tc6
_chemical_formula_sum              "I4 Tc6"
_cell_length_a       6.88214
_cell_length_b       6.88214
_cell_length_c       6.22461
_cell_angle_alpha    123.56
_cell_angle_beta     56.4395
_cell_angle_gamma    120

_space_group_name_H-M_alt    "P 1"
_space_group_IT_number       1

loop_
  _space_group_symop_operation_xyz
  'x, y, z'

loop_
  _atom_site_type_symbol
  _atom_site_label
  _atom_site_symmetry_multiplicity
  _atom_site_fract_x
  _atom_site_fract_y
  _atom_site_fract_z
  _atom_site_occupancy
  I   I1        1.0  0.61200  0.38800  0.16300  1.0000
  I   I2        1.0  0.88800  0.11200  0.33700  1.0000
  I   I3        1.0  0.11200  0.88800  0.66300  1.0000
  I   I4        1.0  0.38800  0.61200  0.83700  1.0000
  Tc  Tc1       1.0  0.50800  0.75000  0.25000  1.0000
  Tc  Tc2       1.0  0.25000  0.00837  0.25000  1.0000
  Tc  Tc3       1.0  0.99200  0.49200  0.25000  1.0000
  Tc  Tc4       1.0  0.00837  0.50800  0.75000  1.0000
  Tc  Tc5       1.0  0.75000  0.99200  0.75000  1.0000
  Tc  Tc6       1.0  0.49200  0.25000  0.75000  1.0000
