data_image0
_chemical_formula_structural       I4W6
_chemical_formula_sum              "I4 W6"
_cell_length_a       6.93036
_cell_length_b       6.93036
_cell_length_c       6.40828
_cell_angle_alpha    122.734
_cell_angle_beta     57.2664
_cell_angle_gamma    120

_space_group_name_H-M_alt    "P 1"
_space_group_IT_number       1

loop_
  _space_group_symop_operation_xyz
  'x, y, z'

loop_
  _atom_site_type_symbol
  _atom_site_label
  _atom_site_symmetry_multiplicity
  _atom_site_fract_x
  _atom_site_fract_y
  _atom_site_fract_z
  _atom_site_occupancy
  I   I1        1.0  0.60100  0.39900  0.19600  1.0000
  I   I2        1.0  0.89900  0.10100  0.30400  1.0000
  I   I3        1.0  0.10100  0.89900  0.69600  1.0000
  I   I4        1.0  0.39900  0.60100  0.80400  1.0000
  W   W1        1.0  0.48500  0.75000  0.25000  1.0000
  W   W2        1.0  0.25000  0.98500  0.25000  1.0000
  W   W3        1.0  0.01540  0.51500  0.25000  1.0000
  W   W4        1.0  0.98500  0.48500  0.75000  1.0000
  W   W5        1.0  0.75000  0.01540  0.75000  1.0000
  W   W6        1.0  0.51500  0.25000  0.75000  1.0000
