data_image0
_chemical_formula_structural       F4Pr6
_chemical_formula_sum              "F4 Pr6"
_cell_length_a       6.64656
_cell_length_b       6.64656
_cell_length_c       6.94692
_cell_angle_alpha    118.58
_cell_angle_beta     61.4202
_cell_angle_gamma    120

_space_group_name_H-M_alt    "P 1"
_space_group_IT_number       1

loop_
  _space_group_symop_operation_xyz
  'x, y, z'

loop_
  _atom_site_type_symbol
  _atom_site_label
  _atom_site_symmetry_multiplicity
  _atom_site_fract_x
  _atom_site_fract_y
  _atom_site_fract_z
  _atom_site_occupancy
  F   F1        1.0  0.66500  0.33500  0.00429  1.0000
  F   F2        1.0  0.83500  0.16500  0.49600  1.0000
  F   F3        1.0  0.16500  0.83500  0.50400  1.0000
  F   F4        1.0  0.33500  0.66500  0.99600  1.0000
  Pr  Pr1       1.0  0.58900  0.75000  0.25000  1.0000
  Pr  Pr2       1.0  0.91100  0.41100  0.25000  1.0000
  Pr  Pr3       1.0  0.25000  0.08860  0.25000  1.0000
  Pr  Pr4       1.0  0.75000  0.91100  0.75000  1.0000
  Pr  Pr5       1.0  0.08860  0.58900  0.75000  1.0000
  Pr  Pr6       1.0  0.41100  0.25000  0.75000  1.0000
