data_image0
_chemical_formula_structural       S4Tc6
_chemical_formula_sum              "S4 Tc6"
_cell_length_a       6.25481
_cell_length_b       6.25481
_cell_length_c       5.56975
_cell_angle_alpha    124.159
_cell_angle_beta     55.8405
_cell_angle_gamma    120

_space_group_name_H-M_alt    "P 1"
_space_group_IT_number       1

loop_
  _space_group_symop_operation_xyz
  'x, y, z'

loop_
  _atom_site_type_symbol
  _atom_site_label
  _atom_site_symmetry_multiplicity
  _atom_site_fract_x
  _atom_site_fract_y
  _atom_site_fract_z
  _atom_site_occupancy
  S   S1        1.0  0.61700  0.38300  0.14800  1.0000
  S   S2        1.0  0.88300  0.11700  0.35200  1.0000
  S   S3        1.0  0.11700  0.88300  0.64800  1.0000
  S   S4        1.0  0.38300  0.61700  0.85200  1.0000
  Tc  Tc1       1.0  0.53700  0.75000  0.25000  1.0000
  Tc  Tc2       1.0  0.96300  0.46300  0.25000  1.0000
  Tc  Tc3       1.0  0.25000  0.03680  0.25000  1.0000
  Tc  Tc4       1.0  0.75000  0.96300  0.75000  1.0000
  Tc  Tc5       1.0  0.03680  0.53700  0.75000  1.0000
  Tc  Tc6       1.0  0.46300  0.25000  0.75000  1.0000
