data_image0
_chemical_formula_structural       N4Nb6
_chemical_formula_sum              "N4 Nb6"
_cell_length_a       5.2907
_cell_length_b       5.2907
_cell_length_c       6.03881
_cell_angle_alpha    115.98
_cell_angle_beta     64.02
_cell_angle_gamma    120

_space_group_name_H-M_alt    "P 1"
_space_group_IT_number       1

loop_
  _space_group_symop_operation_xyz
  'x, y, z'

loop_
  _atom_site_type_symbol
  _atom_site_label
  _atom_site_symmetry_multiplicity
  _atom_site_fract_x
  _atom_site_fract_y
  _atom_site_fract_z
  _atom_site_occupancy
  N   N1        1.0  0.66000  0.34000  0.01850  1.0000
  N   N2        1.0  0.84000  0.16000  0.48100  1.0000
  N   N3        1.0  0.16000  0.84000  0.51900  1.0000
  N   N4        1.0  0.34000  0.66000  0.98100  1.0000
  Nb  Nb1       1.0  0.57600  0.75000  0.25000  1.0000
  Nb  Nb2       1.0  0.92400  0.42400  0.25000  1.0000
  Nb  Nb3       1.0  0.25000  0.07630  0.25000  1.0000
  Nb  Nb4       1.0  0.75000  0.92400  0.75000  1.0000
  Nb  Nb5       1.0  0.07630  0.57600  0.75000  1.0000
  Nb  Nb6       1.0  0.42400  0.25000  0.75000  1.0000
