data_image0
_chemical_formula_structural       I4Pr6
_chemical_formula_sum              "I4 Pr6"
_cell_length_a       7.14803
_cell_length_b       7.14803
_cell_length_c       9.18056
_cell_angle_alpha    112.911
_cell_angle_beta     67.0889
_cell_angle_gamma    120

_space_group_name_H-M_alt    "P 1"
_space_group_IT_number       1

loop_
  _space_group_symop_operation_xyz
  'x, y, z'

loop_
  _atom_site_type_symbol
  _atom_site_label
  _atom_site_symmetry_multiplicity
  _atom_site_fract_x
  _atom_site_fract_y
  _atom_site_fract_z
  _atom_site_occupancy
  I   I1        1.0  0.33000  0.67000  0.01090  1.0000
  I   I2        1.0  0.17000  0.83000  0.48900  1.0000
  I   I3        1.0  0.83000  0.17000  0.51100  1.0000
  I   I4        1.0  0.67000  0.33000  0.98900  1.0000
  Pr  Pr1       1.0  0.25000  0.10100  0.25000  1.0000
  Pr  Pr2       1.0  0.89900  0.39900  0.25000  1.0000
  Pr  Pr3       1.0  0.60100  0.75000  0.25000  1.0000
  Pr  Pr4       1.0  0.39900  0.25000  0.75000  1.0000
  Pr  Pr5       1.0  0.10100  0.60100  0.75000  1.0000
  Pr  Pr6       1.0  0.75000  0.89900  0.75000  1.0000
