data_image0
_chemical_formula_structural       Nb4S6
_chemical_formula_sum              "Nb4 S6"
_cell_length_a       5.91269
_cell_length_b       5.91269
_cell_length_c       6.96364
_cell_angle_alpha    115.122
_cell_angle_beta     64.8784
_cell_angle_gamma    120

_space_group_name_H-M_alt    "P 1"
_space_group_IT_number       1

loop_
  _space_group_symop_operation_xyz
  'x, y, z'

loop_
  _atom_site_type_symbol
  _atom_site_label
  _atom_site_symmetry_multiplicity
  _atom_site_fract_x
  _atom_site_fract_y
  _atom_site_fract_z
  _atom_site_occupancy
  Nb  Nb1       1.0  0.33300  0.66700  0.00186  1.0000
  Nb  Nb2       1.0  0.16700  0.83300  0.49800  1.0000
  Nb  Nb3       1.0  0.83300  0.16700  0.50200  1.0000
  Nb  Nb4       1.0  0.66700  0.33300  0.99800  1.0000
  S   S1        1.0  0.59300  0.75000  0.25000  1.0000
  S   S2        1.0  0.90700  0.40700  0.25000  1.0000
  S   S3        1.0  0.25000  0.09260  0.25000  1.0000
  S   S4        1.0  0.75000  0.90700  0.75000  1.0000
  S   S5        1.0  0.09260  0.59300  0.75000  1.0000
  S   S6        1.0  0.40700  0.25000  0.75000  1.0000
