data_image0
_chemical_formula_structural       F4U6
_chemical_formula_sum              "F4 U6"
_cell_length_a       6.47191
_cell_length_b       6.47191
_cell_length_c       6.21997
_cell_angle_alpha    121.349
_cell_angle_beta     58.6508
_cell_angle_gamma    120

_space_group_name_H-M_alt    "P 1"
_space_group_IT_number       1

loop_
  _space_group_symop_operation_xyz
  'x, y, z'

loop_
  _atom_site_type_symbol
  _atom_site_label
  _atom_site_symmetry_multiplicity
  _atom_site_fract_x
  _atom_site_fract_y
  _atom_site_fract_z
  _atom_site_occupancy
  F   F1        1.0  0.33100  0.66900  0.00677  1.0000
  F   F2        1.0  0.16900  0.83100  0.49300  1.0000
  F   F3        1.0  0.83100  0.16900  0.50700  1.0000
  F   F4        1.0  0.66900  0.33100  0.99300  1.0000
  U   U1        1.0  0.25000  0.10400  0.25000  1.0000
  U   U2        1.0  0.89600  0.39600  0.25000  1.0000
  U   U3        1.0  0.60400  0.75000  0.25000  1.0000
  U   U4        1.0  0.39600  0.25000  0.75000  1.0000
  U   U5        1.0  0.10400  0.60400  0.75000  1.0000
  U   U6        1.0  0.75000  0.89600  0.75000  1.0000
