data_image0
_chemical_formula_structural       Cl4Se6
_chemical_formula_sum              "Cl4 Se6"
_cell_length_a       5.47008
_cell_length_b       5.47008
_cell_length_c       9.271
_cell_angle_alpha    107.158
_cell_angle_beta     72.8419
_cell_angle_gamma    120

_space_group_name_H-M_alt    "P 1"
_space_group_IT_number       1

loop_
  _space_group_symop_operation_xyz
  'x, y, z'

loop_
  _atom_site_type_symbol
  _atom_site_label
  _atom_site_symmetry_multiplicity
  _atom_site_fract_x
  _atom_site_fract_y
  _atom_site_fract_z
  _atom_site_occupancy
  Cl  Cl1       1.0  0.32500  0.67500  0.02500  1.0000
  Cl  Cl2       1.0  0.17500  0.82500  0.47500  1.0000
  Cl  Cl3       1.0  0.82500  0.17500  0.52500  1.0000
  Cl  Cl4       1.0  0.67500  0.32500  0.97500  1.0000
  Se  Se1       1.0  0.25000  0.17700  0.25000  1.0000
  Se  Se2       1.0  0.82300  0.32300  0.25000  1.0000
  Se  Se3       1.0  0.67700  0.75000  0.25000  1.0000
  Se  Se4       1.0  0.32300  0.25000  0.75000  1.0000
  Se  Se5       1.0  0.17700  0.67700  0.75000  1.0000
  Se  Se6       1.0  0.75000  0.82300  0.75000  1.0000
