data_image0
_chemical_formula_structural       I4Re6
_chemical_formula_sum              "I4 Re6"
_cell_length_a       6.88598
_cell_length_b       6.88598
_cell_length_c       6.23653
_cell_angle_alpha    123.509
_cell_angle_beta     56.491
_cell_angle_gamma    120

_space_group_name_H-M_alt    "P 1"
_space_group_IT_number       1

loop_
  _space_group_symop_operation_xyz
  'x, y, z'

loop_
  _atom_site_type_symbol
  _atom_site_label
  _atom_site_symmetry_multiplicity
  _atom_site_fract_x
  _atom_site_fract_y
  _atom_site_fract_z
  _atom_site_occupancy
  I   I1        1.0  0.60800  0.39200  0.17500  1.0000
  I   I2        1.0  0.89200  0.10800  0.32500  1.0000
  I   I3        1.0  0.10800  0.89200  0.67500  1.0000
  I   I4        1.0  0.39200  0.60800  0.82500  1.0000
  Re  Re1       1.0  0.25000  0.00076  0.25000  1.0000
  Re  Re2       1.0  0.99900  0.49900  0.25000  1.0000
  Re  Re3       1.0  0.50100  0.75000  0.25000  1.0000
  Re  Re4       1.0  0.49900  0.25000  0.75000  1.0000
  Re  Re5       1.0  0.00076  0.50100  0.75000  1.0000
  Re  Re6       1.0  0.75000  0.99900  0.75000  1.0000
