data_image0
_chemical_formula_structural       F4I6
_chemical_formula_sum              "F4 I6"
_cell_length_a       6.60919
_cell_length_b       6.60919
_cell_length_c       7.91103
_cell_angle_alpha    114.691
_cell_angle_beta     65.3093
_cell_angle_gamma    120

_space_group_name_H-M_alt    "P 1"
_space_group_IT_number       1

loop_
  _space_group_symop_operation_xyz
  'x, y, z'

loop_
  _atom_site_type_symbol
  _atom_site_label
  _atom_site_symmetry_multiplicity
  _atom_site_fract_x
  _atom_site_fract_y
  _atom_site_fract_z
  _atom_site_occupancy
  F   F1        1.0  0.58700  0.41300  0.24000  1.0000
  F   F2        1.0  0.91300  0.08680  0.26000  1.0000
  F   F3        1.0  0.08680  0.91300  0.74000  1.0000
  F   F4        1.0  0.41300  0.58700  0.76000  1.0000
  I   I1        1.0  0.99500  0.49500  0.25000  1.0000
  I   I2        1.0  0.50500  0.75000  0.25000  1.0000
  I   I3        1.0  0.25000  0.00499  0.25000  1.0000
  I   I4        1.0  0.75000  0.99500  0.75000  1.0000
  I   I5        1.0  0.49500  0.25000  0.75000  1.0000
  I   I6        1.0  0.00499  0.50500  0.75000  1.0000
