data_image0
_chemical_formula_structural       Br4Cl6
_chemical_formula_sum              "Br4 Cl6"
_cell_length_a       8.6181
_cell_length_b       8.6181
_cell_length_c       7.85785
_cell_angle_alpha    123.256
_cell_angle_beta     56.7444
_cell_angle_gamma    120

_space_group_name_H-M_alt    "P 1"
_space_group_IT_number       1

loop_
  _space_group_symop_operation_xyz
  'x, y, z'

loop_
  _atom_site_type_symbol
  _atom_site_label
  _atom_site_symmetry_multiplicity
  _atom_site_fract_x
  _atom_site_fract_y
  _atom_site_fract_z
  _atom_site_occupancy
  Br  Br1       1.0  0.60000  0.40100  0.20200  1.0000
  Br  Br2       1.0  0.90100  0.09950  0.29800  1.0000
  Br  Br3       1.0  0.09950  0.90100  0.70200  1.0000
  Br  Br4       1.0  0.40000  0.60000  0.79900  1.0000
  Cl  Cl1       1.0  0.74700  0.24700  0.25000  1.0000
  Cl  Cl2       1.0  0.25000  0.25300  0.25000  1.0000
  Cl  Cl3       1.0  0.75300  0.75000  0.25000  1.0000
  Cl  Cl4       1.0  0.24700  0.25000  0.75000  1.0000
  Cl  Cl5       1.0  0.75000  0.74700  0.75000  1.0000
  Cl  Cl6       1.0  0.25300  0.75300  0.75000  1.0000
