data_image0
_chemical_formula_structural       O4Si6
_chemical_formula_sum              "O4 Si6"
_cell_length_a       6.13764
_cell_length_b       6.13764
_cell_length_c       5.0725
_cell_angle_alpha    127.228
_cell_angle_beta     52.7718
_cell_angle_gamma    120

_space_group_name_H-M_alt    "P 1"
_space_group_IT_number       1

loop_
  _space_group_symop_operation_xyz
  'x, y, z'

loop_
  _atom_site_type_symbol
  _atom_site_label
  _atom_site_symmetry_multiplicity
  _atom_site_fract_x
  _atom_site_fract_y
  _atom_site_fract_z
  _atom_site_occupancy
  O   O1        1.0  0.63200  0.36800  0.10400  1.0000
  O   O2        1.0  0.86800  0.13200  0.39600  1.0000
  O   O3        1.0  0.13200  0.86800  0.60400  1.0000
  O   O4        1.0  0.36800  0.63200  0.89600  1.0000
  Si  Si1       1.0  0.75000  0.75000  0.25000  1.0000
  Si  Si2       1.0  0.25000  0.25000  0.25000  1.0000
  Si  Si3       1.0  0.75000  0.25000  0.25000  1.0000
  Si  Si4       1.0  0.25000  0.75000  0.75000  1.0000
  Si  Si5       1.0  0.75000  0.75000  0.75000  1.0000
  Si  Si6       1.0  0.25000  0.25000  0.75000  1.0000
