data_image0
_chemical_formula_structural       N4Tm6
_chemical_formula_sum              "N4 Tm6"
_cell_length_a       5.83888
_cell_length_b       5.83888
_cell_length_c       6.56787
_cell_angle_alpha    116.392
_cell_angle_beta     63.6084
_cell_angle_gamma    120

_space_group_name_H-M_alt    "P 1"
_space_group_IT_number       1

loop_
  _space_group_symop_operation_xyz
  'x, y, z'

loop_
  _atom_site_type_symbol
  _atom_site_label
  _atom_site_symmetry_multiplicity
  _atom_site_fract_x
  _atom_site_fract_y
  _atom_site_fract_z
  _atom_site_occupancy
  N   N1        1.0  0.66200  0.33800  0.01310  1.0000
  N   N2        1.0  0.83800  0.16200  0.48700  1.0000
  N   N3        1.0  0.16200  0.83800  0.51300  1.0000
  N   N4        1.0  0.33800  0.66200  0.98700  1.0000
  Tm  Tm1       1.0  0.92500  0.42500  0.25000  1.0000
  Tm  Tm2       1.0  0.25000  0.07450  0.25000  1.0000
  Tm  Tm3       1.0  0.57500  0.75000  0.25000  1.0000
  Tm  Tm4       1.0  0.42500  0.25000  0.75000  1.0000
  Tm  Tm5       1.0  0.75000  0.92500  0.75000  1.0000
  Tm  Tm6       1.0  0.07450  0.57500  0.75000  1.0000
