data_image0
_chemical_formula_structural       Mg2Sb2Yb
_chemical_formula_sum              "Mg2 Sb2 Yb1"
_cell_length_a       4.67833
_cell_length_b       4.67855
_cell_length_c       7.57905
_cell_angle_alpha    90
_cell_angle_beta     90.0017
_cell_angle_gamma    120.002

_space_group_name_H-M_alt    "P 1"
_space_group_IT_number       1

loop_
  _space_group_symop_operation_xyz
  'x, y, z'

loop_
  _atom_site_type_symbol
  _atom_site_label
  _atom_site_symmetry_multiplicity
  _atom_site_fract_x
  _atom_site_fract_y
  _atom_site_fract_z
  _atom_site_occupancy
  Mg  Mg1       1.0  0.33300  0.66700  0.36800  1.0000
  Mg  Mg2       1.0  0.66700  0.33300  0.63200  1.0000
  Sb  Sb1       1.0  0.66700  0.33300  0.24400  1.0000
  Sb  Sb2       1.0  0.33300  0.66700  0.75600  1.0000
  Yb  Yb1       1.0  0.00000  0.00000  0.00000  1.0000
