data_image0
_chemical_formula_structural       Br4F6
_chemical_formula_sum              "Br4 F6"
_cell_length_a       7.15641
_cell_length_b       7.15641
_cell_length_c       6.14099
_cell_angle_alpha    125.639
_cell_angle_beta     54.361
_cell_angle_gamma    120

_space_group_name_H-M_alt    "P 1"
_space_group_IT_number       1

loop_
  _space_group_symop_operation_xyz
  'x, y, z'

loop_
  _atom_site_type_symbol
  _atom_site_label
  _atom_site_symmetry_multiplicity
  _atom_site_fract_x
  _atom_site_fract_y
  _atom_site_fract_z
  _atom_site_occupancy
  Br  Br1       1.0  0.61700  0.38300  0.14800  1.0000
  Br  Br2       1.0  0.88300  0.11700  0.35200  1.0000
  Br  Br3       1.0  0.11700  0.88300  0.64800  1.0000
  Br  Br4       1.0  0.38300  0.61700  0.85200  1.0000
  F   F1        1.0  0.77700  0.27700  0.25000  1.0000
  F   F2        1.0  0.72300  0.75000  0.25000  1.0000
  F   F3        1.0  0.25000  0.22300  0.25000  1.0000
  F   F4        1.0  0.75000  0.77700  0.75000  1.0000
  F   F5        1.0  0.27700  0.25000  0.75000  1.0000
  F   F6        1.0  0.22300  0.72300  0.75000  1.0000
