data_image0
_chemical_formula_structural       N4Yb6
_chemical_formula_sum              "N4 Yb6"
_cell_length_a       6.08324
_cell_length_b       6.08324
_cell_length_c       6.43166
_cell_angle_alpha    118.224
_cell_angle_beta     61.7764
_cell_angle_gamma    120

_space_group_name_H-M_alt    "P 1"
_space_group_IT_number       1

loop_
  _space_group_symop_operation_xyz
  'x, y, z'

loop_
  _atom_site_type_symbol
  _atom_site_label
  _atom_site_symmetry_multiplicity
  _atom_site_fract_x
  _atom_site_fract_y
  _atom_site_fract_z
  _atom_site_occupancy
  N   N1        1.0  0.64600  0.35400  0.06340  1.0000
  N   N2        1.0  0.85400  0.14600  0.43700  1.0000
  N   N3        1.0  0.14600  0.85400  0.56300  1.0000
  N   N4        1.0  0.35400  0.64600  0.93700  1.0000
  Yb  Yb1       1.0  0.25000  0.04590  0.25000  1.0000
  Yb  Yb2       1.0  0.95400  0.45400  0.25000  1.0000
  Yb  Yb3       1.0  0.54600  0.75000  0.25000  1.0000
  Yb  Yb4       1.0  0.45400  0.25000  0.75000  1.0000
  Yb  Yb5       1.0  0.04590  0.54600  0.75000  1.0000
  Yb  Yb6       1.0  0.75000  0.95400  0.75000  1.0000
