data_image0
_chemical_formula_structural       O4Ti6
_chemical_formula_sum              "O4 Ti6"
_cell_length_a       5.0988
_cell_length_b       5.0988
_cell_length_c       5.75553
_cell_angle_alpha    116.292
_cell_angle_beta     63.7079
_cell_angle_gamma    120

_space_group_name_H-M_alt    "P 1"
_space_group_IT_number       1

loop_
  _space_group_symop_operation_xyz
  'x, y, z'

loop_
  _atom_site_type_symbol
  _atom_site_label
  _atom_site_symmetry_multiplicity
  _atom_site_fract_x
  _atom_site_fract_y
  _atom_site_fract_z
  _atom_site_occupancy
  O   O1        1.0  0.66200  0.33800  0.01330  1.0000
  O   O2        1.0  0.83800  0.16200  0.48700  1.0000
  O   O3        1.0  0.16200  0.83800  0.51300  1.0000
  O   O4        1.0  0.33800  0.66200  0.98700  1.0000
  Ti  Ti1       1.0  0.58000  0.75000  0.25000  1.0000
  Ti  Ti2       1.0  0.92000  0.42000  0.25000  1.0000
  Ti  Ti3       1.0  0.25000  0.08000  0.25000  1.0000
  Ti  Ti4       1.0  0.75000  0.92000  0.75000  1.0000
  Ti  Ti5       1.0  0.08000  0.58000  0.75000  1.0000
  Ti  Ti6       1.0  0.42000  0.25000  0.75000  1.0000
