data_image0
_chemical_formula_structural       N4Pu6
_chemical_formula_sum              "N4 Pu6"
_cell_length_a       5.99559
_cell_length_b       5.99559
_cell_length_c       6.66148
_cell_angle_alpha    116.745
_cell_angle_beta     63.2551
_cell_angle_gamma    120

_space_group_name_H-M_alt    "P 1"
_space_group_IT_number       1

loop_
  _space_group_symop_operation_xyz
  'x, y, z'

loop_
  _atom_site_type_symbol
  _atom_site_label
  _atom_site_symmetry_multiplicity
  _atom_site_fract_x
  _atom_site_fract_y
  _atom_site_fract_z
  _atom_site_occupancy
  N   N1        1.0  0.66100  0.33900  0.01750  1.0000
  N   N2        1.0  0.83900  0.16100  0.48200  1.0000
  N   N3        1.0  0.16100  0.83900  0.51800  1.0000
  N   N4        1.0  0.33900  0.66100  0.98200  1.0000
  Pu  Pu1       1.0  0.57600  0.75000  0.25000  1.0000
  Pu  Pu2       1.0  0.25000  0.07560  0.25000  1.0000
  Pu  Pu3       1.0  0.92400  0.42400  0.25000  1.0000
  Pu  Pu4       1.0  0.07560  0.57600  0.75000  1.0000
  Pu  Pu5       1.0  0.75000  0.92400  0.75000  1.0000
  Pu  Pu6       1.0  0.42400  0.25000  0.75000  1.0000
