data_image0
_chemical_formula_structural       O4P6
_chemical_formula_sum              "O4 P6"
_cell_length_a       6.13792
_cell_length_b       6.13792
_cell_length_c       4.91408
_cell_angle_alpha    128.647
_cell_angle_beta     51.3527
_cell_angle_gamma    120

_space_group_name_H-M_alt    "P 1"
_space_group_IT_number       1

loop_
  _space_group_symop_operation_xyz
  'x, y, z'

loop_
  _atom_site_type_symbol
  _atom_site_label
  _atom_site_symmetry_multiplicity
  _atom_site_fract_x
  _atom_site_fract_y
  _atom_site_fract_z
  _atom_site_occupancy
  O   O1        1.0  0.63100  0.36900  0.10600  1.0000
  O   O2        1.0  0.86900  0.13100  0.39400  1.0000
  O   O3        1.0  0.13100  0.86900  0.60600  1.0000
  O   O4        1.0  0.36900  0.63100  0.89400  1.0000
  P   P1        1.0  0.25000  0.25000  0.25000  1.0000
  P   P2        1.0  0.75000  0.75000  0.25000  1.0000
  P   P3        1.0  0.75000  0.25000  0.25000  1.0000
  P   P4        1.0  0.25000  0.75000  0.75000  1.0000
  P   P5        1.0  0.25000  0.25000  0.75000  1.0000
  P   P6        1.0  0.75000  0.75000  0.75000  1.0000
