data_image0
_chemical_formula_structural       N4Rh6
_chemical_formula_sum              "N4 Rh6"
_cell_length_a       5.56004
_cell_length_b       5.56004
_cell_length_c       5.47251
_cell_angle_alpha    120.531
_cell_angle_beta     59.4695
_cell_angle_gamma    120

_space_group_name_H-M_alt    "P 1"
_space_group_IT_number       1

loop_
  _space_group_symop_operation_xyz
  'x, y, z'

loop_
  _atom_site_type_symbol
  _atom_site_label
  _atom_site_symmetry_multiplicity
  _atom_site_fract_x
  _atom_site_fract_y
  _atom_site_fract_z
  _atom_site_occupancy
  N   N1        1.0  0.64400  0.35600  0.06930  1.0000
  N   N2        1.0  0.85600  0.14400  0.43100  1.0000
  N   N3        1.0  0.14400  0.85600  0.56900  1.0000
  N   N4        1.0  0.35600  0.64400  0.93100  1.0000
  Rh  Rh1       1.0  0.60300  0.75000  0.25000  1.0000
  Rh  Rh2       1.0  0.89700  0.39700  0.25000  1.0000
  Rh  Rh3       1.0  0.25000  0.10300  0.25000  1.0000
  Rh  Rh4       1.0  0.75000  0.89700  0.75000  1.0000
  Rh  Rh5       1.0  0.10300  0.60300  0.75000  1.0000
  Rh  Rh6       1.0  0.39700  0.25000  0.75000  1.0000
