data_image0
_chemical_formula_structural       Br4Ga6
_chemical_formula_sum              "Br4 Ga6"
_cell_length_a       5.89973
_cell_length_b       5.89974
_cell_length_c       9.42116
_cell_angle_alpha    108.247
_cell_angle_beta     71.7532
_cell_angle_gamma    120

_space_group_name_H-M_alt    "P 1"
_space_group_IT_number       1

loop_
  _space_group_symop_operation_xyz
  'x, y, z'

loop_
  _atom_site_type_symbol
  _atom_site_label
  _atom_site_symmetry_multiplicity
  _atom_site_fract_x
  _atom_site_fract_y
  _atom_site_fract_z
  _atom_site_occupancy
  Br  Br1       1.0  0.31600  0.68400  0.05330  1.0000
  Br  Br2       1.0  0.18400  0.81600  0.44700  1.0000
  Br  Br3       1.0  0.81600  0.18400  0.55300  1.0000
  Br  Br4       1.0  0.68400  0.31600  0.94700  1.0000
  Ga  Ga1       1.0  0.25000  0.17800  0.25000  1.0000
  Ga  Ga2       1.0  0.82200  0.32200  0.25000  1.0000
  Ga  Ga3       1.0  0.67800  0.75000  0.25000  1.0000
  Ga  Ga4       1.0  0.32200  0.25000  0.75000  1.0000
  Ga  Ga5       1.0  0.17800  0.67800  0.75000  1.0000
  Ga  Ga6       1.0  0.75000  0.82200  0.75000  1.0000
