data_image0
_chemical_formula_structural       Ni4S6
_chemical_formula_sum              "Ni4 S6"
_cell_length_a       5.79957
_cell_length_b       5.79957
_cell_length_c       6.08901
_cell_angle_alpha    118.44
_cell_angle_beta     61.5603
_cell_angle_gamma    120

_space_group_name_H-M_alt    "P 1"
_space_group_IT_number       1

loop_
  _space_group_symop_operation_xyz
  'x, y, z'

loop_
  _atom_site_type_symbol
  _atom_site_label
  _atom_site_symmetry_multiplicity
  _atom_site_fract_x
  _atom_site_fract_y
  _atom_site_fract_z
  _atom_site_occupancy
  Ni  Ni1       1.0  0.65200  0.34800  0.04470  1.0000
  Ni  Ni2       1.0  0.84800  0.15200  0.45500  1.0000
  Ni  Ni3       1.0  0.15200  0.84800  0.54500  1.0000
  Ni  Ni4       1.0  0.34800  0.65200  0.95500  1.0000
  S   S1        1.0  0.55400  0.75000  0.25000  1.0000
  S   S2        1.0  0.25000  0.05440  0.25000  1.0000
  S   S3        1.0  0.94600  0.44600  0.25000  1.0000
  S   S4        1.0  0.05440  0.55400  0.75000  1.0000
  S   S5        1.0  0.75000  0.94600  0.75000  1.0000
  S   S6        1.0  0.44600  0.25000  0.75000  1.0000
