data_image0
_chemical_formula_structural       Pd4S6
_chemical_formula_sum              "Pd4 S6"
_cell_length_a       6.20044
_cell_length_b       6.20044
_cell_length_c       6.49083
_cell_angle_alpha    118.531
_cell_angle_beta     61.4692
_cell_angle_gamma    120

_space_group_name_H-M_alt    "P 1"
_space_group_IT_number       1

loop_
  _space_group_symop_operation_xyz
  'x, y, z'

loop_
  _atom_site_type_symbol
  _atom_site_label
  _atom_site_symmetry_multiplicity
  _atom_site_fract_x
  _atom_site_fract_y
  _atom_site_fract_z
  _atom_site_occupancy
  Pd  Pd1       1.0  0.65200  0.34800  0.04370  1.0000
  Pd  Pd2       1.0  0.84800  0.15200  0.45600  1.0000
  Pd  Pd3       1.0  0.15200  0.84800  0.54400  1.0000
  Pd  Pd4       1.0  0.34800  0.65200  0.95600  1.0000
  S   S1        1.0  0.25000  0.05420  0.25000  1.0000
  S   S2        1.0  0.94600  0.44600  0.25000  1.0000
  S   S3        1.0  0.55400  0.75000  0.25000  1.0000
  S   S4        1.0  0.44600  0.25000  0.75000  1.0000
  S   S5        1.0  0.05420  0.55400  0.75000  1.0000
  S   S6        1.0  0.75000  0.94600  0.75000  1.0000
