data_image0
_chemical_formula_structural       Pt4S6
_chemical_formula_sum              "Pt4 S6"
_cell_length_a       6.18167
_cell_length_b       6.18167
_cell_length_c       6.53822
_cell_angle_alpha    118.212
_cell_angle_beta     61.7881
_cell_angle_gamma    120

_space_group_name_H-M_alt    "P 1"
_space_group_IT_number       1

loop_
  _space_group_symop_operation_xyz
  'x, y, z'

loop_
  _atom_site_type_symbol
  _atom_site_label
  _atom_site_symmetry_multiplicity
  _atom_site_fract_x
  _atom_site_fract_y
  _atom_site_fract_z
  _atom_site_occupancy
  Pt  Pt1       1.0  0.65100  0.34900  0.04670  1.0000
  Pt  Pt2       1.0  0.84900  0.15100  0.45300  1.0000
  Pt  Pt3       1.0  0.15100  0.84900  0.54700  1.0000
  Pt  Pt4       1.0  0.34900  0.65100  0.95300  1.0000
  S   S1        1.0  0.55100  0.75000  0.25000  1.0000
  S   S2        1.0  0.94900  0.44900  0.25000  1.0000
  S   S3        1.0  0.25000  0.05130  0.25000  1.0000
  S   S4        1.0  0.75000  0.94900  0.75000  1.0000
  S   S5        1.0  0.05130  0.55100  0.75000  1.0000
  S   S6        1.0  0.44900  0.25000  0.75000  1.0000
