data_image0
_chemical_formula_structural       Lu4N6
_chemical_formula_sum              "Lu4 N6"
_cell_length_a       5.75957
_cell_length_b       5.75957
_cell_length_c       6.05552
_cell_angle_alpha    118.396
_cell_angle_beta     61.6039
_cell_angle_gamma    120

_space_group_name_H-M_alt    "P 1"
_space_group_IT_number       1

loop_
  _space_group_symop_operation_xyz
  'x, y, z'

loop_
  _atom_site_type_symbol
  _atom_site_label
  _atom_site_symmetry_multiplicity
  _atom_site_fract_x
  _atom_site_fract_y
  _atom_site_fract_z
  _atom_site_occupancy
  Lu  Lu1       1.0  0.64300  0.35700  0.06990  1.0000
  Lu  Lu2       1.0  0.85700  0.14300  0.43000  1.0000
  Lu  Lu3       1.0  0.14300  0.85700  0.57000  1.0000
  Lu  Lu4       1.0  0.35700  0.64300  0.93000  1.0000
  N   N1        1.0  0.53600  0.75000  0.25000  1.0000
  N   N2        1.0  0.25000  0.03630  0.25000  1.0000
  N   N3        1.0  0.96400  0.46400  0.25000  1.0000
  N   N4        1.0  0.03630  0.53600  0.75000  1.0000
  N   N5        1.0  0.75000  0.96400  0.75000  1.0000
  N   N6        1.0  0.46400  0.25000  0.75000  1.0000
