data_image0
_chemical_formula_structural       Pb4S6
_chemical_formula_sum              "Pb4 S6"
_cell_length_a       7.06659
_cell_length_b       7.06659
_cell_length_c       7.57655
_cell_angle_alpha    117.797
_cell_angle_beta     62.2026
_cell_angle_gamma    120

_space_group_name_H-M_alt    "P 1"
_space_group_IT_number       1

loop_
  _space_group_symop_operation_xyz
  'x, y, z'

loop_
  _atom_site_type_symbol
  _atom_site_label
  _atom_site_symmetry_multiplicity
  _atom_site_fract_x
  _atom_site_fract_y
  _atom_site_fract_z
  _atom_site_occupancy
  Pb  Pb1       1.0  0.64900  0.35100  0.05310  1.0000
  Pb  Pb2       1.0  0.85100  0.14900  0.44700  1.0000
  Pb  Pb3       1.0  0.14900  0.85100  0.55300  1.0000
  Pb  Pb4       1.0  0.35100  0.64900  0.94700  1.0000
  S   S1        1.0  0.55400  0.75000  0.25000  1.0000
  S   S2        1.0  0.94600  0.44600  0.25000  1.0000
  S   S3        1.0  0.25000  0.05400  0.25000  1.0000
  S   S4        1.0  0.75000  0.94600  0.75000  1.0000
  S   S5        1.0  0.05400  0.55400  0.75000  1.0000
  S   S6        1.0  0.44600  0.25000  0.75000  1.0000
