data_image0
_chemical_formula_structural       S4W6
_chemical_formula_sum              "S4 W6"
_cell_length_a       6.37673
_cell_length_b       6.37673
_cell_length_c       5.65574
_cell_angle_alpha    124.315
_cell_angle_beta     55.6852
_cell_angle_gamma    120

_space_group_name_H-M_alt    "P 1"
_space_group_IT_number       1

loop_
  _space_group_symop_operation_xyz
  'x, y, z'

loop_
  _atom_site_type_symbol
  _atom_site_label
  _atom_site_symmetry_multiplicity
  _atom_site_fract_x
  _atom_site_fract_y
  _atom_site_fract_z
  _atom_site_occupancy
  S   S1        1.0  0.60900  0.39100  0.17300  1.0000
  S   S2        1.0  0.89100  0.10900  0.32700  1.0000
  S   S3        1.0  0.10900  0.89100  0.67300  1.0000
  S   S4        1.0  0.39100  0.60900  0.82700  1.0000
  W   W1        1.0  0.52500  0.75000  0.25000  1.0000
  W   W2        1.0  0.97500  0.47500  0.25000  1.0000
  W   W3        1.0  0.25000  0.02500  0.25000  1.0000
  W   W4        1.0  0.75000  0.97500  0.75000  1.0000
  W   W5        1.0  0.02500  0.52500  0.75000  1.0000
  W   W6        1.0  0.47500  0.25000  0.75000  1.0000
