data_image0
_chemical_formula_structural       Mo4N6
_chemical_formula_sum              "Mo4 N6"
_cell_length_a       5.09277
_cell_length_b       5.09277
_cell_length_c       5.68928
_cell_angle_alpha    116.588
_cell_angle_beta     63.4117
_cell_angle_gamma    120

_space_group_name_H-M_alt    "P 1"
_space_group_IT_number       1

loop_
  _space_group_symop_operation_xyz
  'x, y, z'

loop_
  _atom_site_type_symbol
  _atom_site_label
  _atom_site_symmetry_multiplicity
  _atom_site_fract_x
  _atom_site_fract_y
  _atom_site_fract_z
  _atom_site_occupancy
  Mo  Mo1       1.0  0.65400  0.34600  0.03840  1.0000
  Mo  Mo2       1.0  0.84600  0.15400  0.46200  1.0000
  Mo  Mo3       1.0  0.15400  0.84600  0.53800  1.0000
  Mo  Mo4       1.0  0.34600  0.65400  0.96200  1.0000
  N   N1        1.0  0.58400  0.75000  0.25000  1.0000
  N   N2        1.0  0.91600  0.41600  0.25000  1.0000
  N   N3        1.0  0.25000  0.08380  0.25000  1.0000
  N   N4        1.0  0.75000  0.91600  0.75000  1.0000
  N   N5        1.0  0.08380  0.58400  0.75000  1.0000
  N   N6        1.0  0.41600  0.25000  0.75000  1.0000
