data_image0
_chemical_formula_structural       O4Sm6
_chemical_formula_sum              "O4 Sm6"
_cell_length_a       6.17986
_cell_length_b       6.17986
_cell_length_c       6.70389
_cell_angle_alpha    117.446
_cell_angle_beta     62.5538
_cell_angle_gamma    120

_space_group_name_H-M_alt    "P 1"
_space_group_IT_number       1

loop_
  _space_group_symop_operation_xyz
  'x, y, z'

loop_
  _atom_site_type_symbol
  _atom_site_label
  _atom_site_symmetry_multiplicity
  _atom_site_fract_x
  _atom_site_fract_y
  _atom_site_fract_z
  _atom_site_occupancy
  O   O1        1.0  0.66500  0.33500  0.00601  1.0000
  O   O2        1.0  0.83500  0.16500  0.49400  1.0000
  O   O3        1.0  0.16500  0.83500  0.50600  1.0000
  O   O4        1.0  0.33500  0.66500  0.99400  1.0000
  Sm  Sm1       1.0  0.57800  0.75000  0.25000  1.0000
  Sm  Sm2       1.0  0.92200  0.42200  0.25000  1.0000
  Sm  Sm3       1.0  0.25000  0.07840  0.25000  1.0000
  Sm  Sm4       1.0  0.75000  0.92200  0.75000  1.0000
  Sm  Sm5       1.0  0.07840  0.57800  0.75000  1.0000
  Sm  Sm6       1.0  0.42200  0.25000  0.75000  1.0000
