data_image0
_chemical_formula_structural       F4Sn6
_chemical_formula_sum              "F4 Sn6"
_cell_length_a       7.71784
_cell_length_b       7.71784
_cell_length_c       6.11168
_cell_angle_alpha    129.154
_cell_angle_beta     50.8465
_cell_angle_gamma    120

_space_group_name_H-M_alt    "P 1"
_space_group_IT_number       1

loop_
  _space_group_symop_operation_xyz
  'x, y, z'

loop_
  _atom_site_type_symbol
  _atom_site_label
  _atom_site_symmetry_multiplicity
  _atom_site_fract_x
  _atom_site_fract_y
  _atom_site_fract_z
  _atom_site_occupancy
  F   F1        1.0  0.64200  0.35800  0.07350  1.0000
  F   F2        1.0  0.85800  0.14200  0.42600  1.0000
  F   F3        1.0  0.14200  0.85800  0.57400  1.0000
  F   F4        1.0  0.35800  0.64200  0.92600  1.0000
  Sn  Sn1       1.0  0.74200  0.75000  0.25000  1.0000
  Sn  Sn2       1.0  0.75800  0.25800  0.25000  1.0000
  Sn  Sn3       1.0  0.25000  0.24200  0.25000  1.0000
  Sn  Sn4       1.0  0.75000  0.75800  0.75000  1.0000
  Sn  Sn5       1.0  0.24200  0.74200  0.75000  1.0000
  Sn  Sn6       1.0  0.25800  0.25000  0.75000  1.0000
