data_image0
_chemical_formula_structural       Cs4N6
_chemical_formula_sum              "Cs4 N6"
_cell_length_a       6.45743
_cell_length_b       6.45743
_cell_length_c       7.59724
_cell_angle_alpha    115.15
_cell_angle_beta     64.8503
_cell_angle_gamma    120

_space_group_name_H-M_alt    "P 1"
_space_group_IT_number       1

loop_
  _space_group_symop_operation_xyz
  'x, y, z'

loop_
  _atom_site_type_symbol
  _atom_site_label
  _atom_site_symmetry_multiplicity
  _atom_site_fract_x
  _atom_site_fract_y
  _atom_site_fract_z
  _atom_site_occupancy
  Cs  Cs1       1.0  0.60400  0.39600  0.18900  1.0000
  Cs  Cs2       1.0  0.89600  0.10400  0.31100  1.0000
  Cs  Cs3       1.0  0.10400  0.89600  0.68900  1.0000
  Cs  Cs4       1.0  0.39600  0.60400  0.81100  1.0000
  N   N1        1.0  0.37900  0.75000  0.25000  1.0000
  N   N2        1.0  0.25000  0.87900  0.25000  1.0000
  N   N3        1.0  0.12100  0.62100  0.25000  1.0000
  N   N4        1.0  0.87900  0.37900  0.75000  1.0000
  N   N5        1.0  0.75000  0.12100  0.75000  1.0000
  N   N6        1.0  0.62100  0.25000  0.75000  1.0000
