data_image0
_chemical_formula_structural       I4Zn6
_chemical_formula_sum              "I4 Zn6"
_cell_length_a       7.06291
_cell_length_b       7.06291
_cell_length_c       8.16761
_cell_angle_alpha    115.618
_cell_angle_beta     64.3818
_cell_angle_gamma    120

_space_group_name_H-M_alt    "P 1"
_space_group_IT_number       1

loop_
  _space_group_symop_operation_xyz
  'x, y, z'

loop_
  _atom_site_type_symbol
  _atom_site_label
  _atom_site_symmetry_multiplicity
  _atom_site_fract_x
  _atom_site_fract_y
  _atom_site_fract_z
  _atom_site_occupancy
  I   I1        1.0  0.59800  0.40200  0.20500  1.0000
  I   I2        1.0  0.90200  0.09820  0.29500  1.0000
  I   I3        1.0  0.09820  0.90200  0.70500  1.0000
  I   I4        1.0  0.40200  0.59800  0.79500  1.0000
  Zn  Zn1       1.0  0.03920  0.53900  0.25000  1.0000
  Zn  Zn2       1.0  0.25000  0.96100  0.25000  1.0000
  Zn  Zn3       1.0  0.46100  0.75000  0.25000  1.0000
  Zn  Zn4       1.0  0.53900  0.25000  0.75000  1.0000
  Zn  Zn5       1.0  0.75000  0.03920  0.75000  1.0000
  Zn  Zn6       1.0  0.96100  0.46100  0.75000  1.0000
