data_image0
_chemical_formula_structural       O4Sr6
_chemical_formula_sum              "O4 Sr6"
_cell_length_a       6.3515
_cell_length_b       6.3515
_cell_length_c       7.27147
_cell_angle_alpha    115.896
_cell_angle_beta     64.1039
_cell_angle_gamma    120

_space_group_name_H-M_alt    "P 1"
_space_group_IT_number       1

loop_
  _space_group_symop_operation_xyz
  'x, y, z'

loop_
  _atom_site_type_symbol
  _atom_site_label
  _atom_site_symmetry_multiplicity
  _atom_site_fract_x
  _atom_site_fract_y
  _atom_site_fract_z
  _atom_site_occupancy
  O   O1        1.0  0.66400  0.33600  0.00677  1.0000
  O   O2        1.0  0.83600  0.16400  0.49300  1.0000
  O   O3        1.0  0.16400  0.83600  0.50700  1.0000
  O   O4        1.0  0.33600  0.66400  0.99300  1.0000
  Sr  Sr1       1.0  0.57200  0.75000  0.25000  1.0000
  Sr  Sr2       1.0  0.92800  0.42800  0.25000  1.0000
  Sr  Sr3       1.0  0.25000  0.07160  0.25000  1.0000
  Sr  Sr4       1.0  0.75000  0.92800  0.75000  1.0000
  Sr  Sr5       1.0  0.07160  0.57200  0.75000  1.0000
  Sr  Sr6       1.0  0.42800  0.25000  0.75000  1.0000
