data_image0
_chemical_formula_structural       N4Sr6
_chemical_formula_sum              "N4 Sr6"
_cell_length_a       6.61809
_cell_length_b       6.61809
_cell_length_c       7.0758
_cell_angle_alpha    117.882
_cell_angle_beta     62.1177
_cell_angle_gamma    120

_space_group_name_H-M_alt    "P 1"
_space_group_IT_number       1

loop_
  _space_group_symop_operation_xyz
  'x, y, z'

loop_
  _atom_site_type_symbol
  _atom_site_label
  _atom_site_symmetry_multiplicity
  _atom_site_fract_x
  _atom_site_fract_y
  _atom_site_fract_z
  _atom_site_occupancy
  N   N1        1.0  0.64700  0.35300  0.05810  1.0000
  N   N2        1.0  0.85300  0.14700  0.44200  1.0000
  N   N3        1.0  0.14700  0.85300  0.55800  1.0000
  N   N4        1.0  0.35300  0.64700  0.94200  1.0000
  Sr  Sr1       1.0  0.55000  0.75000  0.25000  1.0000
  Sr  Sr2       1.0  0.95000  0.45000  0.25000  1.0000
  Sr  Sr3       1.0  0.25000  0.05030  0.25000  1.0000
  Sr  Sr4       1.0  0.75000  0.95000  0.75000  1.0000
  Sr  Sr5       1.0  0.05030  0.55000  0.75000  1.0000
  Sr  Sr6       1.0  0.45000  0.25000  0.75000  1.0000
