data_image0
_chemical_formula_structural       N4V6
_chemical_formula_sum              "N4 V6"
_cell_length_a       4.87541
_cell_length_b       4.87541
_cell_length_c       5.52614
_cell_angle_alpha    116.176
_cell_angle_beta     63.8245
_cell_angle_gamma    120

_space_group_name_H-M_alt    "P 1"
_space_group_IT_number       1

loop_
  _space_group_symop_operation_xyz
  'x, y, z'

loop_
  _atom_site_type_symbol
  _atom_site_label
  _atom_site_symmetry_multiplicity
  _atom_site_fract_x
  _atom_site_fract_y
  _atom_site_fract_z
  _atom_site_occupancy
  N   N1        1.0  0.65800  0.34200  0.02490  1.0000
  N   N2        1.0  0.84200  0.15800  0.47500  1.0000
  N   N3        1.0  0.15800  0.84200  0.52500  1.0000
  N   N4        1.0  0.34200  0.65800  0.97500  1.0000
  V   V1        1.0  0.57200  0.75000  0.25000  1.0000
  V   V2        1.0  0.92800  0.42800  0.25000  1.0000
  V   V3        1.0  0.25000  0.07170  0.25000  1.0000
  V   V4        1.0  0.75000  0.92800  0.75000  1.0000
  V   V5        1.0  0.07170  0.57200  0.75000  1.0000
  V   V6        1.0  0.42800  0.25000  0.75000  1.0000
