data_image0
_chemical_formula_structural       N4Sb6
_chemical_formula_sum              "N4 Sb6"
_cell_length_a       5.73227
_cell_length_b       5.73227
_cell_length_c       7.22519
_cell_angle_alpha    113.371
_cell_angle_beta     66.6288
_cell_angle_gamma    120

_space_group_name_H-M_alt    "P 1"
_space_group_IT_number       1

loop_
  _space_group_symop_operation_xyz
  'x, y, z'

loop_
  _atom_site_type_symbol
  _atom_site_label
  _atom_site_symmetry_multiplicity
  _atom_site_fract_x
  _atom_site_fract_y
  _atom_site_fract_z
  _atom_site_occupancy
  N   N1        1.0  0.32100  0.67900  0.03790  1.0000
  N   N2        1.0  0.17900  0.82100  0.46200  1.0000
  N   N3        1.0  0.82100  0.17900  0.53800  1.0000
  N   N4        1.0  0.67900  0.32100  0.96200  1.0000
  Sb  Sb1       1.0  0.93100  0.43100  0.25000  1.0000
  Sb  Sb2       1.0  0.56900  0.75000  0.25000  1.0000
  Sb  Sb3       1.0  0.25000  0.06880  0.25000  1.0000
  Sb  Sb4       1.0  0.75000  0.93100  0.75000  1.0000
  Sb  Sb5       1.0  0.43100  0.25000  0.75000  1.0000
  Sb  Sb6       1.0  0.06880  0.56900  0.75000  1.0000
