data_image0
_chemical_formula_structural       Eu4F6
_chemical_formula_sum              "Eu4 F6"
_cell_length_a       6.10966
_cell_length_b       6.10966
_cell_length_c       6.11773
_cell_angle_alpha    119.956
_cell_angle_beta     60.0436
_cell_angle_gamma    120

_space_group_name_H-M_alt    "P 1"
_space_group_IT_number       1

loop_
  _space_group_symop_operation_xyz
  'x, y, z'

loop_
  _atom_site_type_symbol
  _atom_site_label
  _atom_site_symmetry_multiplicity
  _atom_site_fract_x
  _atom_site_fract_y
  _atom_site_fract_z
  _atom_site_occupancy
  Eu  Eu1       1.0  0.63300  0.36700  0.10200  1.0000
  Eu  Eu2       1.0  0.86700  0.13300  0.39800  1.0000
  Eu  Eu3       1.0  0.13300  0.86700  0.60200  1.0000
  Eu  Eu4       1.0  0.36700  0.63300  0.89800  1.0000
  F   F1        1.0  0.98200  0.48200  0.25000  1.0000
  F   F2        1.0  0.51800  0.75000  0.25000  1.0000
  F   F3        1.0  0.25000  0.01790  0.25000  1.0000
  F   F4        1.0  0.75000  0.98200  0.75000  1.0000
  F   F5        1.0  0.48200  0.25000  0.75000  1.0000
  F   F6        1.0  0.01790  0.51800  0.75000  1.0000
