data_image0
_chemical_formula_structural       O4Tm6
_chemical_formula_sum              "O4 Tm6"
_cell_length_a       5.89748
_cell_length_b       5.89748
_cell_length_c       6.42979
_cell_angle_alpha    117.297
_cell_angle_beta     62.7028
_cell_angle_gamma    120

_space_group_name_H-M_alt    "P 1"
_space_group_IT_number       1

loop_
  _space_group_symop_operation_xyz
  'x, y, z'

loop_
  _atom_site_type_symbol
  _atom_site_label
  _atom_site_symmetry_multiplicity
  _atom_site_fract_x
  _atom_site_fract_y
  _atom_site_fract_z
  _atom_site_occupancy
  O   O1        1.0  0.66600  0.33400  0.00296  1.0000
  O   O2        1.0  0.83400  0.16600  0.49700  1.0000
  O   O3        1.0  0.16600  0.83400  0.50300  1.0000
  O   O4        1.0  0.33400  0.66600  0.99700  1.0000
  Tm  Tm1       1.0  0.92300  0.42300  0.25000  1.0000
  Tm  Tm2       1.0  0.57700  0.75000  0.25000  1.0000
  Tm  Tm3       1.0  0.25000  0.07720  0.25000  1.0000
  Tm  Tm4       1.0  0.75000  0.92300  0.75000  1.0000
  Tm  Tm5       1.0  0.42300  0.25000  0.75000  1.0000
  Tm  Tm6       1.0  0.07710  0.57700  0.75000  1.0000
