data_image0
_chemical_formula_structural       F4S6
_chemical_formula_sum              "F4 S6"
_cell_length_a       5.66358
_cell_length_b       5.66358
_cell_length_c       6.41017
_cell_angle_alpha    116.217
_cell_angle_beta     63.7834
_cell_angle_gamma    120

_space_group_name_H-M_alt    "P 1"
_space_group_IT_number       1

loop_
  _space_group_symop_operation_xyz
  'x, y, z'

loop_
  _atom_site_type_symbol
  _atom_site_label
  _atom_site_symmetry_multiplicity
  _atom_site_fract_x
  _atom_site_fract_y
  _atom_site_fract_z
  _atom_site_occupancy
  F   F1        1.0  0.91800  0.08200  0.24600  1.0000
  F   F2        1.0  0.58200  0.41800  0.25400  1.0000
  F   F3        1.0  0.41800  0.58200  0.74600  1.0000
  F   F4        1.0  0.08200  0.91800  0.75400  1.0000
  S   S1        1.0  0.25000  0.96100  0.25000  1.0000
  S   S2        1.0  0.46100  0.75000  0.25000  1.0000
  S   S3        1.0  0.03860  0.53900  0.25000  1.0000
  S   S4        1.0  0.96100  0.46100  0.75000  1.0000
  S   S5        1.0  0.53900  0.25000  0.75000  1.0000
  S   S6        1.0  0.75000  0.03860  0.75000  1.0000
