data_image0
_chemical_formula_structural       N4Re6
_chemical_formula_sum              "N4 Re6"
_cell_length_a       4.99298
_cell_length_b       4.99297
_cell_length_c       5.94978
_cell_angle_alpha    114.809
_cell_angle_beta     65.1911
_cell_angle_gamma    120

_space_group_name_H-M_alt    "P 1"
_space_group_IT_number       1

loop_
  _space_group_symop_operation_xyz
  'x, y, z'

loop_
  _atom_site_type_symbol
  _atom_site_label
  _atom_site_symmetry_multiplicity
  _atom_site_fract_x
  _atom_site_fract_y
  _atom_site_fract_z
  _atom_site_occupancy
  N   N1        1.0  0.66600  0.33400  0.00063  1.0000
  N   N2        1.0  0.83400  0.16600  0.49900  1.0000
  N   N3        1.0  0.16600  0.83400  0.50100  1.0000
  N   N4        1.0  0.33400  0.66600  0.99900  1.0000
  Re  Re1       1.0  0.25000  0.10900  0.25000  1.0000
  Re  Re2       1.0  0.89100  0.39100  0.25000  1.0000
  Re  Re3       1.0  0.60900  0.75000  0.25000  1.0000
  Re  Re4       1.0  0.39100  0.25000  0.75000  1.0000
  Re  Re5       1.0  0.10900  0.60900  0.75000  1.0000
  Re  Re6       1.0  0.75000  0.89100  0.75000  1.0000
