data_image0
_chemical_formula_structural       Eu4N6
_chemical_formula_sum              "Eu4 N6"
_cell_length_a       6.29697
_cell_length_b       6.29697
_cell_length_c       6.09577
_cell_angle_alpha    121.098
_cell_angle_beta     58.902
_cell_angle_gamma    120

_space_group_name_H-M_alt    "P 1"
_space_group_IT_number       1

loop_
  _space_group_symop_operation_xyz
  'x, y, z'

loop_
  _atom_site_type_symbol
  _atom_site_label
  _atom_site_symmetry_multiplicity
  _atom_site_fract_x
  _atom_site_fract_y
  _atom_site_fract_z
  _atom_site_occupancy
  Eu  Eu1       1.0  0.62200  0.37800  0.13300  1.0000
  Eu  Eu2       1.0  0.87800  0.12200  0.36700  1.0000
  Eu  Eu3       1.0  0.12200  0.87800  0.63300  1.0000
  Eu  Eu4       1.0  0.37800  0.62200  0.86700  1.0000
  N   N1        1.0  0.99300  0.49300  0.25000  1.0000
  N   N2        1.0  0.50700  0.75000  0.25000  1.0000
  N   N3        1.0  0.25000  0.00732  0.25000  1.0000
  N   N4        1.0  0.75000  0.99300  0.75000  1.0000
  N   N5        1.0  0.49300  0.25000  0.75000  1.0000
  N   N6        1.0  0.00732  0.50700  0.75000  1.0000
