data_image0
_chemical_formula_structural       Mn4N6
_chemical_formula_sum              "Mn4 N6"
_cell_length_a       4.64323
_cell_length_b       4.64323
_cell_length_c       5.22838
_cell_angle_alpha    116.362
_cell_angle_beta     63.638
_cell_angle_gamma    120

_space_group_name_H-M_alt    "P 1"
_space_group_IT_number       1

loop_
  _space_group_symop_operation_xyz
  'x, y, z'

loop_
  _atom_site_type_symbol
  _atom_site_label
  _atom_site_symmetry_multiplicity
  _atom_site_fract_x
  _atom_site_fract_y
  _atom_site_fract_z
  _atom_site_occupancy
  Mn  Mn1       1.0  0.65800  0.34200  0.02710  1.0000
  Mn  Mn2       1.0  0.84200  0.15800  0.47300  1.0000
  Mn  Mn3       1.0  0.15800  0.84200  0.52700  1.0000
  Mn  Mn4       1.0  0.34200  0.65800  0.97300  1.0000
  N   N1        1.0  0.25000  0.09530  0.25000  1.0000
  N   N2        1.0  0.90500  0.40500  0.25000  1.0000
  N   N3        1.0  0.59500  0.75000  0.25000  1.0000
  N   N4        1.0  0.40500  0.25000  0.75000  1.0000
  N   N5        1.0  0.09530  0.59500  0.75000  1.0000
  N   N6        1.0  0.75000  0.90500  0.75000  1.0000
