data_image0
_chemical_formula_structural       Ru4S6
_chemical_formula_sum              "Ru4 S6"
_cell_length_a       5.84859
_cell_length_b       5.84859
_cell_length_c       6.49156
_cell_angle_alpha    116.774
_cell_angle_beta     63.2257
_cell_angle_gamma    120

_space_group_name_H-M_alt    "P 1"
_space_group_IT_number       1

loop_
  _space_group_symop_operation_xyz
  'x, y, z'

loop_
  _atom_site_type_symbol
  _atom_site_label
  _atom_site_symmetry_multiplicity
  _atom_site_fract_x
  _atom_site_fract_y
  _atom_site_fract_z
  _atom_site_occupancy
  Ru  Ru1       1.0  0.64700  0.35300  0.06050  1.0000
  Ru  Ru2       1.0  0.85300  0.14700  0.44000  1.0000
  Ru  Ru3       1.0  0.14700  0.85300  0.56000  1.0000
  Ru  Ru4       1.0  0.35300  0.64700  0.94000  1.0000
  S   S1        1.0  0.55700  0.75000  0.25000  1.0000
  S   S2        1.0  0.94300  0.44300  0.25000  1.0000
  S   S3        1.0  0.25000  0.05680  0.25000  1.0000
  S   S4        1.0  0.75000  0.94300  0.75000  1.0000
  S   S5        1.0  0.05680  0.55700  0.75000  1.0000
  S   S6        1.0  0.44300  0.25000  0.75000  1.0000
