data_image0
_chemical_formula_structural       I4O6
_chemical_formula_sum              "I4 O6"
_cell_length_a       5.71763
_cell_length_b       5.71763
_cell_length_c       6.88126
_cell_angle_alpha    114.548
_cell_angle_beta     65.4524
_cell_angle_gamma    120

_space_group_name_H-M_alt    "P 1"
_space_group_IT_number       1

loop_
  _space_group_symop_operation_xyz
  'x, y, z'

loop_
  _atom_site_type_symbol
  _atom_site_label
  _atom_site_symmetry_multiplicity
  _atom_site_fract_x
  _atom_site_fract_y
  _atom_site_fract_z
  _atom_site_occupancy
  I   I1        1.0  0.64900  0.35100  0.05160  1.0000
  I   I2        1.0  0.85100  0.14900  0.44800  1.0000
  I   I3        1.0  0.14900  0.85100  0.55200  1.0000
  I   I4        1.0  0.35100  0.64900  0.94800  1.0000
  O   O1        1.0  0.25000  0.14000  0.25000  1.0000
  O   O2        1.0  0.64000  0.75000  0.25000  1.0000
  O   O3        1.0  0.86000  0.36000  0.25000  1.0000
  O   O4        1.0  0.14000  0.64000  0.75000  1.0000
  O   O5        1.0  0.36000  0.25000  0.75000  1.0000
  O   O6        1.0  0.75000  0.86000  0.75000  1.0000
