data_image0
_chemical_formula_structural       Br4Np6
_chemical_formula_sum              "Br4 Np6"
_cell_length_a       5.64721
_cell_length_b       5.6472
_cell_length_c       9.53539
_cell_angle_alpha    107.225
_cell_angle_beta     72.7754
_cell_angle_gamma    120

_space_group_name_H-M_alt    "P 1"
_space_group_IT_number       1

loop_
  _space_group_symop_operation_xyz
  'x, y, z'

loop_
  _atom_site_type_symbol
  _atom_site_label
  _atom_site_symmetry_multiplicity
  _atom_site_fract_x
  _atom_site_fract_y
  _atom_site_fract_z
  _atom_site_occupancy
  Br  Br1       1.0  0.32500  0.67500  0.02460  1.0000
  Br  Br2       1.0  0.17500  0.82500  0.47500  1.0000
  Br  Br3       1.0  0.82500  0.17500  0.52500  1.0000
  Br  Br4       1.0  0.67500  0.32500  0.97500  1.0000
  Np  Np1       1.0  0.25000  0.14800  0.25000  1.0000
  Np  Np2       1.0  0.85200  0.35200  0.25000  1.0000
  Np  Np3       1.0  0.64800  0.75000  0.25000  1.0000
  Np  Np4       1.0  0.35200  0.25000  0.75000  1.0000
  Np  Np5       1.0  0.14800  0.64800  0.75000  1.0000
  Np  Np6       1.0  0.75000  0.85200  0.75000  1.0000
