data_image0
_chemical_formula_structural       N4W6
_chemical_formula_sum              "N4 W6"
_cell_length_a       5.03939
_cell_length_b       5.03939
_cell_length_c       6.01846
_cell_angle_alpha    114.75
_cell_angle_beta     65.2499
_cell_angle_gamma    120

_space_group_name_H-M_alt    "P 1"
_space_group_IT_number       1

loop_
  _space_group_symop_operation_xyz
  'x, y, z'

loop_
  _atom_site_type_symbol
  _atom_site_label
  _atom_site_symmetry_multiplicity
  _atom_site_fract_x
  _atom_site_fract_y
  _atom_site_fract_z
  _atom_site_occupancy
  N   N1        1.0  0.66400  0.33600  0.00799  1.0000
  N   N2        1.0  0.83600  0.16400  0.49200  1.0000
  N   N3        1.0  0.16400  0.83600  0.50800  1.0000
  N   N4        1.0  0.33600  0.66400  0.99200  1.0000
  W   W1        1.0  0.58900  0.75000  0.25000  1.0000
  W   W2        1.0  0.91100  0.41100  0.25000  1.0000
  W   W3        1.0  0.25000  0.08910  0.25000  1.0000
  W   W4        1.0  0.75000  0.91100  0.75000  1.0000
  W   W5        1.0  0.08910  0.58900  0.75000  1.0000
  W   W6        1.0  0.41100  0.25000  0.75000  1.0000
