data_image0
_chemical_formula_structural       F4Hg6
_chemical_formula_sum              "F4 Hg6"
_cell_length_a       7.14169
_cell_length_b       7.14169
_cell_length_c       5.87088
_cell_angle_alpha    127.462
_cell_angle_beta     52.5384
_cell_angle_gamma    120

_space_group_name_H-M_alt    "P 1"
_space_group_IT_number       1

loop_
  _space_group_symop_operation_xyz
  'x, y, z'

loop_
  _atom_site_type_symbol
  _atom_site_label
  _atom_site_symmetry_multiplicity
  _atom_site_fract_x
  _atom_site_fract_y
  _atom_site_fract_z
  _atom_site_occupancy
  F   F1        1.0  0.61100  0.38900  0.16700  1.0000
  F   F2        1.0  0.88900  0.11100  0.33300  1.0000
  F   F3        1.0  0.11100  0.88900  0.66700  1.0000
  F   F4        1.0  0.38900  0.61100  0.83300  1.0000
  Hg  Hg1       1.0  0.55100  0.75000  0.25000  1.0000
  Hg  Hg2       1.0  0.25000  0.05150  0.25000  1.0000
  Hg  Hg3       1.0  0.94900  0.44900  0.25000  1.0000
  Hg  Hg4       1.0  0.05150  0.55100  0.75000  1.0000
  Hg  Hg5       1.0  0.75000  0.94900  0.75000  1.0000
  Hg  Hg6       1.0  0.44900  0.25000  0.75000  1.0000
