data_image0
_chemical_formula_structural       F4K6
_chemical_formula_sum              "F4 K6"
_cell_length_a       6.61377
_cell_length_b       6.61377
_cell_length_c       7.48475
_cell_angle_alpha    116.22
_cell_angle_beta     63.7802
_cell_angle_gamma    120

_space_group_name_H-M_alt    "P 1"
_space_group_IT_number       1

loop_
  _space_group_symop_operation_xyz
  'x, y, z'

loop_
  _atom_site_type_symbol
  _atom_site_label
  _atom_site_symmetry_multiplicity
  _atom_site_fract_x
  _atom_site_fract_y
  _atom_site_fract_z
  _atom_site_occupancy
  F   F1        1.0  0.66200  0.33800  0.01300  1.0000
  F   F2        1.0  0.83800  0.16200  0.48700  1.0000
  F   F3        1.0  0.16200  0.83800  0.51300  1.0000
  F   F4        1.0  0.33800  0.66200  0.98700  1.0000
  K   K1        1.0  0.56700  0.75000  0.25000  1.0000
  K   K2        1.0  0.93300  0.43300  0.25000  1.0000
  K   K3        1.0  0.25000  0.06700  0.25000  1.0000
  K   K4        1.0  0.75000  0.93300  0.75000  1.0000
  K   K5        1.0  0.06700  0.56700  0.75000  1.0000
  K   K6        1.0  0.43300  0.25000  0.75000  1.0000
