data_image0
_chemical_formula_structural       B4S6
_chemical_formula_sum              "B4 S6"
_cell_length_a       5.45358
_cell_length_b       5.45358
_cell_length_c       8.34006
_cell_angle_alpha    109.084
_cell_angle_beta     70.9162
_cell_angle_gamma    120

_space_group_name_H-M_alt    "P 1"
_space_group_IT_number       1

loop_
  _space_group_symop_operation_xyz
  'x, y, z'

loop_
  _atom_site_type_symbol
  _atom_site_label
  _atom_site_symmetry_multiplicity
  _atom_site_fract_x
  _atom_site_fract_y
  _atom_site_fract_z
  _atom_site_occupancy
  B   B1        1.0  0.58400  0.41600  0.24900  1.0000
  B   B2        1.0  0.91600  0.08360  0.25100  1.0000
  B   B3        1.0  0.08360  0.91600  0.74900  1.0000
  B   B4        1.0  0.41600  0.58400  0.75100  1.0000
  S   S1        1.0  0.91900  0.41900  0.25000  1.0000
  S   S2        1.0  0.25000  0.08130  0.25000  1.0000
  S   S3        1.0  0.58100  0.75000  0.25000  1.0000
  S   S4        1.0  0.41900  0.25000  0.75000  1.0000
  S   S5        1.0  0.75000  0.91900  0.75000  1.0000
  S   S6        1.0  0.08130  0.58100  0.75000  1.0000
