data_image0
_chemical_formula_structural       O4Th6
_chemical_formula_sum              "O4 Th6"
_cell_length_a       6.45091
_cell_length_b       6.45091
_cell_length_c       6.9912
_cell_angle_alpha    117.475
_cell_angle_beta     62.5251
_cell_angle_gamma    120

_space_group_name_H-M_alt    "P 1"
_space_group_IT_number       1

loop_
  _space_group_symop_operation_xyz
  'x, y, z'

loop_
  _atom_site_type_symbol
  _atom_site_label
  _atom_site_symmetry_multiplicity
  _atom_site_fract_x
  _atom_site_fract_y
  _atom_site_fract_z
  _atom_site_occupancy
  O   O1        1.0  0.66100  0.33900  0.01700  1.0000
  O   O2        1.0  0.83900  0.16100  0.48300  1.0000
  O   O3        1.0  0.16100  0.83900  0.51700  1.0000
  O   O4        1.0  0.33900  0.66100  0.98300  1.0000
  Th  Th1       1.0  0.58200  0.75000  0.25000  1.0000
  Th  Th2       1.0  0.91800  0.41800  0.25000  1.0000
  Th  Th3       1.0  0.25000  0.08230  0.25000  1.0000
  Th  Th4       1.0  0.75000  0.91800  0.75000  1.0000
  Th  Th5       1.0  0.08230  0.58200  0.75000  1.0000
  Th  Th6       1.0  0.41800  0.25000  0.75000  1.0000
