data_image0
_chemical_formula_structural       KNp2Se6
_chemical_formula_sum              "K1 Np2 Se6"
_cell_length_a       4.07159
_cell_length_b       5.53017
_cell_length_c       11.3862
_cell_angle_alpha    104.055
_cell_angle_beta     100.3
_cell_angle_gamma    90

_space_group_name_H-M_alt    "P 1"
_space_group_IT_number       1

loop_
  _space_group_symop_operation_xyz
  'x, y, z'

loop_
  _atom_site_type_symbol
  _atom_site_label
  _atom_site_symmetry_multiplicity
  _atom_site_fract_x
  _atom_site_fract_y
  _atom_site_fract_z
  _atom_site_occupancy
  K   K1        1.0  0.00000  0.00000  0.00000  1.0000
  Np  Np1       1.0  0.18100  0.68100  0.36200  1.0000
  Np  Np2       1.0  0.81900  0.31900  0.63800  1.0000
  Se  Se1       1.0  0.60600  0.36300  0.21300  1.0000
  Se  Se2       1.0  0.60600  0.85000  0.21300  1.0000
  Se  Se3       1.0  0.22500  0.22500  0.45100  1.0000
  Se  Se4       1.0  0.77500  0.77500  0.54900  1.0000
  Se  Se5       1.0  0.39400  0.15000  0.78700  1.0000
  Se  Se6       1.0  0.39400  0.63700  0.78700  1.0000
