data_image0
_chemical_formula_structural       Cl4Rb6
_chemical_formula_sum              "Cl4 Rb6"
_cell_length_a       8.18852
_cell_length_b       8.18852
_cell_length_c       9.28814
_cell_angle_alpha    116.155
_cell_angle_beta     63.8447
_cell_angle_gamma    120

_space_group_name_H-M_alt    "P 1"
_space_group_IT_number       1

loop_
  _space_group_symop_operation_xyz
  'x, y, z'

loop_
  _atom_site_type_symbol
  _atom_site_label
  _atom_site_symmetry_multiplicity
  _atom_site_fract_x
  _atom_site_fract_y
  _atom_site_fract_z
  _atom_site_occupancy
  Cl  Cl1       1.0  0.66200  0.33800  0.01500  1.0000
  Cl  Cl2       1.0  0.83800  0.16200  0.48500  1.0000
  Cl  Cl3       1.0  0.16200  0.83800  0.51500  1.0000
  Cl  Cl4       1.0  0.33800  0.66200  0.98500  1.0000
  Rb  Rb1       1.0  0.56800  0.75000  0.25000  1.0000
  Rb  Rb2       1.0  0.93200  0.43200  0.25000  1.0000
  Rb  Rb3       1.0  0.25000  0.06850  0.25000  1.0000
  Rb  Rb4       1.0  0.75000  0.93200  0.75000  1.0000
  Rb  Rb5       1.0  0.06850  0.56800  0.75000  1.0000
  Rb  Rb6       1.0  0.43200  0.25000  0.75000  1.0000
