data_image0
_chemical_formula_structural       N4S6
_chemical_formula_sum              "N4 S6"
_cell_length_a       5.05351
_cell_length_b       5.05351
_cell_length_c       7.46361
_cell_angle_alpha    109.788
_cell_angle_beta     70.2119
_cell_angle_gamma    120

_space_group_name_H-M_alt    "P 1"
_space_group_IT_number       1

loop_
  _space_group_symop_operation_xyz
  'x, y, z'

loop_
  _atom_site_type_symbol
  _atom_site_label
  _atom_site_symmetry_multiplicity
  _atom_site_fract_x
  _atom_site_fract_y
  _atom_site_fract_z
  _atom_site_occupancy
  N   N1        1.0  0.60100  0.39900  0.19700  1.0000
  N   N2        1.0  0.89900  0.10100  0.30300  1.0000
  N   N3        1.0  0.10100  0.89900  0.69700  1.0000
  N   N4        1.0  0.39900  0.60100  0.80300  1.0000
  S   S1        1.0  0.95800  0.45800  0.25000  1.0000
  S   S2        1.0  0.25000  0.04230  0.25000  1.0000
  S   S3        1.0  0.54200  0.75000  0.25000  1.0000
  S   S4        1.0  0.45800  0.25000  0.75000  1.0000
  S   S5        1.0  0.75000  0.95800  0.75000  1.0000
  S   S6        1.0  0.04230  0.54200  0.75000  1.0000
