data_image0
_chemical_formula_structural       Er4F6
_chemical_formula_sum              "Er4 F6"
_cell_length_a       6.05596
_cell_length_b       6.05596
_cell_length_c       5.95319
_cell_angle_alpha    120.573
_cell_angle_beta     59.4273
_cell_angle_gamma    120

_space_group_name_H-M_alt    "P 1"
_space_group_IT_number       1

loop_
  _space_group_symop_operation_xyz
  'x, y, z'

loop_
  _atom_site_type_symbol
  _atom_site_label
  _atom_site_symmetry_multiplicity
  _atom_site_fract_x
  _atom_site_fract_y
  _atom_site_fract_z
  _atom_site_occupancy
  Er  Er1       1.0  0.62400  0.37600  0.12800  1.0000
  Er  Er2       1.0  0.87600  0.12400  0.37200  1.0000
  Er  Er3       1.0  0.12400  0.87600  0.62800  1.0000
  Er  Er4       1.0  0.37600  0.62400  0.87200  1.0000
  F   F1        1.0  0.49600  0.75000  0.25000  1.0000
  F   F2        1.0  0.00408  0.50400  0.25000  1.0000
  F   F3        1.0  0.25000  0.99600  0.25000  1.0000
  F   F4        1.0  0.75000  0.00408  0.75000  1.0000
  F   F5        1.0  0.99600  0.49600  0.75000  1.0000
  F   F6        1.0  0.50400  0.25000  0.75000  1.0000
