data_image0
_chemical_formula_structural       I4P6
_chemical_formula_sum              "I4 P6"
_cell_length_a       7.19741
_cell_length_b       7.19741
_cell_length_c       9.95725
_cell_angle_alpha    111.187
_cell_angle_beta     68.8128
_cell_angle_gamma    120

_space_group_name_H-M_alt    "P 1"
_space_group_IT_number       1

loop_
  _space_group_symop_operation_xyz
  'x, y, z'

loop_
  _atom_site_type_symbol
  _atom_site_label
  _atom_site_symmetry_multiplicity
  _atom_site_fract_x
  _atom_site_fract_y
  _atom_site_fract_z
  _atom_site_occupancy
  I   I1        1.0  0.65500  0.34500  0.03590  1.0000
  I   I2        1.0  0.84500  0.15500  0.46400  1.0000
  I   I3        1.0  0.15500  0.84500  0.53600  1.0000
  I   I4        1.0  0.34500  0.65500  0.96400  1.0000
  P   P1        1.0  0.07340  0.57300  0.25000  1.0000
  P   P2        1.0  0.42700  0.75000  0.25000  1.0000
  P   P3        1.0  0.25000  0.92700  0.25000  1.0000
  P   P4        1.0  0.75000  0.07340  0.75000  1.0000
  P   P5        1.0  0.57300  0.25000  0.75000  1.0000
  P   P6        1.0  0.92700  0.42700  0.75000  1.0000
