data_image0
_chemical_formula_structural       Cl4Ni6
_chemical_formula_sum              "Cl4 Ni6"
_cell_length_a       5.75679
_cell_length_b       5.75679
_cell_length_c       6.13945
_cell_angle_alpha    117.959
_cell_angle_beta     62.0413
_cell_angle_gamma    120

_space_group_name_H-M_alt    "P 1"
_space_group_IT_number       1

loop_
  _space_group_symop_operation_xyz
  'x, y, z'

loop_
  _atom_site_type_symbol
  _atom_site_label
  _atom_site_symmetry_multiplicity
  _atom_site_fract_x
  _atom_site_fract_y
  _atom_site_fract_z
  _atom_site_occupancy
  Cl  Cl1       1.0  0.61000  0.39000  0.17000  1.0000
  Cl  Cl2       1.0  0.89000  0.11000  0.33000  1.0000
  Cl  Cl3       1.0  0.11000  0.89000  0.67000  1.0000
  Cl  Cl4       1.0  0.39000  0.61000  0.83000  1.0000
  Ni  Ni1       1.0  0.48500  0.75000  0.25000  1.0000
  Ni  Ni2       1.0  0.25000  0.98500  0.25000  1.0000
  Ni  Ni3       1.0  0.01470  0.51500  0.25000  1.0000
  Ni  Ni4       1.0  0.98500  0.48500  0.75000  1.0000
  Ni  Ni5       1.0  0.75000  0.01470  0.75000  1.0000
  Ni  Ni6       1.0  0.51500  0.25000  0.75000  1.0000
