data_image0
_chemical_formula_structural       Cu3Gd3In3
_chemical_formula_sum              "Cu3 Gd3 In3"
_cell_length_a       7.55412
_cell_length_b       7.55411
_cell_length_c       3.94521
_cell_angle_alpha    90
_cell_angle_beta     90
_cell_angle_gamma    119.995

_space_group_name_H-M_alt    "P 1"
_space_group_IT_number       1

loop_
  _space_group_symop_operation_xyz
  'x, y, z'

loop_
  _atom_site_type_symbol
  _atom_site_label
  _atom_site_symmetry_multiplicity
  _atom_site_fract_x
  _atom_site_fract_y
  _atom_site_fract_z
  _atom_site_occupancy
  Cu  Cu1       1.0  0.66700  0.33300  0.00000  1.0000
  Cu  Cu2       1.0  0.33300  0.66700  0.00000  1.0000
  Cu  Cu3       1.0  0.00000  0.00000  0.50000  1.0000
  Gd  Gd1       1.0  0.58900  0.00004  0.50000  1.0000
  Gd  Gd2       1.0  0.41100  0.41100  0.50000  1.0000
  Gd  Gd3       1.0  0.00004  0.58900  0.50000  1.0000
  In  In1       1.0  0.25300  0.00004  0.00000  1.0000
  In  In2       1.0  0.00004  0.25300  0.00000  1.0000
  In  In3       1.0  0.74700  0.74700  0.00000  1.0000
