data_image0
_chemical_formula_structural       I6Pb2Tl2
_chemical_formula_sum              "I6 Pb2 Tl2"
_cell_length_a       4.66632
_cell_length_b       7.87226
_cell_length_c       11.9594
_cell_angle_alpha    90
_cell_angle_beta     90
_cell_angle_gamma    72.7599

_space_group_name_H-M_alt    "P 1"
_space_group_IT_number       1

loop_
  _space_group_symop_operation_xyz
  'x, y, z'

loop_
  _atom_site_type_symbol
  _atom_site_label
  _atom_site_symmetry_multiplicity
  _atom_site_fract_x
  _atom_site_fract_y
  _atom_site_fract_z
  _atom_site_occupancy
  I   I1        1.0  0.35600  0.28800  0.05660  1.0000
  I   I2        1.0  0.07770  0.84500  0.25000  1.0000
  I   I3        1.0  0.35600  0.28800  0.44300  1.0000
  I   I4        1.0  0.64400  0.71200  0.55700  1.0000
  I   I5        1.0  0.92200  0.15500  0.75000  1.0000
  I   I6        1.0  0.64400  0.71200  0.94300  1.0000
  Pb  Pb1       1.0  0.00000  0.00000  0.00000  1.0000
  Pb  Pb2       1.0  0.00000  0.00000  0.50000  1.0000
  Tl  Tl1       1.0  0.75100  0.49800  0.25000  1.0000
  Tl  Tl2       1.0  0.24900  0.50200  0.75000  1.0000
