data_image0
_chemical_formula_structural       F4N6
_chemical_formula_sum              "F4 N6"
_cell_length_a       5.808
_cell_length_b       5.808
_cell_length_c       5.17455
_cell_angle_alpha    124.139
_cell_angle_beta     55.8606
_cell_angle_gamma    120

_space_group_name_H-M_alt    "P 1"
_space_group_IT_number       1

loop_
  _space_group_symop_operation_xyz
  'x, y, z'

loop_
  _atom_site_type_symbol
  _atom_site_label
  _atom_site_symmetry_multiplicity
  _atom_site_fract_x
  _atom_site_fract_y
  _atom_site_fract_z
  _atom_site_occupancy
  F   F1        1.0  0.58400  0.41600  0.24800  1.0000
  F   F2        1.0  0.91600  0.08400  0.25200  1.0000
  F   F3        1.0  0.08400  0.91600  0.74800  1.0000
  F   F4        1.0  0.41600  0.58400  0.75200  1.0000
  N   N1        1.0  0.25000  0.88400  0.25000  1.0000
  N   N2        1.0  0.11600  0.61600  0.25000  1.0000
  N   N3        1.0  0.38400  0.75000  0.25000  1.0000
  N   N4        1.0  0.61600  0.25000  0.75000  1.0000
  N   N5        1.0  0.88400  0.38400  0.75000  1.0000
  N   N6        1.0  0.75000  0.11600  0.75000  1.0000
