data_image0
_chemical_formula_structural       Cl4Ti6
_chemical_formula_sum              "Cl4 Ti6"
_cell_length_a       5.44678
_cell_length_b       5.44678
_cell_length_c       7.21067
_cell_angle_alpha    112.191
_cell_angle_beta     67.8094
_cell_angle_gamma    120

_space_group_name_H-M_alt    "P 1"
_space_group_IT_number       1

loop_
  _space_group_symop_operation_xyz
  'x, y, z'

loop_
  _atom_site_type_symbol
  _atom_site_label
  _atom_site_symmetry_multiplicity
  _atom_site_fract_x
  _atom_site_fract_y
  _atom_site_fract_z
  _atom_site_occupancy
  Cl  Cl1       1.0  0.66600  0.33400  0.00079  1.0000
  Cl  Cl2       1.0  0.83400  0.16600  0.49900  1.0000
  Cl  Cl3       1.0  0.16600  0.83400  0.50100  1.0000
  Cl  Cl4       1.0  0.33400  0.66600  0.99900  1.0000
  Ti  Ti1       1.0  0.89900  0.39900  0.25000  1.0000
  Ti  Ti2       1.0  0.25000  0.10100  0.25000  1.0000
  Ti  Ti3       1.0  0.60100  0.75000  0.25000  1.0000
  Ti  Ti4       1.0  0.39900  0.25000  0.75000  1.0000
  Ti  Ti5       1.0  0.75000  0.89900  0.75000  1.0000
  Ti  Ti6       1.0  0.10100  0.60100  0.75000  1.0000
