data_image0
_chemical_formula_structural       O4Yb6
_chemical_formula_sum              "O4 Yb6"
_cell_length_a       5.75866
_cell_length_b       5.75865
_cell_length_c       6.62099
_cell_angle_alpha    115.778
_cell_angle_beta     64.2224
_cell_angle_gamma    120

_space_group_name_H-M_alt    "P 1"
_space_group_IT_number       1

loop_
  _space_group_symop_operation_xyz
  'x, y, z'

loop_
  _atom_site_type_symbol
  _atom_site_label
  _atom_site_symmetry_multiplicity
  _atom_site_fract_x
  _atom_site_fract_y
  _atom_site_fract_z
  _atom_site_occupancy
  O   O1        1.0  0.66400  0.33600  0.00748  1.0000
  O   O2        1.0  0.83600  0.16400  0.49300  1.0000
  O   O3        1.0  0.16400  0.83600  0.50700  1.0000
  O   O4        1.0  0.33600  0.66400  0.99300  1.0000
  Yb  Yb1       1.0  0.92800  0.42800  0.25000  1.0000
  Yb  Yb2       1.0  0.57200  0.75000  0.25000  1.0000
  Yb  Yb3       1.0  0.25000  0.07180  0.25000  1.0000
  Yb  Yb4       1.0  0.75000  0.92800  0.75000  1.0000
  Yb  Yb5       1.0  0.42800  0.25000  0.75000  1.0000
  Yb  Yb6       1.0  0.07180  0.57200  0.75000  1.0000
