data_image0
_chemical_formula_structural       Cs4F6
_chemical_formula_sum              "Cs4 F6"
_cell_length_a       7.1151
_cell_length_b       7.1151
_cell_length_c       6.95345
_cell_angle_alpha    120.772
_cell_angle_beta     59.228
_cell_angle_gamma    120

_space_group_name_H-M_alt    "P 1"
_space_group_IT_number       1

loop_
  _space_group_symop_operation_xyz
  'x, y, z'

loop_
  _atom_site_type_symbol
  _atom_site_label
  _atom_site_symmetry_multiplicity
  _atom_site_fract_x
  _atom_site_fract_y
  _atom_site_fract_z
  _atom_site_occupancy
  Cs  Cs1       1.0  0.62400  0.37600  0.12700  1.0000
  Cs  Cs2       1.0  0.87600  0.12400  0.37300  1.0000
  Cs  Cs3       1.0  0.12400  0.87600  0.62700  1.0000
  Cs  Cs4       1.0  0.37600  0.62400  0.87300  1.0000
  F   F1        1.0  0.25000  0.01990  0.25000  1.0000
  F   F2        1.0  0.52000  0.75000  0.25000  1.0000
  F   F3        1.0  0.98000  0.48000  0.25000  1.0000
  F   F4        1.0  0.01990  0.52000  0.75000  1.0000
  F   F5        1.0  0.48000  0.25000  0.75000  1.0000
  F   F6        1.0  0.75000  0.98000  0.75000  1.0000
