data_image0
_chemical_formula_structural       Ge4Nd2
_chemical_formula_sum              "Ge4 Nd2"
_cell_length_a       4.13519
_cell_length_b       4.13519
_cell_length_c       8.68193
_cell_angle_alpha    103.777
_cell_angle_beta     103.777
_cell_angle_gamma    90

_space_group_name_H-M_alt    "P 1"
_space_group_IT_number       1

loop_
  _space_group_symop_operation_xyz
  'x, y, z'

loop_
  _atom_site_type_symbol
  _atom_site_label
  _atom_site_symmetry_multiplicity
  _atom_site_fract_x
  _atom_site_fract_y
  _atom_site_fract_z
  _atom_site_occupancy
  Ge  Ge1       1.0  0.54600  0.29600  0.09130  1.0000
  Ge  Ge2       1.0  0.70400  0.45400  0.40900  1.0000
  Ge  Ge3       1.0  0.29600  0.54600  0.59100  1.0000
  Ge  Ge4       1.0  0.45400  0.70400  0.90900  1.0000
  Nd  Nd1       1.0  0.12500  0.87500  0.25000  1.0000
  Nd  Nd2       1.0  0.87500  0.12500  0.75000  1.0000
