data_image0
_chemical_formula_structural       Rb4S6
_chemical_formula_sum              "Rb4 S6"
_cell_length_a       7.14883
_cell_length_b       7.14883
_cell_length_c       9.94302
_cell_angle_alpha    111.069
_cell_angle_beta     68.9311
_cell_angle_gamma    120

_space_group_name_H-M_alt    "P 1"
_space_group_IT_number       1

loop_
  _space_group_symop_operation_xyz
  'x, y, z'

loop_
  _atom_site_type_symbol
  _atom_site_label
  _atom_site_symmetry_multiplicity
  _atom_site_fract_x
  _atom_site_fract_y
  _atom_site_fract_z
  _atom_site_occupancy
  Rb  Rb1       1.0  0.63700  0.36300  0.08970  1.0000
  Rb  Rb2       1.0  0.86300  0.13700  0.41000  1.0000
  Rb  Rb3       1.0  0.13700  0.86300  0.59000  1.0000
  Rb  Rb4       1.0  0.36300  0.63700  0.91000  1.0000
  S   S1        1.0  0.05640  0.55600  0.25000  1.0000
  S   S2        1.0  0.44400  0.75000  0.25000  1.0000
  S   S3        1.0  0.25000  0.94400  0.25000  1.0000
  S   S4        1.0  0.75000  0.05640  0.75000  1.0000
  S   S5        1.0  0.55600  0.25000  0.75000  1.0000
  S   S6        1.0  0.94400  0.44400  0.75000  1.0000
