data_image0
_chemical_formula_structural       F4H6
_chemical_formula_sum              "F4 H6"
_cell_length_a       4.66892
_cell_length_b       4.24661
_cell_length_c       5.02882
_cell_angle_alpha    122.403
_cell_angle_beta     62.7045
_cell_angle_gamma    123.807

_space_group_name_H-M_alt    "P 1"
_space_group_IT_number       1

loop_
  _space_group_symop_operation_xyz
  'x, y, z'

loop_
  _atom_site_type_symbol
  _atom_site_label
  _atom_site_symmetry_multiplicity
  _atom_site_fract_x
  _atom_site_fract_y
  _atom_site_fract_z
  _atom_site_occupancy
  F   F1        1.0  0.77500  0.42600  0.09370  1.0000
  F   F2        1.0  0.76300  0.08830  0.35900  1.0000
  F   F3        1.0  0.02690  0.91000  0.63300  1.0000
  F   F4        1.0  0.44600  0.56000  0.90300  1.0000
  H   H1        1.0  0.76900  0.29300  0.21100  1.0000
  H   H2        1.0  0.75400  0.80400  0.25500  1.0000
  H   H3        1.0  0.27300  0.41800  0.43600  1.0000
  H   H4        1.0  0.30100  0.60800  0.58300  1.0000
  H   H5        1.0  0.20300  0.19100  0.74200  1.0000
  H   H6        1.0  0.68900  0.70100  0.78400  1.0000
