data_image0
_chemical_formula_structural       Fe2Sc4Si4
_chemical_formula_sum              "Fe2 Sc4 Si4"
_cell_length_a       3.98066
_cell_length_b       5.30402
_cell_length_c       8.52562
_cell_angle_alpha    92.4673
_cell_angle_beta     103.5
_cell_angle_gamma    67.9603

_space_group_name_H-M_alt    "P 1"
_space_group_IT_number       1

loop_
  _space_group_symop_operation_xyz
  'x, y, z'

loop_
  _atom_site_type_symbol
  _atom_site_label
  _atom_site_symmetry_multiplicity
  _atom_site_fract_x
  _atom_site_fract_y
  _atom_site_fract_z
  _atom_site_occupancy
  Fe  Fe1       1.0  0.14500  0.08420  0.37300  1.0000
  Fe  Fe2       1.0  0.85500  0.91600  0.62700  1.0000
  Sc  Sc1       1.0  0.42300  0.26300  0.10800  1.0000
  Sc  Sc2       1.0  0.82900  0.67100  0.32800  1.0000
  Sc  Sc3       1.0  0.17100  0.32900  0.67200  1.0000
  Sc  Sc4       1.0  0.57700  0.73700  0.89200  1.0000
  Si  Si1       1.0  0.13300  0.85900  0.12600  1.0000
  Si  Si2       1.0  0.58100  0.27300  0.43400  1.0000
  Si  Si3       1.0  0.41900  0.72700  0.56600  1.0000
  Si  Si4       1.0  0.86700  0.14100  0.87400  1.0000
