data_image0
_chemical_formula_structural       K4N6
_chemical_formula_sum              "K4 N6"
_cell_length_a       5.78859
_cell_length_b       5.7886
_cell_length_c       7.20154
_cell_angle_alpha    113.697
_cell_angle_beta     66.303
_cell_angle_gamma    120

_space_group_name_H-M_alt    "P 1"
_space_group_IT_number       1

loop_
  _space_group_symop_operation_xyz
  'x, y, z'

loop_
  _atom_site_type_symbol
  _atom_site_label
  _atom_site_symmetry_multiplicity
  _atom_site_fract_x
  _atom_site_fract_y
  _atom_site_fract_z
  _atom_site_occupancy
  K   K1        1.0  0.61200  0.38800  0.16400  1.0000
  K   K2        1.0  0.88800  0.11200  0.33600  1.0000
  K   K3        1.0  0.11200  0.88800  0.66400  1.0000
  K   K4        1.0  0.38800  0.61200  0.83600  1.0000
  N   N1        1.0  0.39400  0.89400  0.25000  1.0000
  N   N2        1.0  0.10600  0.75000  0.25000  1.0000
  N   N3        1.0  0.25000  0.60600  0.25000  1.0000
  N   N4        1.0  0.75000  0.39400  0.75000  1.0000
  N   N5        1.0  0.89400  0.25000  0.75000  1.0000
  N   N6        1.0  0.60600  0.10600  0.75000  1.0000
