data_image0
_chemical_formula_structural       C4N6
_chemical_formula_sum              "C4 N6"
_cell_length_a       3.82367
_cell_length_b       5.7229
_cell_length_c       6.95873
_cell_angle_alpha    119.579
_cell_angle_beta     46.9043
_cell_angle_gamma    125.823

_space_group_name_H-M_alt    "P 1"
_space_group_IT_number       1

loop_
  _space_group_symop_operation_xyz
  'x, y, z'

loop_
  _atom_site_type_symbol
  _atom_site_label
  _atom_site_symmetry_multiplicity
  _atom_site_fract_x
  _atom_site_fract_y
  _atom_site_fract_z
  _atom_site_occupancy
  C   C1        1.0  0.90800  0.49200  0.39000  1.0000
  C   C2        1.0  0.21400  0.73100  0.48700  1.0000
  C   C3        1.0  0.86100  0.78000  0.78100  1.0000
  C   C4        1.0  0.54900  0.93000  0.91300  1.0000
  N   N1        1.0  0.99800  0.78100  0.08430  1.0000
  N   N2        1.0  0.71900  0.85700  0.34200  1.0000
  N   N3        1.0  0.61000  0.28100  0.34500  1.0000
  N   N4        1.0  0.63000  0.32600  0.84400  1.0000
  N   N5        1.0  0.75700  0.21300  0.89300  1.0000
  N   N6        1.0  0.75300  0.61000  0.92100  1.0000
