data_image0
_chemical_formula_structural       F4Pa6
_chemical_formula_sum              "F4 Pa6"
_cell_length_a       6.0736
_cell_length_b       6.0736
_cell_length_c       6.74575
_cell_angle_alpha    116.755
_cell_angle_beta     63.2448
_cell_angle_gamma    120

_space_group_name_H-M_alt    "P 1"
_space_group_IT_number       1

loop_
  _space_group_symop_operation_xyz
  'x, y, z'

loop_
  _atom_site_type_symbol
  _atom_site_label
  _atom_site_symmetry_multiplicity
  _atom_site_fract_x
  _atom_site_fract_y
  _atom_site_fract_z
  _atom_site_occupancy
  F   F1        1.0  0.31900  0.68100  0.04330  1.0000
  F   F2        1.0  0.18100  0.81900  0.45700  1.0000
  F   F3        1.0  0.81900  0.18100  0.54300  1.0000
  F   F4        1.0  0.68100  0.31900  0.95700  1.0000
  Pa  Pa1       1.0  0.25000  0.11500  0.25000  1.0000
  Pa  Pa2       1.0  0.88500  0.38500  0.25000  1.0000
  Pa  Pa3       1.0  0.61500  0.75000  0.25000  1.0000
  Pa  Pa4       1.0  0.38500  0.25000  0.75000  1.0000
  Pa  Pa5       1.0  0.11500  0.61500  0.75000  1.0000
  Pa  Pa6       1.0  0.75000  0.88500  0.75000  1.0000
