data_image0
_chemical_formula_structural       F4Sr6
_chemical_formula_sum              "F4 Sr6"
_cell_length_a       6.91678
_cell_length_b       6.91678
_cell_length_c       7.43603
_cell_angle_alpha    117.716
_cell_angle_beta     62.2842
_cell_angle_gamma    120

_space_group_name_H-M_alt    "P 1"
_space_group_IT_number       1

loop_
  _space_group_symop_operation_xyz
  'x, y, z'

loop_
  _atom_site_type_symbol
  _atom_site_label
  _atom_site_symmetry_multiplicity
  _atom_site_fract_x
  _atom_site_fract_y
  _atom_site_fract_z
  _atom_site_occupancy
  F   F1        1.0  0.32400  0.67600  0.02860  1.0000
  F   F2        1.0  0.17600  0.82400  0.47100  1.0000
  F   F3        1.0  0.82400  0.17600  0.52900  1.0000
  F   F4        1.0  0.67600  0.32400  0.97100  1.0000
  Sr  Sr1       1.0  0.25000  0.06770  0.25000  1.0000
  Sr  Sr2       1.0  0.93200  0.43200  0.25000  1.0000
  Sr  Sr3       1.0  0.56800  0.75000  0.25000  1.0000
  Sr  Sr4       1.0  0.43200  0.25000  0.75000  1.0000
  Sr  Sr5       1.0  0.06770  0.56800  0.75000  1.0000
  Sr  Sr6       1.0  0.75000  0.93200  0.75000  1.0000
