data_image0
_chemical_formula_structural       F4Rb6
_chemical_formula_sum              "F4 Rb6"
_cell_length_a       6.95795
_cell_length_b       6.95795
_cell_length_c       7.88319
_cell_angle_alpha    116.188
_cell_angle_beta     63.8121
_cell_angle_gamma    120

_space_group_name_H-M_alt    "P 1"
_space_group_IT_number       1

loop_
  _space_group_symop_operation_xyz
  'x, y, z'

loop_
  _atom_site_type_symbol
  _atom_site_label
  _atom_site_symmetry_multiplicity
  _atom_site_fract_x
  _atom_site_fract_y
  _atom_site_fract_z
  _atom_site_occupancy
  F   F1        1.0  0.66300  0.33700  0.01120  1.0000
  F   F2        1.0  0.83700  0.16300  0.48900  1.0000
  F   F3        1.0  0.16300  0.83700  0.51100  1.0000
  F   F4        1.0  0.33700  0.66300  0.98900  1.0000
  Rb  Rb1       1.0  0.56900  0.75000  0.25000  1.0000
  Rb  Rb2       1.0  0.25000  0.06870  0.25000  1.0000
  Rb  Rb3       1.0  0.93100  0.43100  0.25000  1.0000
  Rb  Rb4       1.0  0.06870  0.56900  0.75000  1.0000
  Rb  Rb5       1.0  0.75000  0.93100  0.75000  1.0000
  Rb  Rb6       1.0  0.43100  0.25000  0.75000  1.0000
