data_image0
_chemical_formula_structural       Cl4V6
_chemical_formula_sum              "Cl4 V6"
_cell_length_a       6.15234
_cell_length_b       6.15234
_cell_length_c       5.53311
_cell_angle_alpha    123.777
_cell_angle_beta     56.2234
_cell_angle_gamma    120

_space_group_name_H-M_alt    "P 1"
_space_group_IT_number       1

loop_
  _space_group_symop_operation_xyz
  'x, y, z'

loop_
  _atom_site_type_symbol
  _atom_site_label
  _atom_site_symmetry_multiplicity
  _atom_site_fract_x
  _atom_site_fract_y
  _atom_site_fract_z
  _atom_site_occupancy
  Cl  Cl1       1.0  0.61000  0.39000  0.16900  1.0000
  Cl  Cl2       1.0  0.89000  0.11000  0.33100  1.0000
  Cl  Cl3       1.0  0.11000  0.89000  0.66900  1.0000
  Cl  Cl4       1.0  0.39000  0.61000  0.83100  1.0000
  V   V1        1.0  0.51000  0.75000  0.25000  1.0000
  V   V2        1.0  0.25000  0.00981  0.25000  1.0000
  V   V3        1.0  0.99000  0.49000  0.25000  1.0000
  V   V4        1.0  0.00981  0.51000  0.75000  1.0000
  V   V5        1.0  0.75000  0.99000  0.75000  1.0000
  V   V6        1.0  0.49000  0.25000  0.75000  1.0000
