data_image0
_chemical_formula_structural       KSe6U2
_chemical_formula_sum              "K1 Se6 U2"
_cell_length_a       4.03477
_cell_length_b       5.5467
_cell_length_c       11.4997
_cell_angle_alpha    103.955
_cell_angle_beta     100.104
_cell_angle_gamma    90

_space_group_name_H-M_alt    "P 1"
_space_group_IT_number       1

loop_
  _space_group_symop_operation_xyz
  'x, y, z'

loop_
  _atom_site_type_symbol
  _atom_site_label
  _atom_site_symmetry_multiplicity
  _atom_site_fract_x
  _atom_site_fract_y
  _atom_site_fract_z
  _atom_site_occupancy
  K   K1        1.0  0.00000  0.00000  0.00000  1.0000
  Se  Se1       1.0  0.60700  0.36000  0.21400  1.0000
  Se  Se2       1.0  0.60700  0.85500  0.21400  1.0000
  Se  Se3       1.0  0.22600  0.22600  0.45200  1.0000
  Se  Se4       1.0  0.77400  0.77400  0.54800  1.0000
  Se  Se5       1.0  0.39300  0.14500  0.78600  1.0000
  Se  Se6       1.0  0.39300  0.64000  0.78600  1.0000
  U   U1        1.0  0.18000  0.68000  0.36100  1.0000
  U   U2        1.0  0.82000  0.32000  0.63900  1.0000
