data_image0
_chemical_formula_structural       Mn4S6
_chemical_formula_sum              "Mn4 S6"
_cell_length_a       5.7053
_cell_length_b       5.70888
_cell_length_c       6.22952
_cell_angle_alpha    117.266
_cell_angle_beta     62.7444
_cell_angle_gamma    119.98

_space_group_name_H-M_alt    "P 1"
_space_group_IT_number       1

loop_
  _space_group_symop_operation_xyz
  'x, y, z'

loop_
  _atom_site_type_symbol
  _atom_site_label
  _atom_site_symmetry_multiplicity
  _atom_site_fract_x
  _atom_site_fract_y
  _atom_site_fract_z
  _atom_site_occupancy
  Mn  Mn1       1.0  0.65800  0.34200  0.02690  1.0000
  Mn  Mn2       1.0  0.84200  0.15800  0.47300  1.0000
  Mn  Mn3       1.0  0.15800  0.84200  0.52700  1.0000
  Mn  Mn4       1.0  0.34200  0.65800  0.97300  1.0000
  S   S1        1.0  0.92900  0.42900  0.25000  1.0000
  S   S2        1.0  0.57100  0.75000  0.25000  1.0000
  S   S3        1.0  0.25000  0.07070  0.25000  1.0000
  S   S4        1.0  0.75000  0.92900  0.75000  1.0000
  S   S5        1.0  0.42900  0.25000  0.75000  1.0000
  S   S6        1.0  0.07070  0.57100  0.75000  1.0000
