data_image0
_chemical_formula_structural       F4In6
_chemical_formula_sum              "F4 In6"
_cell_length_a       5.95466
_cell_length_b       5.95466
_cell_length_c       7.3951
_cell_angle_alpha    113.741
_cell_angle_beta     66.2587
_cell_angle_gamma    120

_space_group_name_H-M_alt    "P 1"
_space_group_IT_number       1

loop_
  _space_group_symop_operation_xyz
  'x, y, z'

loop_
  _atom_site_type_symbol
  _atom_site_label
  _atom_site_symmetry_multiplicity
  _atom_site_fract_x
  _atom_site_fract_y
  _atom_site_fract_z
  _atom_site_occupancy
  F   F1        1.0  0.31700  0.68300  0.04940  1.0000
  F   F2        1.0  0.18300  0.81700  0.45100  1.0000
  F   F3        1.0  0.81700  0.18300  0.54900  1.0000
  F   F4        1.0  0.68300  0.31700  0.95100  1.0000
  In  In1       1.0  0.25000  0.11400  0.25000  1.0000
  In  In2       1.0  0.61400  0.75000  0.25000  1.0000
  In  In3       1.0  0.88600  0.38600  0.25000  1.0000
  In  In4       1.0  0.11400  0.61400  0.75000  1.0000
  In  In5       1.0  0.38600  0.25000  0.75000  1.0000
  In  In6       1.0  0.75000  0.88600  0.75000  1.0000
