data_image0
_chemical_formula_structural       Cs4Mn2Te4
_chemical_formula_sum              "Cs4 Mn2 Te4"
_cell_length_a       7.25185
_cell_length_b       7.98446
_cell_length_c       9.37986
_cell_angle_alpha    115.19
_cell_angle_beta     112.741
_cell_angle_gamma    90

_space_group_name_H-M_alt    "P 1"
_space_group_IT_number       1

loop_
  _space_group_symop_operation_xyz
  'x, y, z'

loop_
  _atom_site_type_symbol
  _atom_site_label
  _atom_site_symmetry_multiplicity
  _atom_site_fract_x
  _atom_site_fract_y
  _atom_site_fract_z
  _atom_site_occupancy
  Cs  Cs1       1.0  0.64500  0.47200  0.29000  1.0000
  Cs  Cs2       1.0  0.14500  0.81700  0.29000  1.0000
  Cs  Cs3       1.0  0.85500  0.18300  0.71000  1.0000
  Cs  Cs4       1.0  0.35500  0.52800  0.71000  1.0000
  Mn  Mn1       1.0  0.25000  0.00000  0.00000  1.0000
  Mn  Mn2       1.0  0.75000  0.00000  0.00000  1.0000
  Te  Te1       1.0  0.09940  0.27900  0.19900  1.0000
  Te  Te2       1.0  0.59900  0.91900  0.19900  1.0000
  Te  Te3       1.0  0.40100  0.08070  0.80100  1.0000
  Te  Te4       1.0  0.90100  0.72100  0.80100  1.0000
