data_image0
_chemical_formula_structural       F4Se6
_chemical_formula_sum              "F4 Se6"
_cell_length_a       6.02068
_cell_length_b       6.02069
_cell_length_c       6.63991
_cell_angle_alpha    116.96
_cell_angle_beta     63.0398
_cell_angle_gamma    120

_space_group_name_H-M_alt    "P 1"
_space_group_IT_number       1

loop_
  _space_group_symop_operation_xyz
  'x, y, z'

loop_
  _atom_site_type_symbol
  _atom_site_label
  _atom_site_symmetry_multiplicity
  _atom_site_fract_x
  _atom_site_fract_y
  _atom_site_fract_z
  _atom_site_occupancy
  F   F1        1.0  0.91900  0.08110  0.24300  1.0000
  F   F2        1.0  0.58100  0.41900  0.25700  1.0000
  F   F3        1.0  0.41900  0.58100  0.74300  1.0000
  F   F4        1.0  0.08110  0.91900  0.75700  1.0000
  Se  Se1       1.0  0.25000  0.98000  0.25000  1.0000
  Se  Se2       1.0  0.48000  0.75000  0.25000  1.0000
  Se  Se3       1.0  0.02040  0.52000  0.25000  1.0000
  Se  Se4       1.0  0.98000  0.48000  0.75000  1.0000
  Se  Se5       1.0  0.52000  0.25000  0.75000  1.0000
  Se  Se6       1.0  0.75000  0.02040  0.75000  1.0000
