data_image0
_chemical_formula_structural       Ac4F6
_chemical_formula_sum              "Ac4 F6"
_cell_length_a       6.62486
_cell_length_b       6.62486
_cell_length_c       6.7759
_cell_angle_alpha    119.265
_cell_angle_beta     60.7347
_cell_angle_gamma    120

_space_group_name_H-M_alt    "P 1"
_space_group_IT_number       1

loop_
  _space_group_symop_operation_xyz
  'x, y, z'

loop_
  _atom_site_type_symbol
  _atom_site_label
  _atom_site_symmetry_multiplicity
  _atom_site_fract_x
  _atom_site_fract_y
  _atom_site_fract_z
  _atom_site_occupancy
  Ac  Ac1       1.0  0.62800  0.37200  0.11700  1.0000
  Ac  Ac2       1.0  0.87200  0.12800  0.38300  1.0000
  Ac  Ac3       1.0  0.12800  0.87200  0.61700  1.0000
  Ac  Ac4       1.0  0.37200  0.62800  0.88300  1.0000
  F   F1        1.0  0.25000  0.99300  0.25000  1.0000
  F   F2        1.0  0.49300  0.75000  0.25000  1.0000
  F   F3        1.0  0.00746  0.50700  0.25000  1.0000
  F   F4        1.0  0.99300  0.49300  0.75000  1.0000
  F   F5        1.0  0.50700  0.25000  0.75000  1.0000
  F   F6        1.0  0.75000  0.00747  0.75000  1.0000
