data_image0
_chemical_formula_structural       Cl4F6
_chemical_formula_sum              "Cl4 F6"
_cell_length_a       6.82478
_cell_length_b       6.82478
_cell_length_c       5.86598
_cell_angle_alpha    125.572
_cell_angle_beta     54.4281
_cell_angle_gamma    120

_space_group_name_H-M_alt    "P 1"
_space_group_IT_number       1

loop_
  _space_group_symop_operation_xyz
  'x, y, z'

loop_
  _atom_site_type_symbol
  _atom_site_label
  _atom_site_symmetry_multiplicity
  _atom_site_fract_x
  _atom_site_fract_y
  _atom_site_fract_z
  _atom_site_occupancy
  Cl  Cl1       1.0  0.61500  0.38500  0.15400  1.0000
  Cl  Cl2       1.0  0.88500  0.11500  0.34600  1.0000
  Cl  Cl3       1.0  0.11500  0.88500  0.65400  1.0000
  Cl  Cl4       1.0  0.38500  0.61500  0.84600  1.0000
  F   F1        1.0  0.74300  0.75000  0.25000  1.0000
  F   F2        1.0  0.75700  0.25700  0.25000  1.0000
  F   F3        1.0  0.25000  0.24300  0.25000  1.0000
  F   F4        1.0  0.75000  0.75700  0.75000  1.0000
  F   F5        1.0  0.24300  0.74300  0.75000  1.0000
  F   F6        1.0  0.25700  0.25000  0.75000  1.0000
