data_image0
_chemical_formula_structural       N4Na6
_chemical_formula_sum              "N4 Na6"
_cell_length_a       6.39363
_cell_length_b       6.39363
_cell_length_c       6.56157
_cell_angle_alpha    119.157
_cell_angle_beta     60.8431
_cell_angle_gamma    120

_space_group_name_H-M_alt    "P 1"
_space_group_IT_number       1

loop_
  _space_group_symop_operation_xyz
  'x, y, z'

loop_
  _atom_site_type_symbol
  _atom_site_label
  _atom_site_symmetry_multiplicity
  _atom_site_fract_x
  _atom_site_fract_y
  _atom_site_fract_z
  _atom_site_occupancy
  N   N1        1.0  0.28800  0.71200  0.13700  1.0000
  N   N2        1.0  0.21200  0.78800  0.36300  1.0000
  N   N3        1.0  0.78800  0.21200  0.63700  1.0000
  N   N4        1.0  0.71200  0.28800  0.86300  1.0000
  Na  Na1       1.0  0.25000  0.14900  0.25000  1.0000
  Na  Na2       1.0  0.85100  0.35100  0.25000  1.0000
  Na  Na3       1.0  0.64900  0.75000  0.25000  1.0000
  Na  Na4       1.0  0.35100  0.25000  0.75000  1.0000
  Na  Na5       1.0  0.14900  0.64900  0.75000  1.0000
  Na  Na6       1.0  0.75000  0.85100  0.75000  1.0000
