data_image0
_chemical_formula_structural       Cl4Nb6
_chemical_formula_sum              "Cl4 Nb6"
_cell_length_a       6.69947
_cell_length_b       6.69947
_cell_length_c       5.86272
_cell_angle_alpha    124.845
_cell_angle_beta     55.1547
_cell_angle_gamma    120

_space_group_name_H-M_alt    "P 1"
_space_group_IT_number       1

loop_
  _space_group_symop_operation_xyz
  'x, y, z'

loop_
  _atom_site_type_symbol
  _atom_site_label
  _atom_site_symmetry_multiplicity
  _atom_site_fract_x
  _atom_site_fract_y
  _atom_site_fract_z
  _atom_site_occupancy
  Cl  Cl1       1.0  0.60700  0.39300  0.17800  1.0000
  Cl  Cl2       1.0  0.89300  0.10700  0.32200  1.0000
  Cl  Cl3       1.0  0.10700  0.89300  0.67800  1.0000
  Cl  Cl4       1.0  0.39300  0.60700  0.82200  1.0000
  Nb  Nb1       1.0  0.51300  0.75000  0.25000  1.0000
  Nb  Nb2       1.0  0.25000  0.01270  0.25000  1.0000
  Nb  Nb3       1.0  0.98700  0.48700  0.25000  1.0000
  Nb  Nb4       1.0  0.01270  0.51300  0.75000  1.0000
  Nb  Nb5       1.0  0.75000  0.98700  0.75000  1.0000
  Nb  Nb6       1.0  0.48700  0.25000  0.75000  1.0000
