data_image0
_chemical_formula_structural       Ba2F8Ni2
_chemical_formula_sum              "Ba2 F8 Ni2"
_cell_length_a       4.13596
_cell_length_b       5.69894
_cell_length_c       7.34164
_cell_angle_alpha    90
_cell_angle_beta     73.6396
_cell_angle_gamma    90

_space_group_name_H-M_alt    "P 1"
_space_group_IT_number       1

loop_
  _space_group_symop_operation_xyz
  'x, y, z'

loop_
  _atom_site_type_symbol
  _atom_site_label
  _atom_site_symmetry_multiplicity
  _atom_site_fract_x
  _atom_site_fract_y
  _atom_site_fract_z
  _atom_site_occupancy
  Ba  Ba1       1.0  0.86000  0.46900  0.27900  1.0000
  Ba  Ba2       1.0  0.14000  0.96900  0.72100  1.0000
  F   F1        1.0  0.47600  0.31100  0.04850  1.0000
  F   F2        1.0  0.92200  0.99600  0.15700  1.0000
  F   F3        1.0  0.32400  0.73000  0.35100  1.0000
  F   F4        1.0  0.29800  0.21200  0.40300  1.0000
  F   F5        1.0  0.70200  0.71200  0.59700  1.0000
  F   F6        1.0  0.67600  0.23000  0.64900  1.0000
  F   F7        1.0  0.07830  0.49600  0.84300  1.0000
  F   F8        1.0  0.52400  0.81100  0.95200  1.0000
  Ni  Ni1       1.0  0.40800  0.00025  0.18400  1.0000
  Ni  Ni2       1.0  0.59200  0.50000  0.81600  1.0000
