data_image0
_chemical_formula_structural       B11Li
_chemical_formula_sum              "B11 Li1"
_cell_length_a       4.50156
_cell_length_b       4.50156
_cell_length_c       5.20339
_cell_angle_alpha    115.63
_cell_angle_beta     115.63
_cell_angle_gamma    90

_space_group_name_H-M_alt    "P 1"
_space_group_IT_number       1

loop_
  _space_group_symop_operation_xyz
  'x, y, z'

loop_
  _atom_site_type_symbol
  _atom_site_label
  _atom_site_symmetry_multiplicity
  _atom_site_fract_x
  _atom_site_fract_y
  _atom_site_fract_z
  _atom_site_occupancy
  B   B1        1.0  0.00000  0.00000  0.00000  1.0000
  B   B2        1.0  0.30200  0.30200  0.00000  1.0000
  B   B3        1.0  0.69800  0.30200  0.00000  1.0000
  B   B4        1.0  0.30200  0.69800  0.00000  1.0000
  B   B5        1.0  0.69800  0.69800  0.00000  1.0000
  B   B6        1.0  0.65500  0.65500  0.31000  1.0000
  B   B7        1.0  0.41000  0.17400  0.34800  1.0000
  B   B8        1.0  0.93800  0.17400  0.34800  1.0000
  B   B9        1.0  0.82600  0.06220  0.65200  1.0000
  B   B10       1.0  0.82600  0.59000  0.65200  1.0000
  B   B11       1.0  0.34500  0.34500  0.69000  1.0000
  Li  Li1       1.0  0.25000  0.75000  0.50000  1.0000
