data_image0
_chemical_formula_structural       B2O8Ta2
_chemical_formula_sum              "B2 O8 Ta2"
_cell_length_a       5.18674
_cell_length_b       5.18674
_cell_length_c       5.18674
_cell_angle_alpha    106.264
_cell_angle_beta     116.097
_cell_angle_gamma    106.264

_space_group_name_H-M_alt    "P 1"
_space_group_IT_number       1

loop_
  _space_group_symop_operation_xyz
  'x, y, z'

loop_
  _atom_site_type_symbol
  _atom_site_label
  _atom_site_symmetry_multiplicity
  _atom_site_fract_x
  _atom_site_fract_y
  _atom_site_fract_z
  _atom_site_occupancy
  B   B1        1.0  0.50000  0.00000  0.50000  1.0000
  B   B2        1.0  0.25000  0.50000  0.75000  1.0000
  O   O1        1.0  0.50400  0.17900  0.32500  1.0000
  O   O2        1.0  0.14700  0.82100  0.32500  1.0000
  O   O3        1.0  0.07530  0.32100  0.39700  1.0000
  O   O4        1.0  0.67500  0.82100  0.49600  1.0000
  O   O5        1.0  0.07530  0.67900  0.75400  1.0000
  O   O6        1.0  0.67500  0.17900  0.85300  1.0000
  O   O7        1.0  0.24600  0.32100  0.92500  1.0000
  O   O8        1.0  0.60300  0.67900  0.92500  1.0000
  Ta  Ta1       1.0  0.00000  0.00000  0.00000  1.0000
  Ta  Ta2       1.0  0.75000  0.50000  0.25000  1.0000
