data_image0
_chemical_formula_structural       Bi4I4Se4
_chemical_formula_sum              "Bi4 I4 Se4"
_cell_length_a       8.85554
_cell_length_b       10.7581
_cell_length_c       4.2704
_cell_angle_alpha    90
_cell_angle_beta     90
_cell_angle_gamma    90

_space_group_name_H-M_alt    "P 1"
_space_group_IT_number       1

loop_
  _space_group_symop_operation_xyz
  'x, y, z'

loop_
  _atom_site_type_symbol
  _atom_site_label
  _atom_site_symmetry_multiplicity
  _atom_site_fract_x
  _atom_site_fract_y
  _atom_site_fract_z
  _atom_site_occupancy
  Bi  Bi1       1.0  0.12700  0.12800  0.25000  1.0000
  Bi  Bi2       1.0  0.62700  0.37200  0.25000  1.0000
  Bi  Bi3       1.0  0.37300  0.62800  0.75000  1.0000
  Bi  Bi4       1.0  0.87300  0.87200  0.75000  1.0000
  I   I1        1.0  0.01300  0.67600  0.25000  1.0000
  I   I2        1.0  0.51300  0.82400  0.25000  1.0000
  I   I3        1.0  0.48700  0.17600  0.75000  1.0000
  I   I4        1.0  0.98700  0.32400  0.75000  1.0000
  Se  Se1       1.0  0.83100  0.04970  0.25000  1.0000
  Se  Se2       1.0  0.33100  0.45000  0.25000  1.0000
  Se  Se3       1.0  0.66900  0.55000  0.75000  1.0000
  Se  Se4       1.0  0.16900  0.95000  0.75000  1.0000
