data_image0
_chemical_formula_structural       Mn8N4
_chemical_formula_sum              "Mn8 N4"
_cell_length_a       5.52869
_cell_length_b       4.80507
_cell_length_c       4.36765
_cell_angle_alpha    89.9994
_cell_angle_beta     89.9953
_cell_angle_gamma    89.9981

_space_group_name_H-M_alt    "P 1"
_space_group_IT_number       1

loop_
  _space_group_symop_operation_xyz
  'x, y, z'

loop_
  _atom_site_type_symbol
  _atom_site_label
  _atom_site_symmetry_multiplicity
  _atom_site_fract_x
  _atom_site_fract_y
  _atom_site_fract_z
  _atom_site_occupancy
  Mn  Mn1       1.0  0.12100  0.08300  0.25000  1.0000
  Mn  Mn2       1.0  0.87900  0.58300  0.25000  1.0000
  Mn  Mn3       1.0  0.37900  0.58300  0.25000  1.0000
  Mn  Mn4       1.0  0.62100  0.08300  0.25000  1.0000
  Mn  Mn5       1.0  0.37900  0.91700  0.75000  1.0000
  Mn  Mn6       1.0  0.62100  0.41700  0.75000  1.0000
  Mn  Mn7       1.0  0.12100  0.41700  0.75000  1.0000
  Mn  Mn8       1.0  0.87900  0.91700  0.75000  1.0000
  N   N1        1.0  0.63400  0.75000  0.00000  1.0000
  N   N2        1.0  0.36600  0.25000  0.00000  1.0000
  N   N3        1.0  0.13400  0.75000  0.50000  1.0000
  N   N4        1.0  0.86600  0.25000  0.50000  1.0000
