data_image0
_chemical_formula_structural       Ir4P8
_chemical_formula_sum              "Ir4 P8"
_cell_length_a       5.79128
_cell_length_b       5.83085
_cell_length_c       5.89336
_cell_angle_alpha    90
_cell_angle_beta     111.348
_cell_angle_gamma    90

_space_group_name_H-M_alt    "P 1"
_space_group_IT_number       1

loop_
  _space_group_symop_operation_xyz
  'x, y, z'

loop_
  _atom_site_type_symbol
  _atom_site_label
  _atom_site_symmetry_multiplicity
  _atom_site_fract_x
  _atom_site_fract_y
  _atom_site_fract_z
  _atom_site_occupancy
  Ir  Ir1       1.0  0.72800  0.50100  0.20800  1.0000
  Ir  Ir2       1.0  0.27200  0.00093  0.29200  1.0000
  Ir  Ir3       1.0  0.72800  0.99900  0.70800  1.0000
  Ir  Ir4       1.0  0.27200  0.49900  0.79200  1.0000
  P   P1        1.0  0.84200  0.11900  0.12900  1.0000
  P   P2        1.0  0.33400  0.37600  0.18900  1.0000
  P   P3        1.0  0.66600  0.87600  0.31100  1.0000
  P   P4        1.0  0.15800  0.61900  0.37100  1.0000
  P   P5        1.0  0.84200  0.38100  0.62900  1.0000
  P   P6        1.0  0.33400  0.12400  0.68900  1.0000
  P   P7        1.0  0.66600  0.62400  0.81100  1.0000
  P   P8        1.0  0.15800  0.88100  0.87100  1.0000
