data_image0
_chemical_formula_structural       CrK3O8
_chemical_formula_sum              "Cr1 K3 O8"
_cell_length_a       6.02485
_cell_length_b       6.02485
_cell_length_c       6.02485
_cell_angle_alpha    102.286
_cell_angle_beta     113.179
_cell_angle_gamma    113.179

_space_group_name_H-M_alt    "P 1"
_space_group_IT_number       1

loop_
  _space_group_symop_operation_xyz
  'x, y, z'

loop_
  _atom_site_type_symbol
  _atom_site_label
  _atom_site_symmetry_multiplicity
  _atom_site_fract_x
  _atom_site_fract_y
  _atom_site_fract_z
  _atom_site_occupancy
  Cr  Cr1       1.0  0.00000  0.00000  0.00000  1.0000
  K   K1        1.0  0.50000  0.75000  0.25000  1.0000
  K   K2        1.0  1.00000  0.50000  0.50000  1.0000
  K   K3        1.0  0.50000  0.25000  0.75000  1.0000
  O   O1        1.0  0.00000  0.32100  0.04540  1.0000
  O   O2        1.0  0.42100  0.19600  0.19600  1.0000
  O   O3        1.0  0.00000  0.80400  0.22500  1.0000
  O   O4        1.0  0.00000  0.04540  0.32100  1.0000
  O   O5        1.0  0.72400  0.67900  0.67900  1.0000
  O   O6        1.0  0.57900  0.77500  0.77500  1.0000
  O   O7        1.0  0.00000  0.22500  0.80400  1.0000
  O   O8        1.0  0.27600  0.95500  0.95500  1.0000
