data_image0
_chemical_formula_structural       Eu4Pt4Sn4
_chemical_formula_sum              "Eu4 Pt4 Sn4"
_cell_length_a       7.44799
_cell_length_b       4.69089
_cell_length_c       7.99246
_cell_angle_alpha    90
_cell_angle_beta     90
_cell_angle_gamma    90

_space_group_name_H-M_alt    "P 1"
_space_group_IT_number       1

loop_
  _space_group_symop_operation_xyz
  'x, y, z'

loop_
  _atom_site_type_symbol
  _atom_site_label
  _atom_site_symmetry_multiplicity
  _atom_site_fract_x
  _atom_site_fract_y
  _atom_site_fract_z
  _atom_site_occupancy
  Eu  Eu1       1.0  0.47400  0.75000  0.18400  1.0000
  Eu  Eu2       1.0  0.97400  0.75000  0.31600  1.0000
  Eu  Eu3       1.0  0.02580  0.25000  0.68400  1.0000
  Eu  Eu4       1.0  0.52600  0.25000  0.81600  1.0000
  Pt  Pt1       1.0  0.78900  0.25000  0.10600  1.0000
  Pt  Pt2       1.0  0.28900  0.25000  0.39400  1.0000
  Pt  Pt3       1.0  0.71100  0.75000  0.60600  1.0000
  Pt  Pt4       1.0  0.21100  0.75000  0.89400  1.0000
  Sn  Sn1       1.0  0.16400  0.25000  0.07340  1.0000
  Sn  Sn2       1.0  0.66400  0.25000  0.42700  1.0000
  Sn  Sn3       1.0  0.33600  0.75000  0.57300  1.0000
  Sn  Sn4       1.0  0.83600  0.75000  0.92700  1.0000
