data_image0
_chemical_formula_structural       O16Pb4W4
_chemical_formula_sum              "O16 Pb4 W4"
_cell_length_a       7.74398
_cell_length_b       7.74398
_cell_length_c       5.39334
_cell_angle_alpha    90
_cell_angle_beta     90
_cell_angle_gamma    60.8133

_space_group_name_H-M_alt    "P 1"
_space_group_IT_number       1

loop_
  _space_group_symop_operation_xyz
  'x, y, z'

loop_
  _atom_site_type_symbol
  _atom_site_label
  _atom_site_symmetry_multiplicity
  _atom_site_fract_x
  _atom_site_fract_y
  _atom_site_fract_z
  _atom_site_occupancy
  O   O1        1.0  0.88400  0.38400  0.25000  1.0000
  O   O2        1.0  0.61600  0.11600  0.75000  1.0000
  O   O3        1.0  0.11600  0.61600  0.75000  1.0000
  O   O4        1.0  0.38400  0.88400  0.25000  1.0000
  O   O5        1.0  0.79900  0.79900  0.54300  1.0000
  O   O6        1.0  0.70100  0.70100  0.04250  1.0000
  O   O7        1.0  0.20100  0.20100  0.45700  1.0000
  O   O8        1.0  0.29900  0.29900  0.95700  1.0000
  O   O9        1.0  0.85500  0.14500  0.50000  1.0000
  O   O10       1.0  0.64500  0.35500  0.00000  1.0000
  O   O11       1.0  0.14500  0.85500  0.50000  1.0000
  O   O12       1.0  0.35500  0.64500  0.00000  1.0000
  O   O13       1.0  0.91300  0.91300  0.06300  1.0000
  O   O14       1.0  0.58700  0.58700  0.56300  1.0000
  O   O15       1.0  0.08650  0.08650  0.93700  1.0000
  O   O16       1.0  0.41300  0.41300  0.43700  1.0000
  Pb  Pb1       1.0  0.58000  0.08030  0.25000  1.0000
  Pb  Pb2       1.0  0.92000  0.42000  0.75000  1.0000
  Pb  Pb3       1.0  0.42000  0.92000  0.75000  1.0000
  Pb  Pb4       1.0  0.08030  0.58000  0.25000  1.0000
  W   W1        1.0  0.91500  0.91500  0.71800  1.0000
  W   W2        1.0  0.41500  0.41500  0.78200  1.0000
  W   W3        1.0  0.08470  0.08470  0.28200  1.0000
  W   W4        1.0  0.58500  0.58500  0.21800  1.0000
