data_image0
_chemical_formula_structural       Cl8Sm4
_chemical_formula_sum              "Cl8 Sm4"
_cell_length_a       9.78729
_cell_length_b       7.89596
_cell_length_c       3.60746
_cell_angle_alpha    90
_cell_angle_beta     90
_cell_angle_gamma    90

_space_group_name_H-M_alt    "P 1"
_space_group_IT_number       1

loop_
  _space_group_symop_operation_xyz
  'x, y, z'

loop_
  _atom_site_type_symbol
  _atom_site_label
  _atom_site_symmetry_multiplicity
  _atom_site_fract_x
  _atom_site_fract_y
  _atom_site_fract_z
  _atom_site_occupancy
  Cl  Cl1       1.0  0.85600  0.03580  0.25000  1.0000
  Cl  Cl2       1.0  0.39300  0.11700  0.25000  1.0000
  Cl  Cl3       1.0  0.64400  0.53600  0.25000  1.0000
  Cl  Cl4       1.0  0.10700  0.61700  0.25000  1.0000
  Cl  Cl5       1.0  0.89300  0.38300  0.75000  1.0000
  Cl  Cl6       1.0  0.35600  0.46400  0.75000  1.0000
  Cl  Cl7       1.0  0.60700  0.88300  0.75000  1.0000
  Cl  Cl8       1.0  0.14400  0.96400  0.75000  1.0000
  Sm  Sm1       1.0  0.09650  0.24300  0.25000  1.0000
  Sm  Sm2       1.0  0.40400  0.74300  0.25000  1.0000
  Sm  Sm3       1.0  0.59600  0.25700  0.75000  1.0000
  Sm  Sm4       1.0  0.90400  0.75700  0.75000  1.0000
