data_image0
_chemical_formula_structural       F4Mg6
_chemical_formula_sum              "F4 Mg6"
_cell_length_a       5.64319
_cell_length_b       5.64319
_cell_length_c       6.30739
_cell_angle_alpha    116.574
_cell_angle_beta     63.4263
_cell_angle_gamma    120

_space_group_name_H-M_alt    "P 1"
_space_group_IT_number       1

loop_
  _space_group_symop_operation_xyz
  'x, y, z'

loop_
  _atom_site_type_symbol
  _atom_site_label
  _atom_site_symmetry_multiplicity
  _atom_site_fract_x
  _atom_site_fract_y
  _atom_site_fract_z
  _atom_site_occupancy
  F   F1        1.0  0.32600  0.67400  0.02320  1.0000
  F   F2        1.0  0.17400  0.82600  0.47700  1.0000
  F   F3        1.0  0.82600  0.17400  0.52300  1.0000
  F   F4        1.0  0.67400  0.32600  0.97700  1.0000
  Mg  Mg1       1.0  0.25000  0.09160  0.25000  1.0000
  Mg  Mg2       1.0  0.90800  0.40800  0.25000  1.0000
  Mg  Mg3       1.0  0.59200  0.75000  0.25000  1.0000
  Mg  Mg4       1.0  0.40800  0.25000  0.75000  1.0000
  Mg  Mg5       1.0  0.09160  0.59200  0.75000  1.0000
  Mg  Mg6       1.0  0.75000  0.90800  0.75000  1.0000
