data_image0
_chemical_formula_structural       Sn8V4
_chemical_formula_sum              "Sn8 V4"
_cell_length_a       5.47109
_cell_length_b       5.47109
_cell_length_c       9.74869
_cell_angle_alpha    98.1611
_cell_angle_beta     98.1611
_cell_angle_gamma    119.611

_space_group_name_H-M_alt    "P 1"
_space_group_IT_number       1

loop_
  _space_group_symop_operation_xyz
  'x, y, z'

loop_
  _atom_site_type_symbol
  _atom_site_label
  _atom_site_symmetry_multiplicity
  _atom_site_fract_x
  _atom_site_fract_y
  _atom_site_fract_z
  _atom_site_occupancy
  Sn  Sn1       1.0  0.83400  0.16600  0.00000  1.0000
  Sn  Sn2       1.0  0.16600  0.83400  0.00000  1.0000
  Sn  Sn3       1.0  0.58400  0.58400  0.16700  1.0000
  Sn  Sn4       1.0  0.16600  0.66600  0.33300  1.0000
  Sn  Sn5       1.0  0.91600  0.08360  0.50000  1.0000
  Sn  Sn6       1.0  0.58400  0.41600  0.50000  1.0000
  Sn  Sn7       1.0  0.33400  0.83400  0.66700  1.0000
  Sn  Sn8       1.0  0.41600  0.41600  0.83300  1.0000
  V   V1        1.0  0.62300  0.12300  0.24500  1.0000
  V   V2        1.0  0.12700  0.12700  0.25500  1.0000
  V   V3        1.0  0.87300  0.87300  0.74500  1.0000
  V   V4        1.0  0.87700  0.37700  0.75500  1.0000
