data_image0
_chemical_formula_structural       F8HfNa3
_chemical_formula_sum              "F8 Hf1 Na3"
_cell_length_a       5.15772
_cell_length_b       5.15772
_cell_length_c       6.3101
_cell_angle_alpha    114.122
_cell_angle_beta     114.122
_cell_angle_gamma    90

_space_group_name_H-M_alt    "P 1"
_space_group_IT_number       1

loop_
  _space_group_symop_operation_xyz
  'x, y, z'

loop_
  _atom_site_type_symbol
  _atom_site_label
  _atom_site_symmetry_multiplicity
  _atom_site_fract_x
  _atom_site_fract_y
  _atom_site_fract_z
  _atom_site_occupancy
  F   F1        1.0  0.35100  0.35100  0.23500  1.0000
  F   F2        1.0  0.88300  0.35100  0.23500  1.0000
  F   F3        1.0  0.35100  0.88300  0.23500  1.0000
  F   F4        1.0  0.88300  0.88300  0.23500  1.0000
  F   F5        1.0  0.11700  0.11700  0.76500  1.0000
  F   F6        1.0  0.64900  0.11700  0.76500  1.0000
  F   F7        1.0  0.11700  0.64900  0.76500  1.0000
  F   F8        1.0  0.64900  0.64900  0.76500  1.0000
  Hf  Hf1       1.0  0.00000  0.00000  0.00000  1.0000
  Na  Na1       1.0  0.50000  0.50000  0.00000  1.0000
  Na  Na2       1.0  0.75000  0.25000  0.50000  1.0000
  Na  Na3       1.0  0.25000  0.75000  0.50000  1.0000
