data_image0
_chemical_formula_structural       Cr2P8
_chemical_formula_sum              "Cr2 P8"
_cell_length_a       5.18906
_cell_length_b       5.70557
_cell_length_c       5.96561
_cell_angle_alpha    98.7083
_cell_angle_beta     64.2201
_cell_angle_gamma    110.373

_space_group_name_H-M_alt    "P 1"
_space_group_IT_number       1

loop_
  _space_group_symop_operation_xyz
  'x, y, z'

loop_
  _atom_site_type_symbol
  _atom_site_label
  _atom_site_symmetry_multiplicity
  _atom_site_fract_x
  _atom_site_fract_y
  _atom_site_fract_z
  _atom_site_occupancy
  Cr  Cr1       1.0  0.94000  0.75000  0.12000  1.0000
  Cr  Cr2       1.0  0.06000  0.25000  0.88000  1.0000
  P   P1        1.0  0.18200  0.17600  0.17900  1.0000
  P   P2        1.0  0.63800  0.32400  0.17900  1.0000
  P   P3        1.0  0.05480  0.69100  0.43700  1.0000
  P   P4        1.0  0.50900  0.80900  0.43700  1.0000
  P   P5        1.0  0.49100  0.19100  0.56300  1.0000
  P   P6        1.0  0.94500  0.30900  0.56300  1.0000
  P   P7        1.0  0.36200  0.67600  0.82100  1.0000
  P   P8        1.0  0.81800  0.82400  0.82100  1.0000
