data_image0
_chemical_formula_structural       F8Na3Zr
_chemical_formula_sum              "F8 Na3 Zr1"
_cell_length_a       5.21694
_cell_length_b       5.21694
_cell_length_c       6.36281
_cell_angle_alpha    114.202
_cell_angle_beta     114.202
_cell_angle_gamma    90

_space_group_name_H-M_alt    "P 1"
_space_group_IT_number       1

loop_
  _space_group_symop_operation_xyz
  'x, y, z'

loop_
  _atom_site_type_symbol
  _atom_site_label
  _atom_site_symmetry_multiplicity
  _atom_site_fract_x
  _atom_site_fract_y
  _atom_site_fract_z
  _atom_site_occupancy
  F   F1        1.0  0.35400  0.35400  0.23600  1.0000
  F   F2        1.0  0.88200  0.35400  0.23600  1.0000
  F   F3        1.0  0.35400  0.88200  0.23600  1.0000
  F   F4        1.0  0.88200  0.88200  0.23600  1.0000
  F   F5        1.0  0.11800  0.11800  0.76400  1.0000
  F   F6        1.0  0.64600  0.11800  0.76400  1.0000
  F   F7        1.0  0.11800  0.64600  0.76400  1.0000
  F   F8        1.0  0.64600  0.64600  0.76400  1.0000
  Na  Na1       1.0  0.50000  0.50000  0.00000  1.0000
  Na  Na2       1.0  0.75000  0.25000  0.50000  1.0000
  Na  Na3       1.0  0.25000  0.75000  0.50000  1.0000
  Zr  Zr1       1.0  0.00000  0.00000  0.00000  1.0000
