data_image0
_chemical_formula_structural       C2Na4O6
_chemical_formula_sum              "C2 Na4 O6"
_cell_length_a       5.13591
_cell_length_b       5.13591
_cell_length_c       5.91873
_cell_angle_alpha    101.383
_cell_angle_beta     101.383
_cell_angle_gamma    61.5611

_space_group_name_H-M_alt    "P 1"
_space_group_IT_number       1

loop_
  _space_group_symop_operation_xyz
  'x, y, z'

loop_
  _atom_site_type_symbol
  _atom_site_label
  _atom_site_symmetry_multiplicity
  _atom_site_fract_x
  _atom_site_fract_y
  _atom_site_fract_z
  _atom_site_occupancy
  C   C1        1.0  0.66400  0.66400  0.24900  1.0000
  C   C2        1.0  0.33600  0.33600  0.75100  1.0000
  Na  Na1       1.0  0.00000  0.00000  0.00000  1.0000
  Na  Na2       1.0  0.33000  0.33000  0.25500  1.0000
  Na  Na3       1.0  0.00000  0.00000  0.50000  1.0000
  Na  Na4       1.0  0.67000  0.67000  0.74500  1.0000
  O   O1        1.0  0.78900  0.78900  0.16900  1.0000
  O   O2        1.0  0.81400  0.38800  0.29000  1.0000
  O   O3        1.0  0.38800  0.81400  0.29000  1.0000
  O   O4        1.0  0.61200  0.18600  0.71000  1.0000
  O   O5        1.0  0.18600  0.61200  0.71000  1.0000
  O   O6        1.0  0.21100  0.21100  0.83100  1.0000
