data_image0
_chemical_formula_structural       P8Zr4
_chemical_formula_sum              "P8 Zr4"
_cell_length_a       6.50535
_cell_length_b       3.52035
_cell_length_c       8.81153
_cell_angle_alpha    90
_cell_angle_beta     90
_cell_angle_gamma    90

_space_group_name_H-M_alt    "P 1"
_space_group_IT_number       1

loop_
  _space_group_symop_operation_xyz
  'x, y, z'

loop_
  _atom_site_type_symbol
  _atom_site_label
  _atom_site_symmetry_multiplicity
  _atom_site_fract_x
  _atom_site_fract_y
  _atom_site_fract_z
  _atom_site_occupancy
  P   P1        1.0  0.88900  0.25000  0.03920  1.0000
  P   P2        1.0  0.59600  0.75000  0.14300  1.0000
  P   P3        1.0  0.09590  0.75000  0.35700  1.0000
  P   P4        1.0  0.38900  0.25000  0.46100  1.0000
  P   P5        1.0  0.61100  0.75000  0.53900  1.0000
  P   P6        1.0  0.90400  0.25000  0.64300  1.0000
  P   P7        1.0  0.40400  0.25000  0.85700  1.0000
  P   P8        1.0  0.11100  0.75000  0.96100  1.0000
  Zr  Zr1       1.0  0.27900  0.25000  0.16400  1.0000
  Zr  Zr2       1.0  0.77900  0.25000  0.33600  1.0000
  Zr  Zr3       1.0  0.22100  0.75000  0.66400  1.0000
  Zr  Zr4       1.0  0.72100  0.75000  0.83600  1.0000
