data_image0
_chemical_formula_structural       Gd2Ge4
_chemical_formula_sum              "Gd2 Ge4"
_cell_length_a       4.21075
_cell_length_b       4.06915
_cell_length_c       7.76403
_cell_angle_alpha    105.192
_cell_angle_beta     90
_cell_angle_gamma    90

_space_group_name_H-M_alt    "P 1"
_space_group_IT_number       1

loop_
  _space_group_symop_operation_xyz
  'x, y, z'

loop_
  _atom_site_type_symbol
  _atom_site_label
  _atom_site_symmetry_multiplicity
  _atom_site_fract_x
  _atom_site_fract_y
  _atom_site_fract_z
  _atom_site_occupancy
  Gd  Gd1       1.0  0.00000  0.14300  0.28600  1.0000
  Gd  Gd2       1.0  0.00000  0.85700  0.71400  1.0000
  Ge  Ge1       1.0  0.00000  0.50000  1.00000  1.0000
  Ge  Ge2       1.0  0.50000  0.00000  0.00000  1.0000
  Ge  Ge3       1.0  0.50000  0.69200  0.38500  1.0000
  Ge  Ge4       1.0  0.50000  0.30800  0.61500  1.0000
