data_image0
_chemical_formula_structural       Cs3F5Li2
_chemical_formula_sum              "Cs3 F5 Li2"
_cell_length_a       4.05467
_cell_length_b       4.05467
_cell_length_c       11.2469
_cell_angle_alpha    100.382
_cell_angle_beta     100.382
_cell_angle_gamma    90.0164

_space_group_name_H-M_alt    "P 1"
_space_group_IT_number       1

loop_
  _space_group_symop_operation_xyz
  'x, y, z'

loop_
  _atom_site_type_symbol
  _atom_site_label
  _atom_site_symmetry_multiplicity
  _atom_site_fract_x
  _atom_site_fract_y
  _atom_site_fract_z
  _atom_site_occupancy
  Cs  Cs1       1.0  0.04640  0.95400  0.00000  1.0000
  Cs  Cs2       1.0  0.67400  0.59900  0.27300  1.0000
  Cs  Cs3       1.0  0.40100  0.32600  0.72700  1.0000
  F   F1        1.0  0.54800  0.45200  0.00000  1.0000
  F   F2        1.0  0.17300  0.10100  0.27400  1.0000
  F   F3        1.0  0.78000  0.22000  0.50000  1.0000
  F   F4        1.0  0.28000  0.72000  0.50000  1.0000
  F   F5        1.0  0.89900  0.82700  0.72600  1.0000
  Li  Li1       1.0  0.26000  0.18700  0.44700  1.0000
  Li  Li2       1.0  0.81300  0.74000  0.55300  1.0000
