data_image0
_chemical_formula_structural       F4Tc6
_chemical_formula_sum              "F4 Tc6"
_cell_length_a       5.67779
_cell_length_b       5.67779
_cell_length_c       5.88734
_cell_angle_alpha    118.829
_cell_angle_beta     61.1706
_cell_angle_gamma    120

_space_group_name_H-M_alt    "P 1"
_space_group_IT_number       1

loop_
  _space_group_symop_operation_xyz
  'x, y, z'

loop_
  _atom_site_type_symbol
  _atom_site_label
  _atom_site_symmetry_multiplicity
  _atom_site_fract_x
  _atom_site_fract_y
  _atom_site_fract_z
  _atom_site_occupancy
  F   F1        1.0  0.92600  0.07430  0.22300  1.0000
  F   F2        1.0  0.57400  0.42600  0.27700  1.0000
  F   F3        1.0  0.42600  0.57400  0.72300  1.0000
  F   F4        1.0  0.07430  0.92600  0.77700  1.0000
  Tc  Tc1       1.0  0.00673  0.50700  0.25000  1.0000
  Tc  Tc2       1.0  0.49300  0.75000  0.25000  1.0000
  Tc  Tc3       1.0  0.25000  0.99300  0.25000  1.0000
  Tc  Tc4       1.0  0.75000  0.00673  0.75000  1.0000
  Tc  Tc5       1.0  0.50700  0.25000  0.75000  1.0000
  Tc  Tc6       1.0  0.99300  0.49300  0.75000  1.0000
