data_image0
_chemical_formula_structural       Hg4N6
_chemical_formula_sum              "Hg4 N6"
_cell_length_a       5.72849
_cell_length_b       5.72849
_cell_length_c       5.92921
_cell_angle_alpha    118.886
_cell_angle_beta     61.1136
_cell_angle_gamma    120

_space_group_name_H-M_alt    "P 1"
_space_group_IT_number       1

loop_
  _space_group_symop_operation_xyz
  'x, y, z'

loop_
  _atom_site_type_symbol
  _atom_site_label
  _atom_site_symmetry_multiplicity
  _atom_site_fract_x
  _atom_site_fract_y
  _atom_site_fract_z
  _atom_site_occupancy
  Hg  Hg1       1.0  0.64300  0.35700  0.07010  1.0000
  Hg  Hg2       1.0  0.85700  0.14300  0.43000  1.0000
  Hg  Hg3       1.0  0.14300  0.85700  0.57000  1.0000
  Hg  Hg4       1.0  0.35700  0.64300  0.93000  1.0000
  N   N1        1.0  0.54100  0.75000  0.25000  1.0000
  N   N2        1.0  0.95900  0.45900  0.25000  1.0000
  N   N3        1.0  0.25000  0.04060  0.25000  1.0000
  N   N4        1.0  0.75000  0.95900  0.75000  1.0000
  N   N5        1.0  0.04060  0.54100  0.75000  1.0000
  N   N6        1.0  0.45900  0.25000  0.75000  1.0000
