data_image0
_chemical_formula_structural       Fe2Se6U2
_chemical_formula_sum              "Fe2 Se6 U2"
_cell_length_a       3.89967
_cell_length_b       5.86776
_cell_length_c       9.38125
_cell_angle_alpha    90
_cell_angle_beta     90
_cell_angle_gamma    70.5918

_space_group_name_H-M_alt    "P 1"
_space_group_IT_number       1

loop_
  _space_group_symop_operation_xyz
  'x, y, z'

loop_
  _atom_site_type_symbol
  _atom_site_label
  _atom_site_symmetry_multiplicity
  _atom_site_fract_x
  _atom_site_fract_y
  _atom_site_fract_z
  _atom_site_occupancy
  Fe  Fe1       1.0  0.00000  0.00000  0.00000  1.0000
  Fe  Fe2       1.0  0.00000  0.00000  0.50000  1.0000
  Se  Se1       1.0  0.36100  0.27900  0.04200  1.0000
  Se  Se2       1.0  0.08050  0.83900  0.25000  1.0000
  Se  Se3       1.0  0.36100  0.27900  0.45800  1.0000
  Se  Se4       1.0  0.63900  0.72100  0.54200  1.0000
  Se  Se5       1.0  0.91900  0.16100  0.75000  1.0000
  Se  Se6       1.0  0.63900  0.72100  0.95800  1.0000
  U   U1        1.0  0.78100  0.43900  0.25000  1.0000
  U   U2        1.0  0.21900  0.56100  0.75000  1.0000
