data_image0
_chemical_formula_structural       C2LaNi
_chemical_formula_sum              "C2 La1 Ni1"
_cell_length_a       3.83525
_cell_length_b       3.83525
_cell_length_c       3.96908
_cell_angle_alpha    90
_cell_angle_beta     90
_cell_angle_gamma    106.858

_space_group_name_H-M_alt    "P 1"
_space_group_IT_number       1

loop_
  _space_group_symop_operation_xyz
  'x, y, z'

loop_
  _atom_site_type_symbol
  _atom_site_label
  _atom_site_symmetry_multiplicity
  _atom_site_fract_x
  _atom_site_fract_y
  _atom_site_fract_z
  _atom_site_occupancy
  C   C1        1.0  0.54900  0.15200  0.50000  1.0000
  C   C2        1.0  0.84800  0.45100  0.50000  1.0000
  La  La1       1.0  0.00016  0.00000  0.00000  1.0000
  Ni  Ni1       1.0  0.38800  0.61200  0.50000  1.0000
