data_image0
_chemical_formula_structural       F4Ta6
_chemical_formula_sum              "F4 Ta6"
_cell_length_a       5.90027
_cell_length_b       5.90027
_cell_length_c       6.02036
_cell_angle_alpha    119.342
_cell_angle_beta     60.6577
_cell_angle_gamma    120

_space_group_name_H-M_alt    "P 1"
_space_group_IT_number       1

loop_
  _space_group_symop_operation_xyz
  'x, y, z'

loop_
  _atom_site_type_symbol
  _atom_site_label
  _atom_site_symmetry_multiplicity
  _atom_site_fract_x
  _atom_site_fract_y
  _atom_site_fract_z
  _atom_site_occupancy
  F   F1        1.0  0.92300  0.07720  0.23200  1.0000
  F   F2        1.0  0.57700  0.42300  0.26800  1.0000
  F   F3        1.0  0.42300  0.57700  0.73200  1.0000
  F   F4        1.0  0.07720  0.92300  0.76800  1.0000
  Ta  Ta1       1.0  0.52300  0.75000  0.25000  1.0000
  Ta  Ta2       1.0  0.25000  0.02340  0.25000  1.0000
  Ta  Ta3       1.0  0.97700  0.47700  0.25000  1.0000
  Ta  Ta4       1.0  0.02340  0.52300  0.75000  1.0000
  Ta  Ta5       1.0  0.75000  0.97700  0.75000  1.0000
  Ta  Ta6       1.0  0.47700  0.25000  0.75000  1.0000
