data_image0
_chemical_formula_structural       O6UV2
_chemical_formula_sum              "O6 U1 V2"
_cell_length_a       5.0725
_cell_length_b       5.00012
_cell_length_c       4.76977
_cell_angle_alpha    89.9263
_cell_angle_beta     90.0363
_cell_angle_gamma    119.529

_space_group_name_H-M_alt    "P 1"
_space_group_IT_number       1

loop_
  _space_group_symop_operation_xyz
  'x, y, z'

loop_
  _atom_site_type_symbol
  _atom_site_label
  _atom_site_symmetry_multiplicity
  _atom_site_fract_x
  _atom_site_fract_y
  _atom_site_fract_z
  _atom_site_occupancy
  O   O1        1.0  0.65500  0.65000  0.27000  1.0000
  O   O2        1.0  0.34500  0.99500  0.27000  1.0000
  O   O3        1.0  1.00000  0.35100  0.27300  1.0000
  O   O4        1.0  1.00000  0.64900  0.72700  1.0000
  O   O5        1.0  0.65500  0.00455  0.73000  1.0000
  O   O6        1.0  0.34500  0.35000  0.73000  1.0000
  U   U1        1.0  0.00000  0.00000  0.00000  1.0000
  V   V1        1.0  0.66500  0.33300  0.50000  1.0000
  V   V2        1.0  0.33500  0.66700  0.50000  1.0000
