data_image0
_chemical_formula_structural       C3Si2U3
_chemical_formula_sum              "C3 Si2 U3"
_cell_length_a       3.65457
_cell_length_b       3.70432
_cell_length_c       9.82373
_cell_angle_alpha    100.868
_cell_angle_beta     100.72
_cell_angle_gamma    90

_space_group_name_H-M_alt    "P 1"
_space_group_IT_number       1

loop_
  _space_group_symop_operation_xyz
  'x, y, z'

loop_
  _atom_site_type_symbol
  _atom_site_label
  _atom_site_symmetry_multiplicity
  _atom_site_fract_x
  _atom_site_fract_y
  _atom_site_fract_z
  _atom_site_occupancy
  C   C1        1.0  0.00000  0.00000  0.00000  1.0000
  C   C2        1.0  0.74900  0.24900  0.49800  1.0000
  C   C3        1.0  0.25100  0.75100  0.50200  1.0000
  Si  Si1       1.0  0.09670  0.09670  0.19300  1.0000
  Si  Si2       1.0  0.90300  0.90300  0.80700  1.0000
  U   U1        1.0  0.50000  0.50000  0.00000  1.0000
  U   U2        1.0  0.68300  0.68300  0.36700  1.0000
  U   U3        1.0  0.31700  0.31700  0.63300  1.0000
