data_image0
_chemical_formula_structural       CaGeLi2O4
_chemical_formula_sum              "Ca1 Ge1 Li2 O4"
_cell_length_a       4.88245
_cell_length_b       4.88245
_cell_length_c       4.88245
_cell_angle_alpha    95.9246
_cell_angle_beta     116.64
_cell_angle_gamma    116.64

_space_group_name_H-M_alt    "P 1"
_space_group_IT_number       1

loop_
  _space_group_symop_operation_xyz
  'x, y, z'

loop_
  _atom_site_type_symbol
  _atom_site_label
  _atom_site_symmetry_multiplicity
  _atom_site_fract_x
  _atom_site_fract_y
  _atom_site_fract_z
  _atom_site_occupancy
  Ca  Ca1       1.0  0.00000  0.50000  0.50000  1.0000
  Ge  Ge1       1.0  0.00000  0.00000  0.00000  1.0000
  Li  Li1       1.0  0.50000  0.75000  0.25000  1.0000
  Li  Li2       1.0  0.50000  0.25000  0.75000  1.0000
  O   O1        1.0  0.40700  0.05290  0.05290  1.0000
  O   O2        1.0  0.00000  0.94700  0.35400  1.0000
  O   O3        1.0  0.59300  0.64600  0.64600  1.0000
  O   O4        1.0  0.00000  0.35400  0.94700  1.0000
