data_image0
_chemical_formula_structural       O4Pu6
_chemical_formula_sum              "O4 Pu6"
_cell_length_a       6.25216
_cell_length_b       6.25216
_cell_length_c       6.88101
_cell_angle_alpha    117.02
_cell_angle_beta     62.9797
_cell_angle_gamma    120

_space_group_name_H-M_alt    "P 1"
_space_group_IT_number       1

loop_
  _space_group_symop_operation_xyz
  'x, y, z'

loop_
  _atom_site_type_symbol
  _atom_site_label
  _atom_site_symmetry_multiplicity
  _atom_site_fract_x
  _atom_site_fract_y
  _atom_site_fract_z
  _atom_site_occupancy
  O   O1        1.0  0.66300  0.33700  0.01250  1.0000
  O   O2        1.0  0.83700  0.16300  0.48800  1.0000
  O   O3        1.0  0.16300  0.83700  0.51200  1.0000
  O   O4        1.0  0.33700  0.66300  0.98800  1.0000
  Pu  Pu1       1.0  0.25000  0.08160  0.25000  1.0000
  Pu  Pu2       1.0  0.91800  0.41800  0.25000  1.0000
  Pu  Pu3       1.0  0.58200  0.75000  0.25000  1.0000
  Pu  Pu4       1.0  0.41800  0.25000  0.75000  1.0000
  Pu  Pu5       1.0  0.08160  0.58200  0.75000  1.0000
  Pu  Pu6       1.0  0.75000  0.91800  0.75000  1.0000
