data_image0
_chemical_formula_structural       ErO2S3U2
_chemical_formula_sum              "Er1 O2 S3 U2"
_cell_length_a       3.86122
_cell_length_b       3.86122
_cell_length_c       10.8867
_cell_angle_alpha    100.215
_cell_angle_beta     100.215
_cell_angle_gamma    90

_space_group_name_H-M_alt    "P 1"
_space_group_IT_number       1

loop_
  _space_group_symop_operation_xyz
  'x, y, z'

loop_
  _atom_site_type_symbol
  _atom_site_label
  _atom_site_symmetry_multiplicity
  _atom_site_fract_x
  _atom_site_fract_y
  _atom_site_fract_z
  _atom_site_occupancy
  Er  Er1       1.0  0.50000  0.50000  0.00000  1.0000
  O   O1        1.0  0.75000  0.25000  0.50000  1.0000
  O   O2        1.0  0.25000  0.75000  0.50000  1.0000
  S   S1        1.0  0.00000  0.00000  0.00000  1.0000
  S   S2        1.0  0.62700  0.62700  0.25400  1.0000
  S   S3        1.0  0.37300  0.37300  0.74600  1.0000
  U   U1        1.0  0.18500  0.18500  0.37000  1.0000
  U   U2        1.0  0.81500  0.81500  0.63000  1.0000
