data_image0
_chemical_formula_structural       H4Y6
_chemical_formula_sum              "H4 Y6"
_cell_length_a       3.68256
_cell_length_b       3.68263
_cell_length_c       17.2868
_cell_angle_alpha    90
_cell_angle_beta     90
_cell_angle_gamma    120.001

_space_group_name_H-M_alt    "P 1"
_space_group_IT_number       1

loop_
  _space_group_symop_operation_xyz
  'x, y, z'

loop_
  _atom_site_type_symbol
  _atom_site_label
  _atom_site_symmetry_multiplicity
  _atom_site_fract_x
  _atom_site_fract_y
  _atom_site_fract_z
  _atom_site_occupancy
  H   H1        1.0  0.33300  0.66700  0.03600  1.0000
  H   H2        1.0  0.33300  0.66700  0.29700  1.0000
  H   H3        1.0  0.00003  0.00002  0.53600  1.0000
  H   H4        1.0  0.00003  0.00002  0.79700  1.0000
  Y   Y1        1.0  0.00004  0.00002  0.00450  1.0000
  Y   Y2        1.0  0.33300  0.66700  0.16700  1.0000
  Y   Y3        1.0  0.00004  0.00002  0.32900  1.0000
  Y   Y4        1.0  0.33300  0.66700  0.50400  1.0000
  Y   Y5        1.0  0.00002  0.00001  0.66700  1.0000
  Y   Y6        1.0  0.33300  0.66700  0.82900  1.0000
