data_image0
_chemical_formula_structural       Ca2Ge4
_chemical_formula_sum              "Ca2 Ge4"
_cell_length_a       4.03023
_cell_length_b       4.03023
_cell_length_c       10.4047
_cell_angle_alpha    90
_cell_angle_beta     78.8328
_cell_angle_gamma    120

_space_group_name_H-M_alt    "P 1"
_space_group_IT_number       1

loop_
  _space_group_symop_operation_xyz
  'x, y, z'

loop_
  _atom_site_type_symbol
  _atom_site_label
  _atom_site_symmetry_multiplicity
  _atom_site_fract_x
  _atom_site_fract_y
  _atom_site_fract_z
  _atom_site_occupancy
  Ca  Ca1       1.0  0.83800  0.91900  0.24300  1.0000
  Ca  Ca2       1.0  0.16200  0.08090  0.75700  1.0000
  Ge  Ge1       1.0  0.29900  0.64900  0.05170  1.0000
  Ge  Ge2       1.0  0.37000  0.18500  0.44500  1.0000
  Ge  Ge3       1.0  0.63000  0.81500  0.55500  1.0000
  Ge  Ge4       1.0  0.70100  0.35100  0.94800  1.0000
