data_image0
_chemical_formula_structural       C2CaMgO6
_chemical_formula_sum              "C2 Ca1 Mg1 O6"
_cell_length_a       4.80469
_cell_length_b       4.80469
_cell_length_c       5.92117
_cell_angle_alpha    113.936
_cell_angle_beta     66.0636
_cell_angle_gamma    120

_space_group_name_H-M_alt    "P 1"
_space_group_IT_number       1

loop_
  _space_group_symop_operation_xyz
  'x, y, z'

loop_
  _atom_site_type_symbol
  _atom_site_label
  _atom_site_symmetry_multiplicity
  _atom_site_fract_x
  _atom_site_fract_y
  _atom_site_fract_z
  _atom_site_occupancy
  C   C1        1.0  0.24300  0.75700  0.27100  1.0000
  C   C2        1.0  0.75700  0.24300  0.72900  1.0000
  Ca  Ca1       1.0  0.00000  0.00000  0.00000  1.0000
  Mg  Mg1       1.0  0.50000  0.50000  0.50000  1.0000
  O   O1        1.0  0.49500  0.04060  0.26800  1.0000
  O   O2        1.0  0.27800  0.50500  0.26800  1.0000
  O   O3        1.0  0.95900  0.72200  0.26800  1.0000
  O   O4        1.0  0.04060  0.27800  0.73200  1.0000
  O   O5        1.0  0.72200  0.49500  0.73200  1.0000
  O   O6        1.0  0.50500  0.95900  0.73200  1.0000
