data_image0
_chemical_formula_structural       CrCuSe2
_chemical_formula_sum              "Cr1 Cu1 Se2"
_cell_length_a       3.73315
_cell_length_b       3.73316
_cell_length_c       6.72248
_cell_angle_alpha    73.8793
_cell_angle_beta     106.121
_cell_angle_gamma    120

_space_group_name_H-M_alt    "P 1"
_space_group_IT_number       1

loop_
  _space_group_symop_operation_xyz
  'x, y, z'

loop_
  _atom_site_type_symbol
  _atom_site_label
  _atom_site_symmetry_multiplicity
  _atom_site_fract_x
  _atom_site_fract_y
  _atom_site_fract_z
  _atom_site_occupancy
  Cr  Cr1       1.0  0.00257  0.99700  0.00770  1.0000
  Cu  Cu1       1.0  0.86000  0.14000  0.57900  1.0000
  Se  Se1       1.0  0.73700  0.26300  0.21000  1.0000
  Se  Se2       1.0  0.25700  0.74300  0.77100  1.0000
