data_image0
_chemical_formula_structural       Al3NiRu2U3
_chemical_formula_sum              "Al3 Ni1 Ru2 U3"
_cell_length_a       6.8413
_cell_length_b       6.8413
_cell_length_c       3.994
_cell_angle_alpha    90
_cell_angle_beta     90
_cell_angle_gamma    119.999

_space_group_name_H-M_alt    "P 1"
_space_group_IT_number       1

loop_
  _space_group_symop_operation_xyz
  'x, y, z'

loop_
  _atom_site_type_symbol
  _atom_site_label
  _atom_site_symmetry_multiplicity
  _atom_site_fract_x
  _atom_site_fract_y
  _atom_site_fract_z
  _atom_site_occupancy
  Al  Al1       1.0  0.23200  0.00001  0.00000  1.0000
  Al  Al2       1.0  0.00001  0.23200  0.00000  1.0000
  Al  Al3       1.0  0.76800  0.76800  0.00000  1.0000
  Ni  Ni1       1.0  0.00001  0.00001  0.50000  1.0000
  Ru  Ru1       1.0  0.66700  0.33300  0.00000  1.0000
  Ru  Ru2       1.0  0.33300  0.66700  0.00000  1.0000
  U   U1        1.0  0.57900  0.00001  0.50000  1.0000
  U   U2        1.0  0.42100  0.42100  0.50000  1.0000
  U   U3        1.0  0.00001  0.57900  0.50000  1.0000
