data_image0
_chemical_formula_structural       Mn2Se6U2
_chemical_formula_sum              "Mn2 Se6 U2"
_cell_length_a       3.87237
_cell_length_b       6.52078
_cell_length_c       9.27664
_cell_angle_alpha    90
_cell_angle_beta     90
_cell_angle_gamma    72.727

_space_group_name_H-M_alt    "P 1"
_space_group_IT_number       1

loop_
  _space_group_symop_operation_xyz
  'x, y, z'

loop_
  _atom_site_type_symbol
  _atom_site_label
  _atom_site_symmetry_multiplicity
  _atom_site_fract_x
  _atom_site_fract_y
  _atom_site_fract_z
  _atom_site_occupancy
  Mn  Mn1       1.0  0.00000  0.00000  0.00000  1.0000
  Mn  Mn2       1.0  0.00000  0.00000  0.50000  1.0000
  Se  Se1       1.0  0.35800  0.28400  0.05690  1.0000
  Se  Se2       1.0  0.08570  0.82900  0.25000  1.0000
  Se  Se3       1.0  0.35800  0.28400  0.44300  1.0000
  Se  Se4       1.0  0.64200  0.71600  0.55700  1.0000
  Se  Se5       1.0  0.91400  0.17100  0.75000  1.0000
  Se  Se6       1.0  0.64200  0.71600  0.94300  1.0000
  U   U1        1.0  0.75400  0.49100  0.25000  1.0000
  U   U2        1.0  0.24600  0.50900  0.75000  1.0000
