data_image0
_chemical_formula_structural       CuLa2O4
_chemical_formula_sum              "Cu1 La2 O4"
_cell_length_a       3.77006
_cell_length_b       3.77006
_cell_length_c       7.06313
_cell_angle_alpha    105.479
_cell_angle_beta     105.479
_cell_angle_gamma    90

_space_group_name_H-M_alt    "P 1"
_space_group_IT_number       1

loop_
  _space_group_symop_operation_xyz
  'x, y, z'

loop_
  _atom_site_type_symbol
  _atom_site_label
  _atom_site_symmetry_multiplicity
  _atom_site_fract_x
  _atom_site_fract_y
  _atom_site_fract_z
  _atom_site_occupancy
  Cu  Cu1       1.0  0.00000  0.00000  0.00000  1.0000
  La  La1       1.0  0.63900  0.63900  0.27700  1.0000
  La  La2       1.0  0.36100  0.36100  0.72300  1.0000
  O   O1        1.0  0.50000  0.00000  0.00000  1.0000
  O   O2        1.0  0.00000  0.50000  0.00000  1.0000
  O   O3        1.0  0.18400  0.18400  0.36900  1.0000
  O   O4        1.0  0.81600  0.81600  0.63100  1.0000
