data_image0
_chemical_formula_structural       Fe2S6U2
_chemical_formula_sum              "Fe2 S6 U2"
_cell_length_a       3.66911
_cell_length_b       5.64731
_cell_length_c       8.46439
_cell_angle_alpha    90
_cell_angle_beta     90
_cell_angle_gamma    71.0432

_space_group_name_H-M_alt    "P 1"
_space_group_IT_number       1

loop_
  _space_group_symop_operation_xyz
  'x, y, z'

loop_
  _atom_site_type_symbol
  _atom_site_label
  _atom_site_symmetry_multiplicity
  _atom_site_fract_x
  _atom_site_fract_y
  _atom_site_fract_z
  _atom_site_occupancy
  Fe  Fe1       1.0  0.00000  0.00000  0.00000  1.0000
  Fe  Fe2       1.0  0.00000  0.00000  0.50000  1.0000
  S   S1        1.0  0.36900  0.26200  0.04300  1.0000
  S   S2        1.0  0.07850  0.84300  0.25000  1.0000
  S   S3        1.0  0.36900  0.26200  0.45700  1.0000
  S   S4        1.0  0.63100  0.73800  0.54300  1.0000
  S   S5        1.0  0.92100  0.15700  0.75000  1.0000
  S   S6        1.0  0.63100  0.73800  0.95700  1.0000
  U   U1        1.0  0.76800  0.46400  0.25000  1.0000
  U   U2        1.0  0.23200  0.53600  0.75000  1.0000
