data_image0
_chemical_formula_structural       Se2Zr
_chemical_formula_sum              "Se2 Zr1"
_cell_length_a       3.78622
_cell_length_b       3.78618
_cell_length_c       6.3255
_cell_angle_alpha    90
_cell_angle_beta     90.0058
_cell_angle_gamma    120

_space_group_name_H-M_alt    "P 1"
_space_group_IT_number       1

loop_
  _space_group_symop_operation_xyz
  'x, y, z'

loop_
  _atom_site_type_symbol
  _atom_site_label
  _atom_site_symmetry_multiplicity
  _atom_site_fract_x
  _atom_site_fract_y
  _atom_site_fract_z
  _atom_site_occupancy
  Se  Se1       1.0  0.33300  0.66700  0.25300  1.0000
  Se  Se2       1.0  0.66700  0.33300  0.74700  1.0000
  Zr  Zr1       1.0  0.00000  0.00000  0.00000  1.0000
