data_image0
_chemical_formula_structural       La2Ni2Zn
_chemical_formula_sum              "La2 Ni2 Zn1"
_cell_length_a       4.38657
_cell_length_b       5.47218
_cell_length_c       5.55091
_cell_angle_alpha    119.532
_cell_angle_beta     113.274
_cell_angle_gamma    90

_space_group_name_H-M_alt    "P 1"
_space_group_IT_number       1

loop_
  _space_group_symop_operation_xyz
  'x, y, z'

loop_
  _atom_site_type_symbol
  _atom_site_label
  _atom_site_symmetry_multiplicity
  _atom_site_fract_x
  _atom_site_fract_y
  _atom_site_fract_z
  _atom_site_occupancy
  La  La1       1.0  0.19700  0.69700  0.39400  1.0000
  La  La2       1.0  0.80300  0.30300  0.60600  1.0000
  Ni  Ni1       1.0  0.50000  0.25300  0.00000  1.0000
  Ni  Ni2       1.0  0.50000  0.74700  0.00000  1.0000
  Zn  Zn1       1.0  0.00000  0.00000  0.00000  1.0000
