data_image0
_chemical_formula_structural       Be4Li4N4
_chemical_formula_sum              "Be4 Li4 N4"
_cell_length_a       4.50324
_cell_length_b       4.73495
_cell_length_c       5.78422
_cell_angle_alpha    90
_cell_angle_beta     125.196
_cell_angle_gamma    90

_space_group_name_H-M_alt    "P 1"
_space_group_IT_number       1

loop_
  _space_group_symop_operation_xyz
  'x, y, z'

loop_
  _atom_site_type_symbol
  _atom_site_label
  _atom_site_symmetry_multiplicity
  _atom_site_fract_x
  _atom_site_fract_y
  _atom_site_fract_z
  _atom_site_occupancy
  Be  Be1       1.0  0.91900  0.89300  0.10700  1.0000
  Be  Be2       1.0  0.08140  0.39300  0.39300  1.0000
  Be  Be3       1.0  0.91900  0.60700  0.60700  1.0000
  Be  Be4       1.0  0.08140  0.10700  0.89300  1.0000
  Li  Li1       1.0  0.32500  0.54300  0.09010  1.0000
  Li  Li2       1.0  0.67500  0.04320  0.41000  1.0000
  Li  Li3       1.0  0.32500  0.95700  0.59000  1.0000
  Li  Li4       1.0  0.67500  0.45700  0.91000  1.0000
  N   N1        1.0  0.15200  0.19600  0.20000  1.0000
  N   N2        1.0  0.84800  0.69600  0.30000  1.0000
  N   N3        1.0  0.15200  0.30400  0.70000  1.0000
  N   N4        1.0  0.84800  0.80400  0.80000  1.0000
