data_image0
_chemical_formula_structural       F6NiRh
_chemical_formula_sum              "F6 Ni1 Rh1"
_cell_length_a       4.71577
_cell_length_b       4.71577
_cell_length_c       5.16987
_cell_angle_alpha    117.135
_cell_angle_beta     117.135
_cell_angle_gamma    60

_space_group_name_H-M_alt    "P 1"
_space_group_IT_number       1

loop_
  _space_group_symop_operation_xyz
  'x, y, z'

loop_
  _atom_site_type_symbol
  _atom_site_label
  _atom_site_symmetry_multiplicity
  _atom_site_fract_x
  _atom_site_fract_y
  _atom_site_fract_z
  _atom_site_occupancy
  F   F1        1.0  0.07700  0.42800  0.25200  1.0000
  F   F2        1.0  0.74700  0.07700  0.25200  1.0000
  F   F3        1.0  0.42800  0.74700  0.25200  1.0000
  F   F4        1.0  0.57200  0.25300  0.74800  1.0000
  F   F5        1.0  0.25300  0.92300  0.74800  1.0000
  F   F6        1.0  0.92300  0.57200  0.74800  1.0000
  Ni  Ni1       1.0  0.50000  0.50000  0.50000  1.0000
  Rh  Rh1       1.0  0.00000  0.00000  0.00000  1.0000
