data_image0
_chemical_formula_structural       Fe4I2La4
_chemical_formula_sum              "Fe4 I2 La4"
_cell_length_a       4.05625
_cell_length_b       4.0563
_cell_length_c       18.1087
_cell_angle_alpha    90
_cell_angle_beta     90
_cell_angle_gamma    120

_space_group_name_H-M_alt    "P 1"
_space_group_IT_number       1

loop_
  _space_group_symop_operation_xyz
  'x, y, z'

loop_
  _atom_site_type_symbol
  _atom_site_label
  _atom_site_symmetry_multiplicity
  _atom_site_fract_x
  _atom_site_fract_y
  _atom_site_fract_z
  _atom_site_occupancy
  Fe  Fe1       1.0  0.33300  0.66700  0.00151  1.0000
  Fe  Fe2       1.0  0.33300  0.66700  0.49800  1.0000
  Fe  Fe3       1.0  0.66700  0.33300  0.50200  1.0000
  Fe  Fe4       1.0  0.66700  0.33300  0.99800  1.0000
  I   I1        1.0  0.66700  0.33300  0.25000  1.0000
  I   I2        1.0  0.33300  0.66700  0.75000  1.0000
  La  La1       1.0  0.00000  0.00001  0.10600  1.0000
  La  La2       1.0  0.00000  0.00001  0.39400  1.0000
  La  La3       1.0  1.00000  0.99999  0.60600  1.0000
  La  La4       1.0  1.00000  0.99999  0.89400  1.0000
