data_image0
_chemical_formula_structural       B2La3N3Ni2
_chemical_formula_sum              "B2 La3 N3 Ni2"
_cell_length_a       3.75189
_cell_length_b       3.75189
_cell_length_c       10.3073
_cell_angle_alpha    100.486
_cell_angle_beta     100.486
_cell_angle_gamma    90

_space_group_name_H-M_alt    "P 1"
_space_group_IT_number       1

loop_
  _space_group_symop_operation_xyz
  'x, y, z'

loop_
  _atom_site_type_symbol
  _atom_site_label
  _atom_site_symmetry_multiplicity
  _atom_site_fract_x
  _atom_site_fract_y
  _atom_site_fract_z
  _atom_site_occupancy
  B   B1        1.0  0.20000  0.20000  0.40000  1.0000
  B   B2        1.0  0.80000  0.80000  0.60000  1.0000
  La  La1       1.0  0.00000  0.00000  0.00000  1.0000
  La  La2       1.0  0.63000  0.63000  0.26000  1.0000
  La  La3       1.0  0.37000  0.37000  0.74000  1.0000
  N   N1        1.0  0.50000  0.50000  0.00000  1.0000
  N   N2        1.0  0.12700  0.12700  0.25400  1.0000
  N   N3        1.0  0.87300  0.87300  0.74600  1.0000
  Ni  Ni1       1.0  0.75000  0.25000  0.50000  1.0000
  Ni  Ni2       1.0  0.25000  0.75000  0.50000  1.0000
