data_image0
_chemical_formula_structural       P2V2
_chemical_formula_sum              "P2 V2"
_cell_length_a       3.12787
_cell_length_b       3.12804
_cell_length_c       6.26391
_cell_angle_alpha    90
_cell_angle_beta     90
_cell_angle_gamma    119.998

_space_group_name_H-M_alt    "P 1"
_space_group_IT_number       1

loop_
  _space_group_symop_operation_xyz
  'x, y, z'

loop_
  _atom_site_type_symbol
  _atom_site_label
  _atom_site_symmetry_multiplicity
  _atom_site_fract_x
  _atom_site_fract_y
  _atom_site_fract_z
  _atom_site_occupancy
  P   P1        1.0  0.33300  0.66700  0.25000  1.0000
  P   P2        1.0  0.66700  0.33300  0.75000  1.0000
  V   V1        1.0  0.00000  0.00000  0.00000  1.0000
  V   V2        1.0  0.00000  0.00000  0.50000  1.0000
