data_image0
_chemical_formula_structural       Ca2Ge4Pt4
_chemical_formula_sum              "Ca2 Ge4 Pt4"
_cell_length_a       4.40856
_cell_length_b       4.40597
_cell_length_c       9.96542
_cell_angle_alpha    90
_cell_angle_beta     90.6286
_cell_angle_gamma    90

_space_group_name_H-M_alt    "P 1"
_space_group_IT_number       1

loop_
  _space_group_symop_operation_xyz
  'x, y, z'

loop_
  _atom_site_type_symbol
  _atom_site_label
  _atom_site_symmetry_multiplicity
  _atom_site_fract_x
  _atom_site_fract_y
  _atom_site_fract_z
  _atom_site_occupancy
  Ca  Ca1       1.0  0.74500  0.74400  0.25300  1.0000
  Ca  Ca2       1.0  0.25500  0.24400  0.74700  1.0000
  Ge  Ge1       1.0  0.24600  0.27500  0.12600  1.0000
  Ge  Ge2       1.0  0.75000  0.21700  0.50000  1.0000
  Ge  Ge3       1.0  0.25000  0.71700  0.50000  1.0000
  Ge  Ge4       1.0  0.75400  0.77500  0.87400  1.0000
  Pt  Pt1       1.0  0.25600  0.77700  0.00076  1.0000
  Pt  Pt2       1.0  0.24600  0.21500  0.37400  1.0000
  Pt  Pt3       1.0  0.75400  0.71500  0.62600  1.0000
  Pt  Pt4       1.0  0.74400  0.27700  0.99900  1.0000
