data_image0
_chemical_formula_structural       Ca2Ge2N4
_chemical_formula_sum              "Ca2 Ge2 N4"
_cell_length_a       5.24092
_cell_length_b       5.24092
_cell_length_c       5.24092
_cell_angle_alpha    117.52
_cell_angle_beta     94.3514
_cell_angle_gamma    117.52

_space_group_name_H-M_alt    "P 1"
_space_group_IT_number       1

loop_
  _space_group_symop_operation_xyz
  'x, y, z'

loop_
  _atom_site_type_symbol
  _atom_site_label
  _atom_site_symmetry_multiplicity
  _atom_site_fract_x
  _atom_site_fract_y
  _atom_site_fract_z
  _atom_site_occupancy
  Ca  Ca1       1.0  0.50000  0.00000  0.50000  1.0000
  Ca  Ca2       1.0  0.25000  0.50000  0.75000  1.0000
  Ge  Ge1       1.0  0.00000  0.00000  0.00000  1.0000
  Ge  Ge2       1.0  0.75000  0.50000  0.25000  1.0000
  N   N1        1.0  0.70100  0.07620  0.12500  1.0000
  N   N2        1.0  0.37500  0.42400  0.29900  1.0000
  N   N3        1.0  0.04880  0.92400  0.62500  1.0000
  N   N4        1.0  0.87500  0.57600  0.95100  1.0000
