data_image0
_chemical_formula_structural       B2Cu2Se4
_chemical_formula_sum              "B2 Cu2 Se4"
_cell_length_a       5.33955
_cell_length_b       5.33955
_cell_length_c       6.15953
_cell_angle_alpha    115.686
_cell_angle_beta     115.686
_cell_angle_gamma    90

_space_group_name_H-M_alt    "P 1"
_space_group_IT_number       1

loop_
  _space_group_symop_operation_xyz
  'x, y, z'

loop_
  _atom_site_type_symbol
  _atom_site_label
  _atom_site_symmetry_multiplicity
  _atom_site_fract_x
  _atom_site_fract_y
  _atom_site_fract_z
  _atom_site_occupancy
  B   B1        1.0  0.50000  0.50000  1.00000  1.0000
  B   B2        1.0  0.75000  0.25000  0.50000  1.0000
  Cu  Cu1       1.0  0.00000  0.00000  0.00000  1.0000
  Cu  Cu2       1.0  0.25000  0.75000  0.50000  1.0000
  Se  Se1       1.0  0.82800  0.87500  0.25000  1.0000
  Se  Se2       1.0  0.42200  0.37500  0.25000  1.0000
  Se  Se3       1.0  0.62500  0.17200  0.75000  1.0000
  Se  Se4       1.0  0.12500  0.57800  0.75000  1.0000
