data_image0
_chemical_formula_structural       Se4Ti5
_chemical_formula_sum              "Se4 Ti5"
_cell_length_a       3.47707
_cell_length_b       7.0792
_cell_length_c       7.0792
_cell_angle_alpha    93.4577
_cell_angle_beta     75.7837
_cell_angle_gamma    104.216

_space_group_name_H-M_alt    "P 1"
_space_group_IT_number       1

loop_
  _space_group_symop_operation_xyz
  'x, y, z'

loop_
  _atom_site_type_symbol
  _atom_site_label
  _atom_site_symmetry_multiplicity
  _atom_site_fract_x
  _atom_site_fract_y
  _atom_site_fract_z
  _atom_site_occupancy
  Se  Se1       1.0  0.05710  0.33000  0.21600  1.0000
  Se  Se2       1.0  0.72700  0.78400  0.33000  1.0000
  Se  Se3       1.0  0.27300  0.21600  0.67000  1.0000
  Se  Se4       1.0  0.94300  0.67000  0.78400  1.0000
  Ti  Ti1       1.0  0.00000  0.00000  0.00000  1.0000
  Ti  Ti2       1.0  0.30700  0.67800  0.06510  1.0000
  Ti  Ti3       1.0  0.37200  0.06510  0.32200  1.0000
  Ti  Ti4       1.0  0.62800  0.93500  0.67800  1.0000
  Ti  Ti5       1.0  0.69300  0.32200  0.93500  1.0000
