data_image0
_chemical_formula_structural       Si4Th6
_chemical_formula_sum              "Si4 Th6"
_cell_length_a       9.40566
_cell_length_b       9.40566
_cell_length_c       3.39575
_cell_angle_alpha    90
_cell_angle_beta     90
_cell_angle_gamma    90

_space_group_name_H-M_alt    "P 1"
_space_group_IT_number       1

loop_
  _space_group_symop_operation_xyz
  'x, y, z'

loop_
  _atom_site_type_symbol
  _atom_site_label
  _atom_site_symmetry_multiplicity
  _atom_site_fract_x
  _atom_site_fract_y
  _atom_site_fract_z
  _atom_site_occupancy
  Si  Si1       1.0  0.58600  0.08570  0.50000  1.0000
  Si  Si2       1.0  0.08570  0.41400  0.50000  1.0000
  Si  Si3       1.0  0.91400  0.58600  0.50000  1.0000
  Si  Si4       1.0  0.41400  0.91400  0.50000  1.0000
  Th  Th1       1.0  0.00000  0.00000  0.00000  1.0000
  Th  Th2       1.0  0.50000  0.50000  0.00000  1.0000
  Th  Th3       1.0  0.29400  0.20600  0.50000  1.0000
  Th  Th4       1.0  0.79400  0.29400  0.50000  1.0000
  Th  Th5       1.0  0.20600  0.70600  0.50000  1.0000
  Th  Th6       1.0  0.70600  0.79400  0.50000  1.0000
