data_image0
_chemical_formula_structural       Bi2Mn3O2Sr2
_chemical_formula_sum              "Bi2 Mn3 O2 Sr2"
_cell_length_a       4.33726
_cell_length_b       4.33726
_cell_length_c       10.903
_cell_angle_alpha    101.473
_cell_angle_beta     101.473
_cell_angle_gamma    90

_space_group_name_H-M_alt    "P 1"
_space_group_IT_number       1

loop_
  _space_group_symop_operation_xyz
  'x, y, z'

loop_
  _atom_site_type_symbol
  _atom_site_label
  _atom_site_symmetry_multiplicity
  _atom_site_fract_x
  _atom_site_fract_y
  _atom_site_fract_z
  _atom_site_occupancy
  Bi  Bi1       1.0  0.15900  0.15900  0.31800  1.0000
  Bi  Bi2       1.0  0.84100  0.84100  0.68200  1.0000
  Mn  Mn1       1.0  0.00000  0.00000  0.00000  1.0000
  Mn  Mn2       1.0  0.75000  0.25000  0.50000  1.0000
  Mn  Mn3       1.0  0.25000  0.75000  0.50000  1.0000
  O   O1        1.0  0.50000  0.00000  0.00000  1.0000
  O   O2        1.0  0.00000  0.50000  0.00000  1.0000
  Sr  Sr1       1.0  0.57600  0.57600  0.15300  1.0000
  Sr  Sr2       1.0  0.42400  0.42400  0.84700  1.0000
