data_image0
_chemical_formula_structural       CaCsN3O6
_chemical_formula_sum              "Ca1 Cs1 N3 O6"
_cell_length_a       5.40783
_cell_length_b       5.40783
_cell_length_c       5.40783
_cell_angle_alpha    89.657
_cell_angle_beta     89.657
_cell_angle_gamma    89.657

_space_group_name_H-M_alt    "P 1"
_space_group_IT_number       1

loop_
  _space_group_symop_operation_xyz
  'x, y, z'

loop_
  _atom_site_type_symbol
  _atom_site_label
  _atom_site_symmetry_multiplicity
  _atom_site_fract_x
  _atom_site_fract_y
  _atom_site_fract_z
  _atom_site_occupancy
  Ca  Ca1       1.0  0.53300  0.53300  0.53300  1.0000
  Cs  Cs1       1.0  0.00000  1.00000  1.00000  1.0000
  N   N1        1.0  0.48200  0.51000  0.07240  1.0000
  N   N2        1.0  0.51000  0.07240  0.48200  1.0000
  N   N3        1.0  0.07240  0.48200  0.51000  1.0000
  O   O1        1.0  0.94400  0.48000  0.31500  1.0000
  O   O2        1.0  0.31500  0.94400  0.48000  1.0000
  O   O3        1.0  0.71100  0.95000  0.49200  1.0000
  O   O4        1.0  0.95000  0.49200  0.71100  1.0000
  O   O5        1.0  0.48000  0.31500  0.94400  1.0000
  O   O6        1.0  0.49200  0.71100  0.95000  1.0000
