data_image0
_chemical_formula_structural       NiS8V4
_chemical_formula_sum              "Ni1 S8 V4"
_cell_length_a       6.4554
_cell_length_b       6.4554
_cell_length_c       6.51024
_cell_angle_alpha    104.081
_cell_angle_beta     105.762
_cell_angle_gamma    118.73

_space_group_name_H-M_alt    "P 1"
_space_group_IT_number       1

loop_
  _space_group_symop_operation_xyz
  'x, y, z'

loop_
  _atom_site_type_symbol
  _atom_site_label
  _atom_site_symmetry_multiplicity
  _atom_site_fract_x
  _atom_site_fract_y
  _atom_site_fract_z
  _atom_site_occupancy
  Ni  Ni1       1.0  0.00000  0.00000  0.00000  1.0000
  S   S1        1.0  0.21600  0.45800  0.17200  1.0000
  S   S2        1.0  0.71400  0.95600  0.17200  1.0000
  S   S3        1.0  0.30200  0.02920  0.33100  1.0000
  S   S4        1.0  0.77700  0.55500  0.33200  1.0000
  S   S5        1.0  0.22300  0.44500  0.66800  1.0000
  S   S6        1.0  0.69800  0.97100  0.66900  1.0000
  S   S7        1.0  0.28600  0.04370  0.82800  1.0000
  S   S8        1.0  0.78400  0.54200  0.82800  1.0000
  V   V1        1.0  0.75900  0.26600  0.02560  1.0000
  V   V2        1.0  0.21500  0.71500  0.50000  1.0000
  V   V3        1.0  0.78500  0.28500  0.50000  1.0000
  V   V4        1.0  0.24100  0.73400  0.97400  1.0000
