data_image0
_chemical_formula_structural       F4H4O4
_chemical_formula_sum              "F4 H4 O4"
_cell_length_a       3.77088
_cell_length_b       4.40891
_cell_length_c       5.32013
_cell_angle_alpha    90
_cell_angle_beta     90
_cell_angle_gamma    90

_space_group_name_H-M_alt    "P 1"
_space_group_IT_number       1

loop_
  _space_group_symop_operation_xyz
  'x, y, z'

loop_
  _atom_site_type_symbol
  _atom_site_label
  _atom_site_symmetry_multiplicity
  _atom_site_fract_x
  _atom_site_fract_y
  _atom_site_fract_z
  _atom_site_occupancy
  F   F1        1.0  0.93500  0.75400  0.14900  1.0000
  F   F2        1.0  0.06520  0.25400  0.35100  1.0000
  F   F3        1.0  0.56500  0.24600  0.64900  1.0000
  F   F4        1.0  0.43500  0.74600  0.85100  1.0000
  H   H1        1.0  0.47300  0.44200  0.22100  1.0000
  H   H2        1.0  0.52700  0.94200  0.27900  1.0000
  H   H3        1.0  0.02730  0.55800  0.72100  1.0000
  H   H4        1.0  0.97300  0.05820  0.77900  1.0000
  O   O1        1.0  0.35200  0.24200  0.16900  1.0000
  O   O2        1.0  0.64800  0.74200  0.33100  1.0000
  O   O3        1.0  0.14800  0.75800  0.66900  1.0000
  O   O4        1.0  0.85200  0.25800  0.83100  1.0000
