data_image0
_chemical_formula_structural       In8Ir4
_chemical_formula_sum              "In8 Ir4"
_cell_length_a       5.39599
_cell_length_b       5.64206
_cell_length_c       9.49733
_cell_angle_alpha    97.8075
_cell_angle_beta     106.504
_cell_angle_gamma    61.4325

_space_group_name_H-M_alt    "P 1"
_space_group_IT_number       1

loop_
  _space_group_symop_operation_xyz
  'x, y, z'

loop_
  _atom_site_type_symbol
  _atom_site_label
  _atom_site_symmetry_multiplicity
  _atom_site_fract_x
  _atom_site_fract_y
  _atom_site_fract_z
  _atom_site_occupancy
  In  In1       1.0  0.28900  0.25000  0.07840  1.0000
  In  In2       1.0  0.71800  0.56400  0.25000  1.0000
  In  In3       1.0  0.03180  0.93600  0.25000  1.0000
  In  In4       1.0  0.46100  0.25000  0.42200  1.0000
  In  In5       1.0  0.53900  0.75000  0.57800  1.0000
  In  In6       1.0  0.96800  0.06360  0.75000  1.0000
  In  In7       1.0  0.28200  0.43600  0.75000  1.0000
  In  In8       1.0  0.71100  0.75000  0.92200  1.0000
  Ir  Ir1       1.0  0.25500  0.75000  0.01030  1.0000
  Ir  Ir2       1.0  0.99500  0.75000  0.49000  1.0000
  Ir  Ir3       1.0  0.00515  0.25000  0.51000  1.0000
  Ir  Ir4       1.0  0.74500  0.25000  0.99000  1.0000
