data_image0
_chemical_formula_structural       Cu8Se4Tl
_chemical_formula_sum              "Cu8 Se4 Tl1"
_cell_length_a       3.87642
_cell_length_b       7.76933
_cell_length_c       7.76933
_cell_angle_alpha    93.5681
_cell_angle_beta     75.5539
_cell_angle_gamma    104.446

_space_group_name_H-M_alt    "P 1"
_space_group_IT_number       1

loop_
  _space_group_symop_operation_xyz
  'x, y, z'

loop_
  _atom_site_type_symbol
  _atom_site_label
  _atom_site_symmetry_multiplicity
  _atom_site_fract_x
  _atom_site_fract_y
  _atom_site_fract_z
  _atom_site_occupancy
  Cu  Cu1       1.0  0.20800  0.53200  0.11600  1.0000
  Cu  Cu2       1.0  0.61800  0.59300  0.35700  1.0000
  Cu  Cu3       1.0  0.97500  0.35700  0.40700  1.0000
  Cu  Cu4       1.0  0.32400  0.11600  0.46800  1.0000
  Cu  Cu5       1.0  0.67600  0.88400  0.53200  1.0000
  Cu  Cu6       1.0  0.02490  0.64300  0.59300  1.0000
  Cu  Cu7       1.0  0.38200  0.40700  0.64300  1.0000
  Cu  Cu8       1.0  0.79200  0.46800  0.88400  1.0000
  Se  Se1       1.0  0.57000  0.31200  0.17300  1.0000
  Se  Se2       1.0  0.25700  0.82700  0.31200  1.0000
  Se  Se3       1.0  0.74300  0.17300  0.68800  1.0000
  Se  Se4       1.0  0.43000  0.68800  0.82700  1.0000
  Tl  Tl1       1.0  0.00000  0.00000  0.00000  1.0000
