data_image0
_chemical_formula_structural       Cu8KS4
_chemical_formula_sum              "Cu8 K1 S4"
_cell_length_a       3.77375
_cell_length_b       7.55085
_cell_length_c       7.55085
_cell_angle_alpha    93.5801
_cell_angle_beta     75.529
_cell_angle_gamma    104.471

_space_group_name_H-M_alt    "P 1"
_space_group_IT_number       1

loop_
  _space_group_symop_operation_xyz
  'x, y, z'

loop_
  _atom_site_type_symbol
  _atom_site_label
  _atom_site_symmetry_multiplicity
  _atom_site_fract_x
  _atom_site_fract_y
  _atom_site_fract_z
  _atom_site_occupancy
  Cu  Cu1       1.0  0.20000  0.56000  0.11100  1.0000
  Cu  Cu2       1.0  0.61500  0.60500  0.35700  1.0000
  Cu  Cu3       1.0  0.99000  0.35700  0.39500  1.0000
  Cu  Cu4       1.0  0.35900  0.11100  0.44000  1.0000
  Cu  Cu5       1.0  0.68900  0.88900  0.56000  1.0000
  Cu  Cu6       1.0  0.02840  0.64300  0.60500  1.0000
  Cu  Cu7       1.0  0.36700  0.39500  0.64300  1.0000
  Cu  Cu8       1.0  0.75200  0.44000  0.88900  1.0000
  K   K1        1.0  0.00000  0.00000  0.00000  1.0000
  S   S1        1.0  0.59100  0.32600  0.17900  1.0000
  S   S2        1.0  0.23000  0.82100  0.32600  1.0000
  S   S3        1.0  0.73500  0.17900  0.67400  1.0000
  S   S4        1.0  0.44300  0.67400  0.82100  1.0000
