data_image0
_chemical_formula_structural       H6I2Li2N2
_chemical_formula_sum              "H6 I2 Li2 N2"
_cell_length_a       4.02365
_cell_length_b       4.7023
_cell_length_c       8.68437
_cell_angle_alpha    90
_cell_angle_beta     103.663
_cell_angle_gamma    90

_space_group_name_H-M_alt    "P 1"
_space_group_IT_number       1

loop_
  _space_group_symop_operation_xyz
  'x, y, z'

loop_
  _atom_site_type_symbol
  _atom_site_label
  _atom_site_symmetry_multiplicity
  _atom_site_fract_x
  _atom_site_fract_y
  _atom_site_fract_z
  _atom_site_occupancy
  H   H1        1.0  0.41800  0.69300  0.19800  1.0000
  H   H2        1.0  0.55800  0.47500  0.48600  1.0000
  H   H3        1.0  0.73700  0.43000  0.48700  1.0000
  H   H4        1.0  0.26300  0.93000  0.51300  1.0000
  H   H5        1.0  0.44200  0.97500  0.51400  1.0000
  H   H6        1.0  0.58200  0.19300  0.80200  1.0000
  I   I1        1.0  0.91200  0.66000  0.18500  1.0000
  I   I2        1.0  0.08800  0.16000  0.81500  1.0000
  Li  Li1       1.0  0.39900  0.16900  0.16800  1.0000
  Li  Li2       1.0  0.60100  0.66900  0.83200  1.0000
  N   N1        1.0  0.90000  0.23700  0.17300  1.0000
  N   N2        1.0  0.10000  0.73700  0.82700  1.0000
