data_image0
_chemical_formula_structural       B2Ba2CaO6
_chemical_formula_sum              "B2 Ba2 Ca1 O6"
_cell_length_a       5.4346
_cell_length_b       5.54656
_cell_length_c       6.54492
_cell_angle_alpha    90.3963
_cell_angle_beta     114.53
_cell_angle_gamma    119.334

_space_group_name_H-M_alt    "P 1"
_space_group_IT_number       1

loop_
  _space_group_symop_operation_xyz
  'x, y, z'

loop_
  _atom_site_type_symbol
  _atom_site_label
  _atom_site_symmetry_multiplicity
  _atom_site_fract_x
  _atom_site_fract_y
  _atom_site_fract_z
  _atom_site_occupancy
  B   B1        1.0  0.80900  0.37200  0.24600  1.0000
  B   B2        1.0  0.19100  0.62800  0.75400  1.0000
  Ba  Ba1       1.0  0.52800  0.74000  0.31700  1.0000
  Ba  Ba2       1.0  0.47200  0.26000  0.68300  1.0000
  Ca  Ca1       1.0  0.00000  0.00000  0.00000  1.0000
  O   O1        1.0  0.90100  0.62500  0.17800  1.0000
  O   O2        1.0  0.53600  0.23800  0.27500  1.0000
  O   O3        1.0  0.97700  0.23800  0.27500  1.0000
  O   O4        1.0  0.02290  0.76200  0.72500  1.0000
  O   O5        1.0  0.46400  0.76200  0.72500  1.0000
  O   O6        1.0  0.09900  0.37500  0.82200  1.0000
