data_image0
_chemical_formula_structural       CuS8Sn4
_chemical_formula_sum              "Cu1 S8 Sn4"
_cell_length_a       7.46727
_cell_length_b       7.46727
_cell_length_c       7.46727
_cell_angle_alpha    120
_cell_angle_beta     90
_cell_angle_gamma    120

_space_group_name_H-M_alt    "P 1"
_space_group_IT_number       1

loop_
  _space_group_symop_operation_xyz
  'x, y, z'

loop_
  _atom_site_type_symbol
  _atom_site_label
  _atom_site_symmetry_multiplicity
  _atom_site_fract_x
  _atom_site_fract_y
  _atom_site_fract_z
  _atom_site_occupancy
  Cu  Cu1       1.0  0.75000  0.50000  0.25000  1.0000
  S   S1        1.0  0.62300  0.24600  0.37700  1.0000
  S   S2        1.0  0.13100  0.75400  0.37700  1.0000
  S   S3        1.0  0.62300  0.75400  0.37700  1.0000
  S   S4        1.0  0.12600  0.25200  0.37700  1.0000
  S   S5        1.0  0.62300  0.24600  0.86900  1.0000
  S   S6        1.0  0.12600  0.25200  0.87400  1.0000
  S   S7        1.0  0.12600  0.74800  0.87400  1.0000
  S   S8        1.0  0.62300  0.74800  0.87400  1.0000
  Sn  Sn1       1.0  0.37200  0.74300  0.11500  1.0000
  Sn  Sn2       1.0  0.37200  0.74300  0.62800  1.0000
  Sn  Sn3       1.0  0.37200  0.25700  0.62800  1.0000
  Sn  Sn4       1.0  0.88500  0.25700  0.62800  1.0000
