data_image0
_chemical_formula_structural       Al8Fe4Th
_chemical_formula_sum              "Al8 Fe4 Th1"
_cell_length_a       5.02738
_cell_length_b       6.70308
_cell_length_c       6.70308
_cell_angle_alpha    98.0842
_cell_angle_beta     67.9754
_cell_angle_gamma    112.025

_space_group_name_H-M_alt    "P 1"
_space_group_IT_number       1

loop_
  _space_group_symop_operation_xyz
  'x, y, z'

loop_
  _atom_site_type_symbol
  _atom_site_label
  _atom_site_symmetry_multiplicity
  _atom_site_fract_x
  _atom_site_fract_y
  _atom_site_fract_z
  _atom_site_occupancy
  Al  Al1       1.0  0.50000  0.22400  0.22400  1.0000
  Al  Al2       1.0  0.27600  0.77600  0.22400  1.0000
  Al  Al3       1.0  0.00000  0.34500  0.34500  1.0000
  Al  Al4       1.0  0.65500  0.65500  0.34500  1.0000
  Al  Al5       1.0  0.34500  0.34500  0.65500  1.0000
  Al  Al6       1.0  0.00000  0.65500  0.65500  1.0000
  Al  Al7       1.0  0.72400  0.22400  0.77600  1.0000
  Al  Al8       1.0  0.50000  0.77600  0.77600  1.0000
  Fe  Fe1       1.0  1.00000  0.50000  0.00000  1.0000
  Fe  Fe2       1.0  0.50000  0.50000  0.00000  1.0000
  Fe  Fe3       1.0  0.00000  0.00000  0.50000  1.0000
  Fe  Fe4       1.0  0.50000  0.00000  0.50000  1.0000
  Th  Th1       1.0  0.00000  0.00000  0.00000  1.0000
