data_image0
_chemical_formula_structural       Al4Pd4Tb4
_chemical_formula_sum              "Al4 Pd4 Tb4"
_cell_length_a       6.93515
_cell_length_b       4.45078
_cell_length_c       7.77304
_cell_angle_alpha    90
_cell_angle_beta     90
_cell_angle_gamma    90

_space_group_name_H-M_alt    "P 1"
_space_group_IT_number       1

loop_
  _space_group_symop_operation_xyz
  'x, y, z'

loop_
  _atom_site_type_symbol
  _atom_site_label
  _atom_site_symmetry_multiplicity
  _atom_site_fract_x
  _atom_site_fract_y
  _atom_site_fract_z
  _atom_site_occupancy
  Al  Al1       1.0  0.85500  0.75000  0.06360  1.0000
  Al  Al2       1.0  0.35500  0.75000  0.43600  1.0000
  Al  Al3       1.0  0.64500  0.25000  0.56400  1.0000
  Al  Al4       1.0  0.14500  0.25000  0.93600  1.0000
  Pd  Pd1       1.0  0.22600  0.75000  0.11700  1.0000
  Pd  Pd2       1.0  0.72600  0.75000  0.38300  1.0000
  Pd  Pd3       1.0  0.27400  0.25000  0.61700  1.0000
  Pd  Pd4       1.0  0.77400  0.25000  0.88300  1.0000
  Tb  Tb1       1.0  0.53200  0.25000  0.18000  1.0000
  Tb  Tb2       1.0  0.03210  0.25000  0.32000  1.0000
  Tb  Tb3       1.0  0.96800  0.75000  0.68000  1.0000
  Tb  Tb4       1.0  0.46800  0.75000  0.82000  1.0000
