data_image0
_chemical_formula_structural       Ag2P2S6
_chemical_formula_sum              "Ag2 P2 S6"
_cell_length_a       6.71008
_cell_length_b       6.71008
_cell_length_c       6.68136
_cell_angle_alpha    95.5156
_cell_angle_beta     117.62
_cell_angle_gamma    116.275

_space_group_name_H-M_alt    "P 1"
_space_group_IT_number       1

loop_
  _space_group_symop_operation_xyz
  'x, y, z'

loop_
  _atom_site_type_symbol
  _atom_site_label
  _atom_site_symmetry_multiplicity
  _atom_site_fract_x
  _atom_site_fract_y
  _atom_site_fract_z
  _atom_site_occupancy
  Ag  Ag1       1.0  0.27200  0.27200  0.00000  1.0000
  Ag  Ag2       1.0  0.72800  0.72800  0.00000  1.0000
  P   P1        1.0  0.06590  0.34600  0.41200  1.0000
  P   P2        1.0  0.93400  0.65400  0.58800  1.0000
  S   S1        1.0  0.87500  0.17800  0.05350  1.0000
  S   S2        1.0  0.65100  0.70500  0.35600  1.0000
  S   S3        1.0  0.77900  0.27900  0.50000  1.0000
  S   S4        1.0  0.22100  0.72100  0.50000  1.0000
  S   S5        1.0  0.34900  0.29500  0.64400  1.0000
  S   S6        1.0  0.12500  0.82200  0.94600  1.0000
