data_image0
_chemical_formula_structural       Cu8S4Tl
_chemical_formula_sum              "Cu8 S4 Tl1"
_cell_length_a       3.80107
_cell_length_b       7.56086
_cell_length_c       7.56086
_cell_angle_alpha    93.6226
_cell_angle_beta     104.558
_cell_angle_gamma    75.4417

_space_group_name_H-M_alt    "P 1"
_space_group_IT_number       1

loop_
  _space_group_symop_operation_xyz
  'x, y, z'

loop_
  _atom_site_type_symbol
  _atom_site_label
  _atom_site_symmetry_multiplicity
  _atom_site_fract_x
  _atom_site_fract_y
  _atom_site_fract_z
  _atom_site_occupancy
  Cu  Cu1       1.0  0.92300  0.60700  0.06520  1.0000
  Cu  Cu2       1.0  0.35600  0.85900  0.11000  1.0000
  Cu  Cu3       1.0  0.78600  0.11000  0.14100  1.0000
  Cu  Cu4       1.0  0.47000  0.06520  0.39300  1.0000
  Cu  Cu5       1.0  0.14200  0.93500  0.60700  1.0000
  Cu  Cu6       1.0  0.75400  0.89000  0.85900  1.0000
  Cu  Cu7       1.0  0.10400  0.14100  0.89000  1.0000
  Cu  Cu8       1.0  0.46500  0.39300  0.93500  1.0000
  S   S1        1.0  0.20600  0.31900  0.17200  1.0000
  S   S2        1.0  0.96700  0.82800  0.31900  1.0000
  S   S3        1.0  0.47600  0.17200  0.68100  1.0000
  S   S4        1.0  0.35200  0.68100  0.82800  1.0000
  Tl  Tl1       1.0  0.75000  0.50000  0.50000  1.0000
