data_image0
_chemical_formula_structural       K2O8S2
_chemical_formula_sum              "K2 O8 S2"
_cell_length_a       5.31154
_cell_length_b       7.13766
_cell_length_c       4.91825
_cell_angle_alpha    108.52
_cell_angle_beta     87.4569
_cell_angle_gamma    106.228

_space_group_name_H-M_alt    "P 1"
_space_group_IT_number       1

loop_
  _space_group_symop_operation_xyz
  'x, y, z'

loop_
  _atom_site_type_symbol
  _atom_site_label
  _atom_site_symmetry_multiplicity
  _atom_site_fract_x
  _atom_site_fract_y
  _atom_site_fract_z
  _atom_site_occupancy
  K   K1        1.0  0.16300  0.76500  0.42200  1.0000
  K   K2        1.0  0.83700  0.23500  0.57800  1.0000
  O   O1        1.0  0.13200  0.02270  0.07180  1.0000
  O   O2        1.0  0.55600  0.26100  0.15900  1.0000
  O   O3        1.0  0.16800  0.39000  0.16700  1.0000
  O   O4        1.0  0.68800  0.80200  0.28700  1.0000
  O   O5        1.0  0.31200  0.19800  0.71300  1.0000
  O   O6        1.0  0.83200  0.61000  0.83300  1.0000
  O   O7        1.0  0.44400  0.73900  0.84100  1.0000
  O   O8        1.0  0.86800  0.97700  0.92800  1.0000
  S   S1        1.0  0.31100  0.24300  0.02420  1.0000
  S   S2        1.0  0.68900  0.75700  0.97600  1.0000
