data_image0
_chemical_formula_structural       C2CaK2O6
_chemical_formula_sum              "C2 Ca1 K2 O6"
_cell_length_a       5.38404
_cell_length_b       5.38404
_cell_length_c       6.65848
_cell_angle_alpha    66.1528
_cell_angle_beta     113.847
_cell_angle_gamma    120

_space_group_name_H-M_alt    "P 1"
_space_group_IT_number       1

loop_
  _space_group_symop_operation_xyz
  'x, y, z'

loop_
  _atom_site_type_symbol
  _atom_site_label
  _atom_site_symmetry_multiplicity
  _atom_site_fract_x
  _atom_site_fract_y
  _atom_site_fract_z
  _atom_site_occupancy
  C   C1        1.0  0.41300  0.58700  0.23900  1.0000
  C   C2        1.0  0.58700  0.41300  0.76100  1.0000
  Ca  Ca1       1.0  0.00000  0.00000  0.00000  1.0000
  K   K1        1.0  0.78900  0.21100  0.36600  1.0000
  K   K2        1.0  0.21100  0.78900  0.63400  1.0000
  O   O1        1.0  0.27400  0.30800  0.24000  1.0000
  O   O2        1.0  0.69200  0.72600  0.24000  1.0000
  O   O3        1.0  0.27400  0.72600  0.24000  1.0000
  O   O4        1.0  0.72600  0.27400  0.76000  1.0000
  O   O5        1.0  0.30800  0.27400  0.76000  1.0000
  O   O6        1.0  0.72600  0.69200  0.76000  1.0000
