data_image0
_chemical_formula_structural       FeSe4Ti2
_chemical_formula_sum              "Fe1 Se4 Ti2"
_cell_length_a       3.53487
_cell_length_b       6.23344
_cell_length_c       6.97376
_cell_angle_alpha    63.4087
_cell_angle_beta     104.681
_cell_angle_gamma    90

_space_group_name_H-M_alt    "P 1"
_space_group_IT_number       1

loop_
  _space_group_symop_operation_xyz
  'x, y, z'

loop_
  _atom_site_type_symbol
  _atom_site_label
  _atom_site_symmetry_multiplicity
  _atom_site_fract_x
  _atom_site_fract_y
  _atom_site_fract_z
  _atom_site_occupancy
  Fe  Fe1       1.0  0.00000  0.00000  0.00000  1.0000
  Se  Se1       1.0  0.11600  0.55000  0.23100  1.0000
  Se  Se2       1.0  0.62500  0.04530  0.24900  1.0000
  Se  Se3       1.0  0.37500  0.95500  0.75100  1.0000
  Se  Se4       1.0  0.88400  0.45000  0.76900  1.0000
  Ti  Ti1       1.0  0.74900  0.27100  0.49900  1.0000
  Ti  Ti2       1.0  0.25100  0.72900  0.50100  1.0000
