data_image0
_chemical_formula_structural       Mn8NdNi4
_chemical_formula_sum              "Mn8 Nd1 Ni4"
_cell_length_a       4.79462
_cell_length_b       6.41232
_cell_length_c       6.41226
_cell_angle_alpha    98.0357
_cell_angle_beta     68.0469
_cell_angle_gamma    111.95

_space_group_name_H-M_alt    "P 1"
_space_group_IT_number       1

loop_
  _space_group_symop_operation_xyz
  'x, y, z'

loop_
  _atom_site_type_symbol
  _atom_site_label
  _atom_site_symmetry_multiplicity
  _atom_site_fract_x
  _atom_site_fract_y
  _atom_site_fract_z
  _atom_site_occupancy
  Mn  Mn1       1.0  1.00000  0.50000  1.00000  1.0000
  Mn  Mn2       1.0  0.50000  0.50000  0.00000  1.0000
  Mn  Mn3       1.0  0.26200  0.76200  0.23800  1.0000
  Mn  Mn4       1.0  0.50000  0.23800  0.23800  1.0000
  Mn  Mn5       1.0  0.50000  0.00000  0.50000  1.0000
  Mn  Mn6       1.0  1.00000  1.00000  0.50000  1.0000
  Mn  Mn7       1.0  0.50000  0.76200  0.76200  1.0000
  Mn  Mn8       1.0  0.73800  0.23800  0.76200  1.0000
  Nd  Nd1       1.0  0.00000  0.00000  0.00000  1.0000
  Ni  Ni1       1.0  0.00002  0.35100  0.35100  1.0000
  Ni  Ni2       1.0  0.64900  0.64900  0.35100  1.0000
  Ni  Ni3       1.0  0.35100  0.35100  0.64900  1.0000
  Ni  Ni4       1.0  0.99998  0.64900  0.64900  1.0000
