data_image0
_chemical_formula_structural       La3Ni2O6
_chemical_formula_sum              "La3 Ni2 O6"
_cell_length_a       4.01182
_cell_length_b       4.01182
_cell_length_c       9.85891
_cell_angle_alpha    101.739
_cell_angle_beta     101.739
_cell_angle_gamma    90

_space_group_name_H-M_alt    "P 1"
_space_group_IT_number       1

loop_
  _space_group_symop_operation_xyz
  'x, y, z'

loop_
  _atom_site_type_symbol
  _atom_site_label
  _atom_site_symmetry_multiplicity
  _atom_site_fract_x
  _atom_site_fract_y
  _atom_site_fract_z
  _atom_site_occupancy
  La  La1       1.0  0.50000  0.50000  0.00000  1.0000
  La  La2       1.0  0.68300  0.68300  0.36700  1.0000
  La  La3       1.0  0.31700  0.31700  0.63300  1.0000
  Ni  Ni1       1.0  0.07310  0.07310  0.14600  1.0000
  Ni  Ni2       1.0  0.92700  0.92700  0.85400  1.0000
  O   O1        1.0  0.58300  0.08330  0.16700  1.0000
  O   O2        1.0  0.08330  0.58300  0.16700  1.0000
  O   O3        1.0  0.75000  0.25000  0.50000  1.0000
  O   O4        1.0  0.25000  0.75000  0.50000  1.0000
  O   O5        1.0  0.91700  0.41700  0.83300  1.0000
  O   O6        1.0  0.41700  0.91700  0.83300  1.0000
