data_image0
_chemical_formula_structural       Ce2O4
_chemical_formula_sum              "Ce2 O4"
_cell_length_a       5.23076
_cell_length_b       5.23076
_cell_length_c       3.93465
_cell_angle_alpha    90
_cell_angle_beta     90
_cell_angle_gamma    90.0767

_space_group_name_H-M_alt    "P 1"
_space_group_IT_number       1

loop_
  _space_group_symop_operation_xyz
  'x, y, z'

loop_
  _atom_site_type_symbol
  _atom_site_label
  _atom_site_symmetry_multiplicity
  _atom_site_fract_x
  _atom_site_fract_y
  _atom_site_fract_z
  _atom_site_occupancy
  Ce  Ce1       1.0  0.00000  0.00000  0.00000  1.0000
  Ce  Ce2       1.0  0.50000  0.50000  0.50000  1.0000
  O   O1        1.0  0.31400  0.31400  0.00000  1.0000
  O   O2        1.0  0.68600  0.68600  0.00000  1.0000
  O   O3        1.0  0.81400  0.18600  0.50000  1.0000
  O   O4        1.0  0.18600  0.81400  0.50000  1.0000
