data_image0
_chemical_formula_structural       O8Pr4
_chemical_formula_sum              "O8 Pr4"
_cell_length_a       6.22239
_cell_length_b       3.68745
_cell_length_c       7.20168
_cell_angle_alpha    90
_cell_angle_beta     90
_cell_angle_gamma    90

_space_group_name_H-M_alt    "P 1"
_space_group_IT_number       1

loop_
  _space_group_symop_operation_xyz
  'x, y, z'

loop_
  _atom_site_type_symbol
  _atom_site_label
  _atom_site_symmetry_multiplicity
  _atom_site_fract_x
  _atom_site_fract_y
  _atom_site_fract_z
  _atom_site_occupancy
  O   O1        1.0  0.14000  0.25000  0.07120  1.0000
  O   O2        1.0  0.46700  0.75000  0.17300  1.0000
  O   O3        1.0  0.96700  0.75000  0.32700  1.0000
  O   O4        1.0  0.64000  0.25000  0.42900  1.0000
  O   O5        1.0  0.36000  0.75000  0.57100  1.0000
  O   O6        1.0  0.03310  0.25000  0.67300  1.0000
  O   O7        1.0  0.53300  0.25000  0.82700  1.0000
  O   O8        1.0  0.86000  0.75000  0.92900  1.0000
  Pr  Pr1       1.0  0.75400  0.25000  0.11700  1.0000
  Pr  Pr2       1.0  0.25400  0.25000  0.38300  1.0000
  Pr  Pr3       1.0  0.74600  0.75000  0.61700  1.0000
  Pr  Pr4       1.0  0.24600  0.75000  0.88300  1.0000
