data_image0
_chemical_formula_structural       Hf2Tl
_chemical_formula_sum              "Hf2 Tl1"
_cell_length_a       3.65808
_cell_length_b       3.65808
_cell_length_c       5.53119
_cell_angle_alpha    109.31
_cell_angle_beta     109.31
_cell_angle_gamma    90

_space_group_name_H-M_alt    "P 1"
_space_group_IT_number       1

loop_
  _space_group_symop_operation_xyz
  'x, y, z'

loop_
  _atom_site_type_symbol
  _atom_site_label
  _atom_site_symmetry_multiplicity
  _atom_site_fract_x
  _atom_site_fract_y
  _atom_site_fract_z
  _atom_site_occupancy
  Hf  Hf1       1.0  0.16700  0.16700  0.33500  1.0000
  Hf  Hf2       1.0  0.83300  0.83300  0.66500  1.0000
  Tl  Tl1       1.0  0.50000  0.50000  0.00000  1.0000
