data_image0
_chemical_formula_structural       Ca4Mg4Pb4
_chemical_formula_sum              "Ca4 Mg4 Pb4"
_cell_length_a       7.91511
_cell_length_b       4.76081
_cell_length_c       8.90252
_cell_angle_alpha    90
_cell_angle_beta     90
_cell_angle_gamma    90

_space_group_name_H-M_alt    "P 1"
_space_group_IT_number       1

loop_
  _space_group_symop_operation_xyz
  'x, y, z'

loop_
  _atom_site_type_symbol
  _atom_site_label
  _atom_site_symmetry_multiplicity
  _atom_site_fract_x
  _atom_site_fract_y
  _atom_site_fract_z
  _atom_site_occupancy
  Ca  Ca1       1.0  0.98100  0.75000  0.18500  1.0000
  Ca  Ca2       1.0  0.48100  0.75000  0.31500  1.0000
  Ca  Ca3       1.0  0.51900  0.25000  0.68500  1.0000
  Ca  Ca4       1.0  0.01900  0.25000  0.81500  1.0000
  Mg  Mg1       1.0  0.64400  0.25000  0.06230  1.0000
  Mg  Mg2       1.0  0.14400  0.25000  0.43800  1.0000
  Mg  Mg3       1.0  0.85600  0.75000  0.56200  1.0000
  Mg  Mg4       1.0  0.35600  0.75000  0.93800  1.0000
  Pb  Pb1       1.0  0.26400  0.25000  0.11700  1.0000
  Pb  Pb2       1.0  0.76400  0.25000  0.38300  1.0000
  Pb  Pb3       1.0  0.23600  0.75000  0.61700  1.0000
  Pb  Pb4       1.0  0.73600  0.75000  0.88300  1.0000
