data_image0
_chemical_formula_structural       Fe3Se4
_chemical_formula_sum              "Fe3 Se4"
_cell_length_a       3.41795
_cell_length_b       6.07645
_cell_length_c       6.36312
_cell_angle_alpha    115.658
_cell_angle_beta     105.58
_cell_angle_gamma    90

_space_group_name_H-M_alt    "P 1"
_space_group_IT_number       1

loop_
  _space_group_symop_operation_xyz
  'x, y, z'

loop_
  _atom_site_type_symbol
  _atom_site_label
  _atom_site_symmetry_multiplicity
  _atom_site_fract_x
  _atom_site_fract_y
  _atom_site_fract_z
  _atom_site_occupancy
  Fe  Fe1       1.0  0.23900  0.19100  0.47900  1.0000
  Fe  Fe2       1.0  0.76100  0.80900  0.52100  1.0000
  Fe  Fe3       1.0  0.50000  0.50000  0.00000  1.0000
  Se  Se1       1.0  0.60700  0.94300  0.21400  1.0000
  Se  Se2       1.0  0.13700  0.47800  0.27400  1.0000
  Se  Se3       1.0  0.86300  0.52200  0.72600  1.0000
  Se  Se4       1.0  0.39300  0.05740  0.78600  1.0000
