data_image0
_chemical_formula_structural       BBe2CsF2O3
_chemical_formula_sum              "B1 Be2 Cs1 F2 O3"
_cell_length_a       4.43922
_cell_length_b       4.43922
_cell_length_c       7.35664
_cell_angle_alpha    107.727
_cell_angle_beta     107.727
_cell_angle_gamma    60.0403

_space_group_name_H-M_alt    "P 1"
_space_group_IT_number       1

loop_
  _space_group_symop_operation_xyz
  'x, y, z'

loop_
  _atom_site_type_symbol
  _atom_site_label
  _atom_site_symmetry_multiplicity
  _atom_site_fract_x
  _atom_site_fract_y
  _atom_site_fract_z
  _atom_site_occupancy
  B   B1        1.0  0.50500  0.49500  0.50000  1.0000
  Be  Be1       1.0  0.81400  0.79900  0.41800  1.0000
  Be  Be2       1.0  0.20100  0.18600  0.58200  1.0000
  Cs  Cs1       1.0  0.01340  0.98700  1.00000  1.0000
  F   F1        1.0  0.74700  0.72100  0.19600  1.0000
  F   F2        1.0  0.27900  0.25300  0.80400  1.0000
  O   O1        1.0  0.50300  0.80400  0.49600  1.0000
  O   O2        1.0  0.81400  0.18600  0.50000  1.0000
  O   O3        1.0  0.19600  0.49700  0.50400  1.0000
