data_image0
_chemical_formula_structural       Ga4S4
_chemical_formula_sum              "Ga4 S4"
_cell_length_a       3.60705
_cell_length_b       3.60731
_cell_length_c       15.7863
_cell_angle_alpha    90
_cell_angle_beta     90
_cell_angle_gamma    119.998

_space_group_name_H-M_alt    "P 1"
_space_group_IT_number       1

loop_
  _space_group_symop_operation_xyz
  'x, y, z'

loop_
  _atom_site_type_symbol
  _atom_site_label
  _atom_site_symmetry_multiplicity
  _atom_site_fract_x
  _atom_site_fract_y
  _atom_site_fract_z
  _atom_site_occupancy
  Ga  Ga1       1.0  0.33300  0.66700  0.17200  1.0000
  Ga  Ga2       1.0  0.33300  0.66700  0.32800  1.0000
  Ga  Ga3       1.0  0.66700  0.33300  0.67200  1.0000
  Ga  Ga4       1.0  0.66700  0.33300  0.82800  1.0000
  S   S1        1.0  0.66700  0.33300  0.10300  1.0000
  S   S2        1.0  0.66700  0.33300  0.39700  1.0000
  S   S3        1.0  0.33300  0.66700  0.60300  1.0000
  S   S4        1.0  0.33300  0.66700  0.89700  1.0000
