data_image0
_chemical_formula_structural       Ga4O8Ti
_chemical_formula_sum              "Ga4 O8 Ti1"
_cell_length_a       3.06176
_cell_length_b       6.20609
_cell_length_c       7.99268
_cell_angle_alpha    96.607
_cell_angle_beta     101.042
_cell_angle_gamma    75.7192

_space_group_name_H-M_alt    "P 1"
_space_group_IT_number       1

loop_
  _space_group_symop_operation_xyz
  'x, y, z'

loop_
  _atom_site_type_symbol
  _atom_site_label
  _atom_site_symmetry_multiplicity
  _atom_site_fract_x
  _atom_site_fract_y
  _atom_site_fract_z
  _atom_site_occupancy
  Ga  Ga1       1.0  0.45700  0.36300  0.27800  1.0000
  Ga  Ga2       1.0  0.76100  0.84600  0.36800  1.0000
  Ga  Ga3       1.0  0.23900  0.15400  0.63200  1.0000
  Ga  Ga4       1.0  0.54300  0.63700  0.72200  1.0000
  O   O1        1.0  0.43300  0.20200  0.06900  1.0000
  O   O2        1.0  0.16400  0.89700  0.22500  1.0000
  O   O3        1.0  0.88800  0.52900  0.30500  1.0000
  O   O4        1.0  0.64200  0.17300  0.45700  1.0000
  O   O5        1.0  0.35800  0.82700  0.54300  1.0000
  O   O6        1.0  0.11200  0.47100  0.69500  1.0000
  O   O7        1.0  0.83600  0.10300  0.77500  1.0000
  O   O8        1.0  0.56700  0.79800  0.93100  1.0000
  Ti  Ti1       1.0  0.00000  0.00000  0.00000  1.0000
