data_image0
_chemical_formula_structural       As6Eu2
_chemical_formula_sum              "As6 Eu2"
_cell_length_a       5.77099
_cell_length_b       6.06721
_cell_length_c       6.06721
_cell_angle_alpha    102.705
_cell_angle_beta     107.283
_cell_angle_gamma    72.7169

_space_group_name_H-M_alt    "P 1"
_space_group_IT_number       1

loop_
  _space_group_symop_operation_xyz
  'x, y, z'

loop_
  _atom_site_type_symbol
  _atom_site_label
  _atom_site_symmetry_multiplicity
  _atom_site_fract_x
  _atom_site_fract_y
  _atom_site_fract_z
  _atom_site_occupancy
  As  As1       1.0  0.20000  0.36400  0.08640  1.0000
  As  As2       1.0  0.80000  0.08640  0.36400  1.0000
  As  As3       1.0  0.77600  0.51000  0.49000  1.0000
  As  As4       1.0  0.22400  0.49000  0.51000  1.0000
  As  As5       1.0  0.20000  0.91400  0.63600  1.0000
  As  As6       1.0  0.80000  0.63600  0.91400  1.0000
  Eu  Eu1       1.0  0.32700  0.83500  0.16500  1.0000
  Eu  Eu2       1.0  0.67300  0.16500  0.83500  1.0000
