data_image0
_chemical_formula_structural       Cl2O7Pr2Ta2
_chemical_formula_sum              "Cl2 O7 Pr2 Ta2"
_cell_length_a       3.94035
_cell_length_b       6.92906
_cell_length_c       7.94614
_cell_angle_alpha    113.047
_cell_angle_beta     104.356
_cell_angle_gamma    90

_space_group_name_H-M_alt    "P 1"
_space_group_IT_number       1

loop_
  _space_group_symop_operation_xyz
  'x, y, z'

loop_
  _atom_site_type_symbol
  _atom_site_label
  _atom_site_symmetry_multiplicity
  _atom_site_fract_x
  _atom_site_fract_y
  _atom_site_fract_z
  _atom_site_occupancy
  Cl  Cl1       1.0  0.67700  0.56500  0.35300  1.0000
  Cl  Cl2       1.0  0.32300  0.43500  0.64700  1.0000
  O   O1        1.0  0.00000  0.50000  0.00000  1.0000
  O   O2        1.0  0.54400  0.83500  0.08740  1.0000
  O   O3        1.0  0.08190  0.15300  0.16400  1.0000
  O   O4        1.0  0.17500  0.93000  0.35000  1.0000
  O   O5        1.0  0.82500  0.07000  0.65000  1.0000
  O   O6        1.0  0.91800  0.84700  0.83600  1.0000
  O   O7        1.0  0.45600  0.16500  0.91300  1.0000
  Pr  Pr1       1.0  0.69200  0.16800  0.38400  1.0000
  Pr  Pr2       1.0  0.30800  0.83200  0.61600  1.0000
  Ta  Ta1       1.0  0.03460  0.79800  0.06920  1.0000
  Ta  Ta2       1.0  0.96500  0.20200  0.93100  1.0000
