data_image0
_chemical_formula_structural       O2
_chemical_formula_sum              "O2"
_cell_length_a       2.34027
_cell_length_b       2.34027
_cell_length_c       3.77027
_cell_angle_alpha    102.459
_cell_angle_beta     102.459
_cell_angle_gamma    107.749

_space_group_name_H-M_alt    "P 1"
_space_group_IT_number       1

loop_
  _space_group_symop_operation_xyz
  'x, y, z'

loop_
  _atom_site_type_symbol
  _atom_site_label
  _atom_site_symmetry_multiplicity
  _atom_site_fract_x
  _atom_site_fract_y
  _atom_site_fract_z
  _atom_site_occupancy
  O   O1        1.0  0.08750  0.08750  0.17500  1.0000
  O   O2        1.0  0.91300  0.91300  0.82500  1.0000
