data_image0
_chemical_formula_structural       Mn8Ta4
_chemical_formula_sum              "Mn8 Ta4"
_cell_length_a       4.78822
_cell_length_b       4.78816
_cell_length_c       7.88071
_cell_angle_alpha    90
_cell_angle_beta     90
_cell_angle_gamma    120

_space_group_name_H-M_alt    "P 1"
_space_group_IT_number       1

loop_
  _space_group_symop_operation_xyz
  'x, y, z'

loop_
  _atom_site_type_symbol
  _atom_site_label
  _atom_site_symmetry_multiplicity
  _atom_site_fract_x
  _atom_site_fract_y
  _atom_site_fract_z
  _atom_site_occupancy
  Mn  Mn1       1.0  0.00000  0.00000  0.00000  1.0000
  Mn  Mn2       1.0  0.34400  0.17200  0.25000  1.0000
  Mn  Mn3       1.0  0.82800  0.17200  0.25000  1.0000
  Mn  Mn4       1.0  0.82800  0.65600  0.25000  1.0000
  Mn  Mn5       1.0  0.00000  0.00000  0.50000  1.0000
  Mn  Mn6       1.0  0.17200  0.34400  0.75000  1.0000
  Mn  Mn7       1.0  0.17200  0.82800  0.75000  1.0000
  Mn  Mn8       1.0  0.65600  0.82800  0.75000  1.0000
  Ta  Ta1       1.0  0.33300  0.66700  0.06280  1.0000
  Ta  Ta2       1.0  0.33300  0.66700  0.43700  1.0000
  Ta  Ta3       1.0  0.66700  0.33300  0.56300  1.0000
  Ta  Ta4       1.0  0.66700  0.33300  0.93700  1.0000
