data_image0
_chemical_formula_structural       Fe6Ga6U
_chemical_formula_sum              "Fe6 Ga6 U1"
_cell_length_a       4.99233
_cell_length_b       6.54688
_cell_length_c       6.54688
_cell_angle_alpha    99.2596
_cell_angle_beta     67.5873
_cell_angle_gamma    112.413

_space_group_name_H-M_alt    "P 1"
_space_group_IT_number       1

loop_
  _space_group_symop_operation_xyz
  'x, y, z'

loop_
  _atom_site_type_symbol
  _atom_site_label
  _atom_site_symmetry_multiplicity
  _atom_site_fract_x
  _atom_site_fract_y
  _atom_site_fract_z
  _atom_site_occupancy
  Fe  Fe1       1.0  0.00000  0.50000  0.00000  1.0000
  Fe  Fe2       1.0  0.50000  0.50000  0.00000  1.0000
  Fe  Fe3       1.0  0.50000  0.23400  0.23400  1.0000
  Fe  Fe4       1.0  0.00000  0.00000  0.50000  1.0000
  Fe  Fe5       1.0  0.50000  0.00000  0.50000  1.0000
  Fe  Fe6       1.0  0.50000  0.76600  0.76600  1.0000
  Ga  Ga1       1.0  0.30700  0.80700  0.19300  1.0000
  Ga  Ga2       1.0  0.00000  0.34200  0.34200  1.0000
  Ga  Ga3       1.0  0.65300  0.65300  0.34700  1.0000
  Ga  Ga4       1.0  0.34700  0.34700  0.65300  1.0000
  Ga  Ga5       1.0  0.00000  0.65800  0.65800  1.0000
  Ga  Ga6       1.0  0.69300  0.19300  0.80700  1.0000
  U   U1        1.0  0.00000  0.00000  0.00000  1.0000
