data_image0
_chemical_formula_structural       Cl2N2Zr2
_chemical_formula_sum              "Cl2 N2 Zr2"
_cell_length_a       3.62536
_cell_length_b       3.62536
_cell_length_c       9.37756
_cell_angle_alpha    101.145
_cell_angle_beta     78.8546
_cell_angle_gamma    120

_space_group_name_H-M_alt    "P 1"
_space_group_IT_number       1

loop_
  _space_group_symop_operation_xyz
  'x, y, z'

loop_
  _atom_site_type_symbol
  _atom_site_label
  _atom_site_symmetry_multiplicity
  _atom_site_fract_x
  _atom_site_fract_y
  _atom_site_fract_z
  _atom_site_occupancy
  Cl  Cl1       1.0  0.61400  0.38600  0.15800  1.0000
  Cl  Cl2       1.0  0.38600  0.61400  0.84200  1.0000
  N   N1        1.0  0.19800  0.80200  0.40500  1.0000
  N   N2        1.0  0.80200  0.19800  0.59500  1.0000
  Zr  Zr1       1.0  0.88100  0.11900  0.35600  1.0000
  Zr  Zr2       1.0  0.11900  0.88100  0.64400  1.0000
