data_image0
_chemical_formula_structural       Eu3Ga8
_chemical_formula_sum              "Eu3 Ga8"
_cell_length_a       4.37527
_cell_length_b       4.28616
_cell_length_c       13.2513
_cell_angle_alpha    99.3071
_cell_angle_beta     99.5023
_cell_angle_gamma    90

_space_group_name_H-M_alt    "P 1"
_space_group_IT_number       1

loop_
  _space_group_symop_operation_xyz
  'x, y, z'

loop_
  _atom_site_type_symbol
  _atom_site_label
  _atom_site_symmetry_multiplicity
  _atom_site_fract_x
  _atom_site_fract_y
  _atom_site_fract_z
  _atom_site_occupancy
  Eu  Eu1       1.0  0.00000  0.00000  0.00000  1.0000
  Eu  Eu2       1.0  0.65000  0.15000  0.29900  1.0000
  Eu  Eu3       1.0  0.35000  0.85000  0.70100  1.0000
  Ga  Ga1       1.0  0.54900  0.54900  0.09790  1.0000
  Ga  Ga2       1.0  0.09520  0.59500  0.19000  1.0000
  Ga  Ga3       1.0  0.19200  0.69200  0.38400  1.0000
  Ga  Ga4       1.0  0.74900  0.74900  0.49800  1.0000
  Ga  Ga5       1.0  0.25100  0.25100  0.50200  1.0000
  Ga  Ga6       1.0  0.80800  0.30800  0.61600  1.0000
  Ga  Ga7       1.0  0.90500  0.40500  0.81000  1.0000
  Ga  Ga8       1.0  0.45100  0.45100  0.90200  1.0000
