data_image0
_chemical_formula_structural       INSr2
_chemical_formula_sum              "I1 N1 Sr2"
_cell_length_a       4.01312
_cell_length_b       4.01312
_cell_length_c       8.10399
_cell_angle_alpha    104.336
_cell_angle_beta     90
_cell_angle_gamma    120

_space_group_name_H-M_alt    "P 1"
_space_group_IT_number       1

loop_
  _space_group_symop_operation_xyz
  'x, y, z'

loop_
  _atom_site_type_symbol
  _atom_site_label
  _atom_site_symmetry_multiplicity
  _atom_site_fract_x
  _atom_site_fract_y
  _atom_site_fract_z
  _atom_site_occupancy
  I   I1        1.0  0.00000  0.00000  0.00000  1.0000
  N   N1        1.0  0.50000  0.00000  0.50000  1.0000
  Sr  Sr1       1.0  0.77700  0.55400  0.33000  1.0000
  Sr  Sr2       1.0  0.22300  0.44600  0.67000  1.0000
