data_image0
_chemical_formula_structural       Nb5Sb4
_chemical_formula_sum              "Nb5 Sb4"
_cell_length_a       3.39587
_cell_length_b       7.56001
_cell_length_c       7.56001
_cell_angle_alpha    92.8914
_cell_angle_beta     102.979
_cell_angle_gamma    77.021

_space_group_name_H-M_alt    "P 1"
_space_group_IT_number       1

loop_
  _space_group_symop_operation_xyz
  'x, y, z'

loop_
  _atom_site_type_symbol
  _atom_site_label
  _atom_site_symmetry_multiplicity
  _atom_site_fract_x
  _atom_site_fract_y
  _atom_site_fract_z
  _atom_site_occupancy
  Nb  Nb1       1.0  0.00000  0.00000  0.00000  1.0000
  Nb  Nb2       1.0  0.34500  0.60900  0.29900  1.0000
  Nb  Nb3       1.0  0.04590  0.29900  0.39100  1.0000
  Nb  Nb4       1.0  0.95400  0.70100  0.60900  1.0000
  Nb  Nb5       1.0  0.65500  0.39100  0.70100  1.0000
  Sb  Sb1       1.0  0.36500  0.31300  0.04230  1.0000
  Sb  Sb2       1.0  0.67800  0.95800  0.31300  1.0000
  Sb  Sb3       1.0  0.32200  0.04230  0.68700  1.0000
  Sb  Sb4       1.0  0.63500  0.68700  0.95800  1.0000
