data_image0
_chemical_formula_structural       KO8V4
_chemical_formula_sum              "K1 O8 V4"
_cell_length_a       2.89378
_cell_length_b       7.24935
_cell_length_c       7.24935
_cell_angle_alpha    92.283
_cell_angle_beta     78.4871
_cell_angle_gamma    101.513

_space_group_name_H-M_alt    "P 1"
_space_group_IT_number       1

loop_
  _space_group_symop_operation_xyz
  'x, y, z'

loop_
  _atom_site_type_symbol
  _atom_site_label
  _atom_site_symmetry_multiplicity
  _atom_site_fract_x
  _atom_site_fract_y
  _atom_site_fract_z
  _atom_site_occupancy
  K   K1        1.0  0.50000  0.00000  0.00000  1.0000
  O   O1        1.0  0.80400  0.65100  0.04410  1.0000
  O   O2        1.0  0.54000  0.37500  0.29500  1.0000
  O   O3        1.0  0.84800  0.04410  0.34900  1.0000
  O   O4        1.0  0.16500  0.70500  0.37500  1.0000
  O   O5        1.0  0.83500  0.29500  0.62500  1.0000
  O   O6        1.0  0.15200  0.95600  0.65100  1.0000
  O   O7        1.0  0.46000  0.62500  0.70500  1.0000
  O   O8        1.0  0.19600  0.34900  0.95600  1.0000
  V   V1        1.0  0.16900  0.52100  0.18200  1.0000
  V   V2        1.0  0.35200  0.18200  0.47900  1.0000
  V   V3        1.0  0.64800  0.81800  0.52100  1.0000
  V   V4        1.0  0.83100  0.47900  0.81800  1.0000
