data_image0
_chemical_formula_structural       Al4Li9
_chemical_formula_sum              "Al4 Li9"
_cell_length_a       4.89418
_cell_length_b       4.4766
_cell_length_c       9.24065
_cell_angle_alpha    104.018
_cell_angle_beta     80.2693
_cell_angle_gamma    90

_space_group_name_H-M_alt    "P 1"
_space_group_IT_number       1

loop_
  _space_group_symop_operation_xyz
  'x, y, z'

loop_
  _atom_site_type_symbol
  _atom_site_label
  _atom_site_symmetry_multiplicity
  _atom_site_fract_x
  _atom_site_fract_y
  _atom_site_fract_z
  _atom_site_occupancy
  Al  Al1       1.0  0.69200  0.61300  0.22700  1.0000
  Al  Al2       1.0  0.91900  0.15300  0.30600  1.0000
  Al  Al3       1.0  0.08080  0.84700  0.69400  1.0000
  Al  Al4       1.0  0.30800  0.38700  0.77300  1.0000
  Li  Li1       1.0  0.00000  0.00000  0.00000  1.0000
  Li  Li2       1.0  0.23200  0.54300  0.08690  1.0000
  Li  Li3       1.0  0.46100  0.08200  0.16400  1.0000
  Li  Li4       1.0  0.14500  0.69200  0.38500  1.0000
  Li  Li5       1.0  0.37500  0.23100  0.46300  1.0000
  Li  Li6       1.0  0.62500  0.76900  0.53700  1.0000
  Li  Li7       1.0  0.85500  0.30800  0.61500  1.0000
  Li  Li8       1.0  0.53900  0.91800  0.83600  1.0000
  Li  Li9       1.0  0.76800  0.45700  0.91300  1.0000
