data_image0
_chemical_formula_structural       Ce2Ga10Pd
_chemical_formula_sum              "Ce2 Ga10 Pd1"
_cell_length_a       4.41742
_cell_length_b       4.41742
_cell_length_c       13.5435
_cell_angle_alpha    99.3859
_cell_angle_beta     99.3859
_cell_angle_gamma    90

_space_group_name_H-M_alt    "P 1"
_space_group_IT_number       1

loop_
  _space_group_symop_operation_xyz
  'x, y, z'

loop_
  _atom_site_type_symbol
  _atom_site_label
  _atom_site_symmetry_multiplicity
  _atom_site_fract_x
  _atom_site_fract_y
  _atom_site_fract_z
  _atom_site_occupancy
  Ce  Ce1       1.0  0.64600  0.64600  0.29200  1.0000
  Ce  Ce2       1.0  0.35400  0.35400  0.70800  1.0000
  Ga  Ga1       1.0  0.55100  0.05130  0.10300  1.0000
  Ga  Ga2       1.0  0.05130  0.55100  0.10300  1.0000
  Ga  Ga3       1.0  0.10500  0.10500  0.20900  1.0000
  Ga  Ga4       1.0  0.19700  0.19700  0.39500  1.0000
  Ga  Ga5       1.0  0.75000  0.25000  0.50000  1.0000
  Ga  Ga6       1.0  0.25000  0.75000  0.50000  1.0000
  Ga  Ga7       1.0  0.80300  0.80300  0.60500  1.0000
  Ga  Ga8       1.0  0.89500  0.89500  0.79100  1.0000
  Ga  Ga9       1.0  0.94900  0.44900  0.89700  1.0000
  Ga  Ga10      1.0  0.44900  0.94900  0.89700  1.0000
  Pd  Pd1       1.0  0.50000  0.50000  0.00000  1.0000
