data_image0
_chemical_formula_structural       Nd2Te6
_chemical_formula_sum              "Nd2 Te6"
_cell_length_a       4.38647
_cell_length_b       4.39015
_cell_length_c       13.6176
_cell_angle_alpha    80.7238
_cell_angle_beta     90
_cell_angle_gamma    90

_space_group_name_H-M_alt    "P 1"
_space_group_IT_number       1

loop_
  _space_group_symop_operation_xyz
  'x, y, z'

loop_
  _atom_site_type_symbol
  _atom_site_label
  _atom_site_symmetry_multiplicity
  _atom_site_fract_x
  _atom_site_fract_y
  _atom_site_fract_z
  _atom_site_occupancy
  Nd  Nd1       1.0  0.25000  0.83000  0.34000  1.0000
  Nd  Nd2       1.0  0.75000  0.17000  0.66000  1.0000
  Te  Te1       1.0  0.75000  0.92600  0.14800  1.0000
  Te  Te2       1.0  0.25000  0.42600  0.14900  1.0000
  Te  Te3       1.0  0.75000  0.29400  0.41300  1.0000
  Te  Te4       1.0  0.25000  0.70600  0.58700  1.0000
  Te  Te5       1.0  0.75000  0.57400  0.85100  1.0000
  Te  Te6       1.0  0.25000  0.07410  0.85200  1.0000
