data_image0
_chemical_formula_structural       S6Ti2
_chemical_formula_sum              "S6 Ti2"
_cell_length_a       4.98458
_cell_length_b       3.4081
_cell_length_c       8.94415
_cell_angle_alpha    90
_cell_angle_beta     86.0409
_cell_angle_gamma    90

_space_group_name_H-M_alt    "P 1"
_space_group_IT_number       1

loop_
  _space_group_symop_operation_xyz
  'x, y, z'

loop_
  _atom_site_type_symbol
  _atom_site_label
  _atom_site_symmetry_multiplicity
  _atom_site_fract_x
  _atom_site_fract_y
  _atom_site_fract_z
  _atom_site_occupancy
  S   S1        1.0  0.09750  0.25000  0.17900  1.0000
  S   S2        1.0  0.50600  0.25000  0.18500  1.0000
  S   S3        1.0  0.75800  0.75000  0.45100  1.0000
  S   S4        1.0  0.24200  0.25000  0.54900  1.0000
  S   S5        1.0  0.49400  0.75000  0.81500  1.0000
  S   S6        1.0  0.90200  0.75000  0.82100  1.0000
  Ti  Ti1       1.0  0.27400  0.75000  0.35000  1.0000
  Ti  Ti2       1.0  0.72600  0.25000  0.65000  1.0000
