data_image0
_chemical_formula_structural       Al8Cu4Np
_chemical_formula_sum              "Al8 Cu4 Np1"
_cell_length_a       5.07114
_cell_length_b       6.7286
_cell_length_c       6.7286
_cell_angle_alpha    98.1638
_cell_angle_beta     67.8622
_cell_angle_gamma    112.138

_space_group_name_H-M_alt    "P 1"
_space_group_IT_number       1

loop_
  _space_group_symop_operation_xyz
  'x, y, z'

loop_
  _atom_site_type_symbol
  _atom_site_label
  _atom_site_symmetry_multiplicity
  _atom_site_fract_x
  _atom_site_fract_y
  _atom_site_fract_z
  _atom_site_occupancy
  Al  Al1       1.0  0.28000  0.78000  0.22000  1.0000
  Al  Al2       1.0  0.50000  0.22000  0.22000  1.0000
  Al  Al3       1.0  0.65300  0.65300  0.34700  1.0000
  Al  Al4       1.0  0.00000  0.34700  0.34700  1.0000
  Al  Al5       1.0  0.34700  0.34700  0.65300  1.0000
  Al  Al6       1.0  0.00000  0.65300  0.65300  1.0000
  Al  Al7       1.0  0.72000  0.22000  0.78000  1.0000
  Al  Al8       1.0  0.50000  0.78000  0.78000  1.0000
  Cu  Cu1       1.0  0.00000  0.50000  0.00000  1.0000
  Cu  Cu2       1.0  0.50000  0.50000  0.00000  1.0000
  Cu  Cu3       1.0  1.00000  0.00000  0.50000  1.0000
  Cu  Cu4       1.0  0.50000  0.00000  0.50000  1.0000
  Np  Np1       1.0  0.00000  0.00000  0.00000  1.0000
