data_image0
_chemical_formula_structural       Sb4Ta5
_chemical_formula_sum              "Sb4 Ta5"
_cell_length_a       3.40222
_cell_length_b       7.54609
_cell_length_c       7.54609
_cell_angle_alpha    92.9129
_cell_angle_beta     103.028
_cell_angle_gamma    76.9719

_space_group_name_H-M_alt    "P 1"
_space_group_IT_number       1

loop_
  _space_group_symop_operation_xyz
  'x, y, z'

loop_
  _atom_site_type_symbol
  _atom_site_label
  _atom_site_symmetry_multiplicity
  _atom_site_fract_x
  _atom_site_fract_y
  _atom_site_fract_z
  _atom_site_occupancy
  Sb  Sb1       1.0  0.67700  0.68700  0.04060  1.0000
  Sb  Sb2       1.0  0.63600  0.04060  0.31300  1.0000
  Sb  Sb3       1.0  0.36400  0.95900  0.68700  1.0000
  Sb  Sb4       1.0  0.32300  0.31300  0.95900  1.0000
  Ta  Ta1       1.0  0.00000  0.00000  0.00000  1.0000
  Ta  Ta2       1.0  0.95500  0.39500  0.30400  1.0000
  Ta  Ta3       1.0  0.34900  0.69600  0.39500  1.0000
  Ta  Ta4       1.0  0.65100  0.30400  0.60500  1.0000
  Ta  Ta5       1.0  0.04540  0.60500  0.69600  1.0000
