data_image0
_chemical_formula_structural       Bi8Rh4
_chemical_formula_sum              "Bi8 Rh4"
_cell_length_a       7.00289
_cell_length_b       6.87856
_cell_length_c       7.04687
_cell_angle_alpha    90
_cell_angle_beta     118.007
_cell_angle_gamma    90

_space_group_name_H-M_alt    "P 1"
_space_group_IT_number       1

loop_
  _space_group_symop_operation_xyz
  'x, y, z'

loop_
  _atom_site_type_symbol
  _atom_site_label
  _atom_site_symmetry_multiplicity
  _atom_site_fract_x
  _atom_site_fract_y
  _atom_site_fract_z
  _atom_site_occupancy
  Bi  Bi1       1.0  0.85400  0.14000  0.13100  1.0000
  Bi  Bi2       1.0  0.34600  0.35700  0.17100  1.0000
  Bi  Bi3       1.0  0.65400  0.85700  0.32900  1.0000
  Bi  Bi4       1.0  0.14600  0.64000  0.36900  1.0000
  Bi  Bi5       1.0  0.85400  0.36000  0.63100  1.0000
  Bi  Bi6       1.0  0.34600  0.14300  0.67100  1.0000
  Bi  Bi7       1.0  0.65400  0.64300  0.82900  1.0000
  Bi  Bi8       1.0  0.14600  0.86000  0.86900  1.0000
  Rh  Rh1       1.0  0.72800  0.49800  0.21500  1.0000
  Rh  Rh2       1.0  0.27200  0.99800  0.28500  1.0000
  Rh  Rh3       1.0  0.72800  0.00177  0.71500  1.0000
  Rh  Rh4       1.0  0.27200  0.50200  0.78500  1.0000
