data_image0
_chemical_formula_structural       Ni4Sn2U4
_chemical_formula_sum              "Ni4 Sn2 U4"
_cell_length_a       6.8972
_cell_length_b       6.8972
_cell_length_c       3.97142
_cell_angle_alpha    90
_cell_angle_beta     90
_cell_angle_gamma    90

_space_group_name_H-M_alt    "P 1"
_space_group_IT_number       1

loop_
  _space_group_symop_operation_xyz
  'x, y, z'

loop_
  _atom_site_type_symbol
  _atom_site_label
  _atom_site_symmetry_multiplicity
  _atom_site_fract_x
  _atom_site_fract_y
  _atom_site_fract_z
  _atom_site_occupancy
  Ni  Ni1       1.0  0.63500  0.13500  0.00000  1.0000
  Ni  Ni2       1.0  0.13500  0.36500  0.00000  1.0000
  Ni  Ni3       1.0  0.86500  0.63500  0.00000  1.0000
  Ni  Ni4       1.0  0.36500  0.86500  0.00000  1.0000
  Sn  Sn1       1.0  0.00000  0.00000  0.00000  1.0000
  Sn  Sn2       1.0  0.50000  0.50000  0.00000  1.0000
  U   U1        1.0  0.34700  0.15300  0.50000  1.0000
  U   U2        1.0  0.84700  0.34700  0.50000  1.0000
  U   U3        1.0  0.15300  0.65300  0.50000  1.0000
  U   U4        1.0  0.65300  0.84700  0.50000  1.0000
