data_image0
_chemical_formula_structural       C3Er2Mo2
_chemical_formula_sum              "C3 Er2 Mo2"
_cell_length_a       3.32457
_cell_length_b       5.68088
_cell_length_c       6.04652
_cell_angle_alpha    110.877
_cell_angle_beta     105.957
_cell_angle_gamma    90

_space_group_name_H-M_alt    "P 1"
_space_group_IT_number       1

loop_
  _space_group_symop_operation_xyz
  'x, y, z'

loop_
  _atom_site_type_symbol
  _atom_site_label
  _atom_site_symmetry_multiplicity
  _atom_site_fract_x
  _atom_site_fract_y
  _atom_site_fract_z
  _atom_site_occupancy
  C   C1        1.0  0.00000  0.00000  0.00000  1.0000
  C   C2        1.0  0.24800  0.73600  0.49600  1.0000
  C   C3        1.0  0.75200  0.26400  0.50400  1.0000
  Er  Er1       1.0  0.61100  0.82700  0.22200  1.0000
  Er  Er2       1.0  0.38900  0.17300  0.77800  1.0000
  Mo  Mo1       1.0  0.15600  0.32700  0.31200  1.0000
  Mo  Mo2       1.0  0.84400  0.67300  0.68800  1.0000
