data_image0
_chemical_formula_structural       Rh4Si4U4
_chemical_formula_sum              "Rh4 Si4 U4"
_cell_length_a       7.43944
_cell_length_b       3.83543
_cell_length_c       7.10813
_cell_angle_alpha    90
_cell_angle_beta     89.9998
_cell_angle_gamma    90

_space_group_name_H-M_alt    "P 1"
_space_group_IT_number       1

loop_
  _space_group_symop_operation_xyz
  'x, y, z'

loop_
  _atom_site_type_symbol
  _atom_site_label
  _atom_site_symmetry_multiplicity
  _atom_site_fract_x
  _atom_site_fract_y
  _atom_site_fract_z
  _atom_site_occupancy
  Rh  Rh1       1.0  0.37000  0.75000  0.06780  1.0000
  Rh  Rh2       1.0  0.87000  0.75000  0.43200  1.0000
  Rh  Rh3       1.0  0.13000  0.25000  0.56800  1.0000
  Rh  Rh4       1.0  0.63000  0.25000  0.93200  1.0000
  Si  Si1       1.0  0.70000  0.75000  0.12900  1.0000
  Si  Si2       1.0  0.20000  0.75000  0.37100  1.0000
  Si  Si3       1.0  0.80000  0.25000  0.62900  1.0000
  Si  Si4       1.0  0.30000  0.25000  0.87100  1.0000
  U   U1        1.0  0.00161  0.25000  0.13200  1.0000
  U   U2        1.0  0.50200  0.25000  0.36800  1.0000
  U   U3        1.0  0.49800  0.75000  0.63200  1.0000
  U   U4        1.0  0.99800  0.75000  0.86800  1.0000
