data_image0
_chemical_formula_structural       Ni3Se4
_chemical_formula_sum              "Ni3 Se4"
_cell_length_a       3.64867
_cell_length_b       6.18993
_cell_length_c       6.34854
_cell_angle_alpha    120.008
_cell_angle_beta     106.7
_cell_angle_gamma    90

_space_group_name_H-M_alt    "P 1"
_space_group_IT_number       1

loop_
  _space_group_symop_operation_xyz
  'x, y, z'

loop_
  _atom_site_type_symbol
  _atom_site_label
  _atom_site_symmetry_multiplicity
  _atom_site_fract_x
  _atom_site_fract_y
  _atom_site_fract_z
  _atom_site_occupancy
  Ni  Ni1       1.0  0.00000  0.00000  0.00000  1.0000
  Ni  Ni2       1.0  0.74100  0.76500  0.48100  1.0000
  Ni  Ni3       1.0  0.25900  0.23500  0.51900  1.0000
  Se  Se1       1.0  0.11700  0.77700  0.23300  1.0000
  Se  Se2       1.0  0.63700  0.29200  0.27400  1.0000
  Se  Se3       1.0  0.36300  0.70800  0.72600  1.0000
  Se  Se4       1.0  0.88300  0.22300  0.76700  1.0000
