data_image0
_chemical_formula_structural       Pd2Sn2U2
_chemical_formula_sum              "Pd2 Sn2 U2"
_cell_length_a       4.98505
_cell_length_b       4.96599
_cell_length_c       5.80467
_cell_angle_alpha    90.001
_cell_angle_beta     90
_cell_angle_gamma    59.873

_space_group_name_H-M_alt    "P 1"
_space_group_IT_number       1

loop_
  _space_group_symop_operation_xyz
  'x, y, z'

loop_
  _atom_site_type_symbol
  _atom_site_label
  _atom_site_symmetry_multiplicity
  _atom_site_fract_x
  _atom_site_fract_y
  _atom_site_fract_z
  _atom_site_occupancy
  Pd  Pd1       1.0  0.33200  0.33500  0.01880  1.0000
  Pd  Pd2       1.0  0.66800  0.66500  0.51900  1.0000
  Sn  Sn1       1.0  0.66600  0.66800  0.01810  1.0000
  Sn  Sn2       1.0  0.33400  0.33200  0.51800  1.0000
  U   U1        1.0  0.00007  0.00000  0.27000  1.0000
  U   U2        1.0  0.00000  0.00015  0.77000  1.0000
