data_image0
_chemical_formula_structural       O3V7
_chemical_formula_sum              "O3 V7"
_cell_length_a       3.10003
_cell_length_b       5.20125
_cell_length_c       8.74496
_cell_angle_alpha    91.9549
_cell_angle_beta     90
_cell_angle_gamma    107.338

_space_group_name_H-M_alt    "P 1"
_space_group_IT_number       1

loop_
  _space_group_symop_operation_xyz
  'x, y, z'

loop_
  _atom_site_type_symbol
  _atom_site_label
  _atom_site_symmetry_multiplicity
  _atom_site_fract_x
  _atom_site_fract_y
  _atom_site_fract_z
  _atom_site_occupancy
  O   O1        1.0  0.00000  0.00000  0.00000  1.0000
  O   O2        1.0  0.28500  0.57100  0.14000  1.0000
  O   O3        1.0  0.71500  0.42900  0.86000  1.0000
  V   V1        1.0  0.63700  0.27500  0.08820  1.0000
  V   V2        1.0  0.92100  0.84200  0.23300  1.0000
  V   V3        1.0  0.20400  0.40800  0.36700  1.0000
  V   V4        1.0  0.50000  0.00000  0.50000  1.0000
  V   V5        1.0  0.79600  0.59200  0.63300  1.0000
  V   V6        1.0  0.07900  0.15800  0.76700  1.0000
  V   V7        1.0  0.36300  0.72500  0.91200  1.0000
