data_image0
_chemical_formula_structural       F8Ru2
_chemical_formula_sum              "F8 Ru2"
_cell_length_a       5.30851
_cell_length_b       4.81149
_cell_length_c       5.09147
_cell_angle_alpha    89.9998
_cell_angle_beta     119.23
_cell_angle_gamma    90.0002

_space_group_name_H-M_alt    "P 1"
_space_group_IT_number       1

loop_
  _space_group_symop_operation_xyz
  'x, y, z'

loop_
  _atom_site_type_symbol
  _atom_site_label
  _atom_site_symmetry_multiplicity
  _atom_site_fract_x
  _atom_site_fract_y
  _atom_site_fract_z
  _atom_site_occupancy
  F   F1        1.0  0.10700  0.65500  0.24300  1.0000
  F   F2        1.0  0.61900  0.66000  0.24800  1.0000
  F   F3        1.0  0.88100  0.16000  0.25200  1.0000
  F   F4        1.0  0.39300  0.15500  0.25700  1.0000
  F   F5        1.0  0.60700  0.84500  0.74300  1.0000
  F   F6        1.0  0.11900  0.84000  0.74800  1.0000
  F   F7        1.0  0.38100  0.34000  0.75200  1.0000
  F   F8        1.0  0.89300  0.34500  0.75700  1.0000
  Ru  Ru1       1.0  0.00000  0.00000  0.00000  1.0000
  Ru  Ru2       1.0  0.50000  0.50000  0.50000  1.0000
