data_image0
_chemical_formula_structural       Fe2Si6Tm6
_chemical_formula_sum              "Fe2 Si6 Tm6"
_cell_length_a       4.10885
_cell_length_b       5.55712
_cell_length_c       12.6059
_cell_angle_alpha    95.0865
_cell_angle_beta     99.3795
_cell_angle_gamma    68.3033

_space_group_name_H-M_alt    "P 1"
_space_group_IT_number       1

loop_
  _space_group_symop_operation_xyz
  'x, y, z'

loop_
  _atom_site_type_symbol
  _atom_site_label
  _atom_site_symmetry_multiplicity
  _atom_site_fract_x
  _atom_site_fract_y
  _atom_site_fract_z
  _atom_site_occupancy
  Fe  Fe1       1.0  0.24700  0.92100  0.41500  1.0000
  Fe  Fe2       1.0  0.75300  0.07880  0.58500  1.0000
  Si  Si1       1.0  0.11400  0.84700  0.07540  1.0000
  Si  Si2       1.0  0.05350  0.13500  0.24200  1.0000
  Si  Si3       1.0  0.85700  0.74300  0.45700  1.0000
  Si  Si4       1.0  0.14300  0.25700  0.54300  1.0000
  Si  Si5       1.0  0.94700  0.86500  0.75800  1.0000
  Si  Si6       1.0  0.88600  0.15300  0.92500  1.0000
  Tm  Tm1       1.0  0.39900  0.28400  0.08070  1.0000
  Tm  Tm2       1.0  0.74800  0.73400  0.23000  1.0000
  Tm  Tm3       1.0  0.52300  0.33300  0.38000  1.0000
  Tm  Tm4       1.0  0.47700  0.66700  0.62000  1.0000
  Tm  Tm5       1.0  0.25200  0.26600  0.77000  1.0000
  Tm  Tm6       1.0  0.60100  0.71600  0.91900  1.0000
