data_image0
_chemical_formula_structural       Ga10NiPr3
_chemical_formula_sum              "Ga10 Ni1 Pr3"
_cell_length_a       4.29593
_cell_length_b       4.27351
_cell_length_c       15.3414
_cell_angle_alpha    90
_cell_angle_beta     90
_cell_angle_gamma    90

_space_group_name_H-M_alt    "P 1"
_space_group_IT_number       1

loop_
  _space_group_symop_operation_xyz
  'x, y, z'

loop_
  _atom_site_type_symbol
  _atom_site_label
  _atom_site_symmetry_multiplicity
  _atom_site_fract_x
  _atom_site_fract_y
  _atom_site_fract_z
  _atom_site_occupancy
  Ga  Ga1       1.0  0.50000  0.00000  0.08390  1.0000
  Ga  Ga2       1.0  0.00000  0.50000  0.08440  1.0000
  Ga  Ga3       1.0  0.50000  0.50000  0.18200  1.0000
  Ga  Ga4       1.0  0.50000  0.50000  0.34100  1.0000
  Ga  Ga5       1.0  0.00000  0.50000  0.41900  1.0000
  Ga  Ga6       1.0  0.00000  0.50000  0.58100  1.0000
  Ga  Ga7       1.0  0.50000  0.50000  0.65900  1.0000
  Ga  Ga8       1.0  0.50000  0.50000  0.81800  1.0000
  Ga  Ga9       1.0  0.00000  0.50000  0.91600  1.0000
  Ga  Ga10      1.0  0.50000  0.00000  0.91600  1.0000
  Ni  Ni1       1.0  0.00000  0.00000  0.00000  1.0000
  Pr  Pr1       1.0  0.00000  0.00000  0.24700  1.0000
  Pr  Pr2       1.0  0.50000  0.00000  0.50000  1.0000
  Pr  Pr3       1.0  0.00000  0.00000  0.75300  1.0000
