data_image0
_chemical_formula_structural       La3Ni4O2P4
_chemical_formula_sum              "La3 Ni4 O2 P4"
_cell_length_a       3.98191
_cell_length_b       3.98191
_cell_length_c       13.2991
_cell_angle_alpha    98.6099
_cell_angle_beta     98.6099
_cell_angle_gamma    90

_space_group_name_H-M_alt    "P 1"
_space_group_IT_number       1

loop_
  _space_group_symop_operation_xyz
  'x, y, z'

loop_
  _atom_site_type_symbol
  _atom_site_label
  _atom_site_symmetry_multiplicity
  _atom_site_fract_x
  _atom_site_fract_y
  _atom_site_fract_z
  _atom_site_occupancy
  La  La1       1.0  0.00000  0.00000  0.00000  1.0000
  La  La2       1.0  0.70200  0.70200  0.40300  1.0000
  La  La3       1.0  0.29800  0.29800  0.59700  1.0000
  Ni  Ni1       1.0  0.59200  0.09240  0.18500  1.0000
  Ni  Ni2       1.0  0.09240  0.59200  0.18500  1.0000
  Ni  Ni3       1.0  0.90800  0.40800  0.81500  1.0000
  Ni  Ni4       1.0  0.40800  0.90800  0.81500  1.0000
  O   O1        1.0  0.75000  0.25000  0.50000  1.0000
  O   O2        1.0  0.25000  0.75000  0.50000  1.0000
  P   P1        1.0  0.55200  0.55200  0.10300  1.0000
  P   P2        1.0  0.13000  0.13000  0.25900  1.0000
  P   P3        1.0  0.87000  0.87000  0.74100  1.0000
  P   P4        1.0  0.44800  0.44800  0.89700  1.0000
