data_image0
_chemical_formula_structural       Fe2O6Rb6
_chemical_formula_sum              "Fe2 O6 Rb6"
_cell_length_a       6.80726
_cell_length_b       6.80796
_cell_length_c       6.80796
_cell_angle_alpha    113.839
_cell_angle_beta     97.1959
_cell_angle_gamma    97.1959

_space_group_name_H-M_alt    "P 1"
_space_group_IT_number       1

loop_
  _space_group_symop_operation_xyz
  'x, y, z'

loop_
  _atom_site_type_symbol
  _atom_site_label
  _atom_site_symmetry_multiplicity
  _atom_site_fract_x
  _atom_site_fract_y
  _atom_site_fract_z
  _atom_site_occupancy
  Fe  Fe1       1.0  0.14800  0.16600  0.16600  1.0000
  Fe  Fe2       1.0  0.85200  0.83400  0.83400  1.0000
  O   O1        1.0  0.85000  0.09820  0.09820  1.0000
  O   O2        1.0  0.26800  0.42100  0.15300  1.0000
  O   O3        1.0  0.26800  0.15300  0.42100  1.0000
  O   O4        1.0  0.73200  0.84700  0.57900  1.0000
  O   O5        1.0  0.73200  0.57900  0.84700  1.0000
  O   O6        1.0  0.15000  0.90200  0.90200  1.0000
  Rb  Rb1       1.0  0.50000  0.81000  0.19000  1.0000
  Rb  Rb2       1.0  1.00000  0.73700  0.26300  1.0000
  Rb  Rb3       1.0  0.65300  0.37200  0.37200  1.0000
  Rb  Rb4       1.0  0.34700  0.62800  0.62800  1.0000
  Rb  Rb5       1.0  1.00000  0.26300  0.73700  1.0000
  Rb  Rb6       1.0  0.50000  0.19000  0.81000  1.0000
