data_image0
_chemical_formula_structural       F4H8N2
_chemical_formula_sum              "F4 H8 N2"
_cell_length_a       3.87368
_cell_length_b       3.87368
_cell_length_c       7.95051
_cell_angle_alpha    104.1
_cell_angle_beta     75.9002
_cell_angle_gamma    120

_space_group_name_H-M_alt    "P 1"
_space_group_IT_number       1

loop_
  _space_group_symop_operation_xyz
  'x, y, z'

loop_
  _atom_site_type_symbol
  _atom_site_label
  _atom_site_symmetry_multiplicity
  _atom_site_fract_x
  _atom_site_fract_y
  _atom_site_fract_z
  _atom_site_occupancy
  F   F1        1.0  0.24400  0.75600  0.26800  1.0000
  F   F2        1.0  0.85700  0.14300  0.42800  1.0000
  F   F3        1.0  0.14300  0.85700  0.57200  1.0000
  F   F4        1.0  0.75600  0.24400  0.73200  1.0000
  H   H1        1.0  0.41200  0.35600  0.29900  1.0000
  H   H2        1.0  0.64400  0.35600  0.29900  1.0000
  H   H3        1.0  0.64400  0.58800  0.29900  1.0000
  H   H4        1.0  0.19100  0.80900  0.42600  1.0000
  H   H5        1.0  0.80900  0.19100  0.57400  1.0000
  H   H6        1.0  0.35600  0.41200  0.70100  1.0000
  H   H7        1.0  0.35600  0.64400  0.70100  1.0000
  H   H8        1.0  0.58800  0.64400  0.70100  1.0000
  N   N1        1.0  0.97600  0.02440  0.07310  1.0000
  N   N2        1.0  0.02430  0.97600  0.92700  1.0000
