data_image0
_chemical_formula_structural       Cr2N6Sr6
_chemical_formula_sum              "Cr2 N6 Sr6"
_cell_length_a       7.71866
_cell_length_b       7.71708
_cell_length_c       5.24082
_cell_angle_alpha    90
_cell_angle_beta     90
_cell_angle_gamma    120.013

_space_group_name_H-M_alt    "P 1"
_space_group_IT_number       1

loop_
  _space_group_symop_operation_xyz
  'x, y, z'

loop_
  _atom_site_type_symbol
  _atom_site_label
  _atom_site_symmetry_multiplicity
  _atom_site_fract_x
  _atom_site_fract_y
  _atom_site_fract_z
  _atom_site_occupancy
  Cr  Cr1       1.0  0.33300  0.66700  0.25000  1.0000
  Cr  Cr2       1.0  0.66700  0.33300  0.75000  1.0000
  N   N1        1.0  0.11900  0.43400  0.25000  1.0000
  N   N2        1.0  0.56700  0.68500  0.25000  1.0000
  N   N3        1.0  0.31500  0.88200  0.25000  1.0000
  N   N4        1.0  0.68500  0.11800  0.75000  1.0000
  N   N5        1.0  0.43300  0.31500  0.75000  1.0000
  N   N6        1.0  0.88100  0.56600  0.75000  1.0000
  Sr  Sr1       1.0  0.73000  0.08660  0.25000  1.0000
  Sr  Sr2       1.0  0.35700  0.27000  0.25000  1.0000
  Sr  Sr3       1.0  0.91300  0.64300  0.25000  1.0000
  Sr  Sr4       1.0  0.08650  0.35700  0.75000  1.0000
  Sr  Sr5       1.0  0.64300  0.73000  0.75000  1.0000
  Sr  Sr6       1.0  0.27000  0.91300  0.75000  1.0000
