data_image0
_chemical_formula_structural       Cl8Sc5
_chemical_formula_sum              "Cl8 Sc5"
_cell_length_a       3.54982
_cell_length_b       9.44938
_cell_length_c       9.71501
_cell_angle_alpha    88.0261
_cell_angle_beta     100.527
_cell_angle_gamma    100.826

_space_group_name_H-M_alt    "P 1"
_space_group_IT_number       1

loop_
  _space_group_symop_operation_xyz
  'x, y, z'

loop_
  _atom_site_type_symbol
  _atom_site_label
  _atom_site_symmetry_multiplicity
  _atom_site_fract_x
  _atom_site_fract_y
  _atom_site_fract_z
  _atom_site_occupancy
  Cl  Cl1       1.0  0.47400  0.84200  0.10700  1.0000
  Cl  Cl2       1.0  0.85800  0.52800  0.18800  1.0000
  Cl  Cl3       1.0  0.19200  0.16100  0.22200  1.0000
  Cl  Cl4       1.0  0.11800  0.81200  0.42300  1.0000
  Cl  Cl5       1.0  0.88200  0.18800  0.57700  1.0000
  Cl  Cl6       1.0  0.80800  0.83900  0.77800  1.0000
  Cl  Cl7       1.0  0.14200  0.47200  0.81200  1.0000
  Cl  Cl8       1.0  0.52600  0.15800  0.89300  1.0000
  Sc  Sc1       1.0  0.00000  0.00000  0.00000  1.0000
  Sc  Sc2       1.0  0.83500  0.31900  0.35000  1.0000
  Sc  Sc3       1.0  0.49200  0.61100  0.37300  1.0000
  Sc  Sc4       1.0  0.50800  0.38900  0.62700  1.0000
  Sc  Sc5       1.0  0.16500  0.68100  0.65000  1.0000
