data_image0
_chemical_formula_structural       Ni8U4
_chemical_formula_sum              "Ni8 U4"
_cell_length_a       4.91034
_cell_length_b       4.91062
_cell_length_c       8.21252
_cell_angle_alpha    90
_cell_angle_beta     90
_cell_angle_gamma    119.998

_space_group_name_H-M_alt    "P 1"
_space_group_IT_number       1

loop_
  _space_group_symop_operation_xyz
  'x, y, z'

loop_
  _atom_site_type_symbol
  _atom_site_label
  _atom_site_symmetry_multiplicity
  _atom_site_fract_x
  _atom_site_fract_y
  _atom_site_fract_z
  _atom_site_occupancy
  Ni  Ni1       1.0  0.00000  0.00000  0.00000  1.0000
  Ni  Ni2       1.0  0.33100  0.16600  0.25000  1.0000
  Ni  Ni3       1.0  0.83400  0.16600  0.25000  1.0000
  Ni  Ni4       1.0  0.83400  0.66900  0.25000  1.0000
  Ni  Ni5       1.0  0.00000  0.00000  0.50000  1.0000
  Ni  Ni6       1.0  0.16600  0.33100  0.75000  1.0000
  Ni  Ni7       1.0  0.16600  0.83400  0.75000  1.0000
  Ni  Ni8       1.0  0.66900  0.83400  0.75000  1.0000
  U   U1        1.0  0.33300  0.66700  0.05610  1.0000
  U   U2        1.0  0.33300  0.66700  0.44400  1.0000
  U   U3        1.0  0.66700  0.33300  0.55600  1.0000
  U   U4        1.0  0.66700  0.33300  0.94400  1.0000
