data_image0
_chemical_formula_structural       C4O8Sn2
_chemical_formula_sum              "C4 O8 Sn2"
_cell_length_a       5.40549
_cell_length_b       5.75812
_cell_length_c       7.22081
_cell_angle_alpha    104.816
_cell_angle_beta     111.981
_cell_angle_gamma    62.006

_space_group_name_H-M_alt    "P 1"
_space_group_IT_number       1

loop_
  _space_group_symop_operation_xyz
  'x, y, z'

loop_
  _atom_site_type_symbol
  _atom_site_label
  _atom_site_symmetry_multiplicity
  _atom_site_fract_x
  _atom_site_fract_y
  _atom_site_fract_z
  _atom_site_occupancy
  C   C1        1.0  0.49700  0.13900  0.03090  1.0000
  C   C2        1.0  0.10600  0.36100  0.46900  1.0000
  C   C3        1.0  0.89400  0.63900  0.53100  1.0000
  C   C4        1.0  0.50300  0.86100  0.96900  1.0000
  O   O1        1.0  0.74400  0.66800  0.04010  1.0000
  O   O2        1.0  0.72800  0.16100  0.14600  1.0000
  O   O3        1.0  0.24300  0.33900  0.35400  1.0000
  O   O4        1.0  0.87100  0.83200  0.46000  1.0000
  O   O5        1.0  0.12900  0.16800  0.54000  1.0000
  O   O6        1.0  0.75700  0.66100  0.64600  1.0000
  O   O7        1.0  0.27200  0.83900  0.85400  1.0000
  O   O8        1.0  0.25600  0.33200  0.96000  1.0000
  Sn  Sn1       1.0  0.13800  0.75000  0.25000  1.0000
  Sn  Sn2       1.0  0.86200  0.25000  0.75000  1.0000
