data_image0
_chemical_formula_structural       Fe2K3NaO8
_chemical_formula_sum              "Fe2 K3 Na1 O8"
_cell_length_a       5.73475
_cell_length_b       5.73476
_cell_length_c       7.46652
_cell_angle_alpha    90
_cell_angle_beta     90.0006
_cell_angle_gamma    120

_space_group_name_H-M_alt    "P 1"
_space_group_IT_number       1

loop_
  _space_group_symop_operation_xyz
  'x, y, z'

loop_
  _atom_site_type_symbol
  _atom_site_label
  _atom_site_symmetry_multiplicity
  _atom_site_fract_x
  _atom_site_fract_y
  _atom_site_fract_z
  _atom_site_occupancy
  Fe  Fe1       1.0  0.33300  0.66700  0.27800  1.0000
  Fe  Fe2       1.0  0.66700  0.33300  0.72200  1.0000
  K   K1        1.0  0.66700  0.33300  0.15800  1.0000
  K   K2        1.0  0.00000  0.00000  0.50000  1.0000
  K   K3        1.0  0.33300  0.66700  0.84200  1.0000
  Na  Na1       1.0  0.00000  0.00000  0.00000  1.0000
  O   O1        1.0  0.64400  0.82200  0.19700  1.0000
  O   O2        1.0  0.17800  0.35600  0.19700  1.0000
  O   O3        1.0  0.17800  0.82200  0.19700  1.0000
  O   O4        1.0  0.33300  0.66700  0.49600  1.0000
  O   O5        1.0  0.66700  0.33300  0.50400  1.0000
  O   O6        1.0  0.82200  0.64400  0.80300  1.0000
  O   O7        1.0  0.82200  0.17800  0.80300  1.0000
  O   O8        1.0  0.35600  0.17800  0.80300  1.0000
