data_image0
_chemical_formula_structural       Cr5RbSe8
_chemical_formula_sum              "Cr5 Rb1 Se8"
_cell_length_a       3.67759
_cell_length_b       9.06599
_cell_length_c       9.62148
_cell_angle_alpha    104.357
_cell_angle_beta     101.018
_cell_angle_gamma    90

_space_group_name_H-M_alt    "P 1"
_space_group_IT_number       1

loop_
  _space_group_symop_operation_xyz
  'x, y, z'

loop_
  _atom_site_type_symbol
  _atom_site_label
  _atom_site_symmetry_multiplicity
  _atom_site_fract_x
  _atom_site_fract_y
  _atom_site_fract_z
  _atom_site_occupancy
  Cr  Cr1       1.0  0.00000  0.00000  0.00000  1.0000
  Cr  Cr2       1.0  0.65900  0.98000  0.31800  1.0000
  Cr  Cr3       1.0  0.70400  0.33400  0.40800  1.0000
  Cr  Cr4       1.0  0.29600  0.66600  0.59200  1.0000
  Cr  Cr5       1.0  0.34100  0.01990  0.68200  1.0000
  Rb  Rb1       1.0  0.50000  0.50000  1.00000  1.0000
  Se  Se1       1.0  0.57500  0.15600  0.14900  1.0000
  Se  Se2       1.0  0.08720  0.82900  0.17400  1.0000
  Se  Se3       1.0  0.17100  0.49100  0.34100  1.0000
  Se  Se4       1.0  0.23900  0.15800  0.47700  1.0000
  Se  Se5       1.0  0.76100  0.84200  0.52300  1.0000
  Se  Se6       1.0  0.82900  0.50900  0.65900  1.0000
  Se  Se7       1.0  0.91300  0.17100  0.82600  1.0000
  Se  Se8       1.0  0.42500  0.84400  0.85100  1.0000
