data_image0
_chemical_formula_structural       Ge4Rh4Yb4
_chemical_formula_sum              "Ge4 Rh4 Yb4"
_cell_length_a       7.17338
_cell_length_b       4.37949
_cell_length_c       7.14571
_cell_angle_alpha    90
_cell_angle_beta     90
_cell_angle_gamma    90

_space_group_name_H-M_alt    "P 1"
_space_group_IT_number       1

loop_
  _space_group_symop_operation_xyz
  'x, y, z'

loop_
  _atom_site_type_symbol
  _atom_site_label
  _atom_site_symmetry_multiplicity
  _atom_site_fract_x
  _atom_site_fract_y
  _atom_site_fract_z
  _atom_site_occupancy
  Ge  Ge1       1.0  0.80000  0.25000  0.10700  1.0000
  Ge  Ge2       1.0  0.30000  0.25000  0.39300  1.0000
  Ge  Ge3       1.0  0.70000  0.75000  0.60700  1.0000
  Ge  Ge4       1.0  0.20000  0.75000  0.89300  1.0000
  Rh  Rh1       1.0  0.14800  0.25000  0.07040  1.0000
  Rh  Rh2       1.0  0.64800  0.25000  0.43000  1.0000
  Rh  Rh3       1.0  0.35200  0.75000  0.57000  1.0000
  Rh  Rh4       1.0  0.85200  0.75000  0.93000  1.0000
  Yb  Yb1       1.0  0.50700  0.75000  0.18500  1.0000
  Yb  Yb2       1.0  0.00740  0.75000  0.31500  1.0000
  Yb  Yb3       1.0  0.99300  0.25000  0.68500  1.0000
  Yb  Yb4       1.0  0.49300  0.25000  0.81500  1.0000
