data_image0
_chemical_formula_structural       As4Fe4S4
_chemical_formula_sum              "As4 Fe4 S4"
_cell_length_a       5.65425
_cell_length_b       5.72624
_cell_length_c       5.74785
_cell_angle_alpha    67.9847
_cell_angle_beta     90
_cell_angle_gamma    90

_space_group_name_H-M_alt    "P 1"
_space_group_IT_number       1

loop_
  _space_group_symop_operation_xyz
  'x, y, z'

loop_
  _atom_site_type_symbol
  _atom_site_label
  _atom_site_symmetry_multiplicity
  _atom_site_fract_x
  _atom_site_fract_y
  _atom_site_fract_z
  _atom_site_occupancy
  As  As1       1.0  0.13200  0.14600  0.12800  1.0000
  As  As2       1.0  0.63200  0.85400  0.37200  1.0000
  As  As3       1.0  0.36800  0.14600  0.62800  1.0000
  As  As4       1.0  0.86800  0.85400  0.87200  1.0000
  Fe  Fe1       1.0  0.50800  0.28800  0.20300  1.0000
  Fe  Fe2       1.0  0.00833  0.71200  0.29700  1.0000
  Fe  Fe3       1.0  0.99200  0.28800  0.70300  1.0000
  Fe  Fe4       1.0  0.49200  0.71200  0.79700  1.0000
  S   S1        1.0  0.36700  0.65200  0.17700  1.0000
  S   S2        1.0  0.86700  0.34800  0.32300  1.0000
  S   S3        1.0  0.13300  0.65200  0.67700  1.0000
  S   S4        1.0  0.63300  0.34800  0.82300  1.0000
