data_image0
_chemical_formula_structural       Cu2K2Se6U2
_chemical_formula_sum              "Cu2 K2 Se6 U2"
_cell_length_a       4.10266
_cell_length_b       7.58866
_cell_length_c       10.6982
_cell_angle_alpha    90
_cell_angle_beta     90
_cell_angle_gamma    74.317

_space_group_name_H-M_alt    "P 1"
_space_group_IT_number       1

loop_
  _space_group_symop_operation_xyz
  'x, y, z'

loop_
  _atom_site_type_symbol
  _atom_site_label
  _atom_site_symmetry_multiplicity
  _atom_site_fract_x
  _atom_site_fract_y
  _atom_site_fract_z
  _atom_site_occupancy
  Cu  Cu1       1.0  0.53300  0.93400  0.25000  1.0000
  Cu  Cu2       1.0  0.46700  0.06580  0.75000  1.0000
  K   K1        1.0  0.25400  0.49200  0.25000  1.0000
  K   K2        1.0  0.74600  0.50800  0.75000  1.0000
  Se  Se1       1.0  0.62800  0.74500  0.06150  1.0000
  Se  Se2       1.0  0.93400  0.13100  0.25000  1.0000
  Se  Se3       1.0  0.62800  0.74500  0.43900  1.0000
  Se  Se4       1.0  0.37200  0.25500  0.56100  1.0000
  Se  Se5       1.0  0.06560  0.86900  0.75000  1.0000
  Se  Se6       1.0  0.37200  0.25500  0.93900  1.0000
  U   U1        1.0  0.00000  0.00000  0.00000  1.0000
  U   U2        1.0  0.00000  0.00000  0.50000  1.0000
