data_image0
_chemical_formula_structural       Dy4Sn10
_chemical_formula_sum              "Dy4 Sn10"
_cell_length_a       4.35395
_cell_length_b       4.43156
_cell_length_c       19.0916
_cell_angle_alpha    90
_cell_angle_beta     90
_cell_angle_gamma    90

_space_group_name_H-M_alt    "P 1"
_space_group_IT_number       1

loop_
  _space_group_symop_operation_xyz
  'x, y, z'

loop_
  _atom_site_type_symbol
  _atom_site_label
  _atom_site_symmetry_multiplicity
  _atom_site_fract_x
  _atom_site_fract_y
  _atom_site_fract_z
  _atom_site_occupancy
  Dy  Dy1       1.0  0.75000  0.25000  0.12900  1.0000
  Dy  Dy2       1.0  0.25000  0.25000  0.30000  1.0000
  Dy  Dy3       1.0  0.75000  0.75000  0.70000  1.0000
  Dy  Dy4       1.0  0.25000  0.75000  0.87100  1.0000
  Sn  Sn1       1.0  0.75000  0.75000  0.00148  1.0000
  Sn  Sn2       1.0  0.25000  0.75000  0.15700  1.0000
  Sn  Sn3       1.0  0.75000  0.75000  0.26500  1.0000
  Sn  Sn4       1.0  0.25000  0.75000  0.42300  1.0000
  Sn  Sn5       1.0  0.75000  0.25000  0.42400  1.0000
  Sn  Sn6       1.0  0.25000  0.75000  0.57600  1.0000
  Sn  Sn7       1.0  0.75000  0.25000  0.57700  1.0000
  Sn  Sn8       1.0  0.25000  0.25000  0.73500  1.0000
  Sn  Sn9       1.0  0.75000  0.25000  0.84300  1.0000
  Sn  Sn10      1.0  0.25000  0.25000  0.99900  1.0000
