data_image0
_chemical_formula_structural       As4Mo5
_chemical_formula_sum              "As4 Mo5"
_cell_length_a       3.28933
_cell_length_b       7.03248
_cell_length_c       7.03248
_cell_angle_alpha    93.1353
_cell_angle_beta     103.525
_cell_angle_gamma    76.4752

_space_group_name_H-M_alt    "P 1"
_space_group_IT_number       1

loop_
  _space_group_symop_operation_xyz
  'x, y, z'

loop_
  _atom_site_type_symbol
  _atom_site_label
  _atom_site_symmetry_multiplicity
  _atom_site_fract_x
  _atom_site_fract_y
  _atom_site_fract_z
  _atom_site_occupancy
  As  As1       1.0  0.94300  0.34300  0.23000  1.0000
  As  As2       1.0  0.28600  0.77000  0.34300  1.0000
  As  As3       1.0  0.71400  0.23000  0.65700  1.0000
  As  As4       1.0  0.05680  0.65700  0.77000  1.0000
  Mo  Mo1       1.0  0.00000  0.00000  0.00000  1.0000
  Mo  Mo2       1.0  0.70100  0.67800  0.08020  1.0000
  Mo  Mo3       1.0  0.62100  0.08020  0.32200  1.0000
  Mo  Mo4       1.0  0.37900  0.92000  0.67800  1.0000
  Mo  Mo5       1.0  0.29900  0.32200  0.92000  1.0000
