data_image0
_chemical_formula_structural       Ni3Pb2S2
_chemical_formula_sum              "Ni3 Pb2 S2"
_cell_length_a       5.6225
_cell_length_b       5.62251
_cell_length_c       5.62251
_cell_angle_alpha    60.3857
_cell_angle_beta     60.3857
_cell_angle_gamma    60.3857

_space_group_name_H-M_alt    "P 1"
_space_group_IT_number       1

loop_
  _space_group_symop_operation_xyz
  'x, y, z'

loop_
  _atom_site_type_symbol
  _atom_site_label
  _atom_site_symmetry_multiplicity
  _atom_site_fract_x
  _atom_site_fract_y
  _atom_site_fract_z
  _atom_site_occupancy
  Ni  Ni1       1.0  0.50000  0.00000  0.00000  1.0000
  Ni  Ni2       1.0  0.00000  0.50000  0.00000  1.0000
  Ni  Ni3       1.0  0.00000  0.00000  0.50000  1.0000
  Pb  Pb1       1.0  0.00000  0.00000  0.00000  1.0000
  Pb  Pb2       1.0  0.50000  0.50000  0.50000  1.0000
  S   S1        1.0  0.27300  0.27300  0.27300  1.0000
  S   S2        1.0  0.72700  0.72700  0.72700  1.0000
