data_image0
_chemical_formula_structural       Cd4O8Si2
_chemical_formula_sum              "Cd4 O8 Si2"
_cell_length_a       5.74348
_cell_length_b       5.74348
_cell_length_c       6.68359
_cell_angle_alpha    103.657
_cell_angle_beta     103.657
_cell_angle_gamma    116.775

_space_group_name_H-M_alt    "P 1"
_space_group_IT_number       1

loop_
  _space_group_symop_operation_xyz
  'x, y, z'

loop_
  _atom_site_type_symbol
  _atom_site_label
  _atom_site_symmetry_multiplicity
  _atom_site_fract_x
  _atom_site_fract_y
  _atom_site_fract_z
  _atom_site_occupancy
  Cd  Cd1       1.0  0.68200  0.31800  0.00000  1.0000
  Cd  Cd2       1.0  0.31800  0.68200  0.00000  1.0000
  Cd  Cd3       1.0  0.43200  0.56800  0.50000  1.0000
  Cd  Cd4       1.0  0.06750  0.93200  0.50000  1.0000
  O   O1        1.0  0.12400  0.33500  0.14800  1.0000
  O   O2        1.0  0.02340  0.81300  0.14800  1.0000
  O   O3        1.0  0.72700  0.43700  0.35200  1.0000
  O   O4        1.0  0.62600  0.91500  0.35200  1.0000
  O   O5        1.0  0.56300  0.27300  0.64800  1.0000
  O   O6        1.0  0.08490  0.37400  0.64800  1.0000
  O   O7        1.0  0.66500  0.87600  0.85200  1.0000
  O   O8        1.0  0.18700  0.97700  0.85200  1.0000
  Si  Si1       1.0  0.00000  0.00000  0.00000  1.0000
  Si  Si2       1.0  0.75000  0.25000  0.50000  1.0000
