data_image0
_chemical_formula_structural       C4N4S4Sn2
_chemical_formula_sum              "C4 N4 S4 Sn2"
_cell_length_a       5.67164
_cell_length_b       4.93591
_cell_length_c       10.277
_cell_angle_alpha    82.9811
_cell_angle_beta     79.3623
_cell_angle_gamma    93.2757

_space_group_name_H-M_alt    "P 1"
_space_group_IT_number       1

loop_
  _space_group_symop_operation_xyz
  'x, y, z'

loop_
  _atom_site_type_symbol
  _atom_site_label
  _atom_site_symmetry_multiplicity
  _atom_site_fract_x
  _atom_site_fract_y
  _atom_site_fract_z
  _atom_site_occupancy
  C   C1        1.0  0.74800  0.20300  0.00039  1.0000
  C   C2        1.0  0.60100  0.81400  0.37200  1.0000
  C   C3        1.0  0.39900  0.18600  0.62800  1.0000
  C   C4        1.0  0.25200  0.79700  0.00000  1.0000
  N   N1        1.0  0.22500  0.91700  0.09350  1.0000
  N   N2        1.0  0.41000  0.86200  0.34800  1.0000
  N   N3        1.0  0.59000  0.13800  0.65200  1.0000
  N   N4        1.0  0.77500  0.08310  0.90700  1.0000
  S   S1        1.0  0.71500  0.37800  0.12500  1.0000
  S   S2        1.0  0.86000  0.73400  0.40400  1.0000
  S   S3        1.0  0.14000  0.26600  0.59600  1.0000
  S   S4        1.0  0.28500  0.62200  0.87500  1.0000
  Sn  Sn1       1.0  0.18700  0.17400  0.25600  1.0000
  Sn  Sn2       1.0  0.81300  0.82600  0.74400  1.0000
