data_image0
_chemical_formula_structural       Cl8Cu2Rb4
_chemical_formula_sum              "Cl8 Cu2 Rb4"
_cell_length_a       8.63889
_cell_length_b       7.05341
_cell_length_c       7.05451
_cell_angle_alpha    90
_cell_angle_beta     114.098
_cell_angle_gamma    90

_space_group_name_H-M_alt    "P 1"
_space_group_IT_number       1

loop_
  _space_group_symop_operation_xyz
  'x, y, z'

loop_
  _atom_site_type_symbol
  _atom_site_label
  _atom_site_symmetry_multiplicity
  _atom_site_fract_x
  _atom_site_fract_y
  _atom_site_fract_z
  _atom_site_occupancy
  Cl  Cl1       1.0  0.30500  0.00000  0.15300  1.0000
  Cl  Cl2       1.0  0.00000  0.23600  0.23600  1.0000
  Cl  Cl3       1.0  0.00000  0.73600  0.26400  1.0000
  Cl  Cl4       1.0  0.69500  0.50000  0.34700  1.0000
  Cl  Cl5       1.0  0.30500  0.50000  0.65300  1.0000
  Cl  Cl6       1.0  0.00000  0.26400  0.73600  1.0000
  Cl  Cl7       1.0  0.00000  0.76400  0.76400  1.0000
  Cl  Cl8       1.0  0.69500  0.00000  0.84700  1.0000
  Cu  Cu1       1.0  0.00000  0.00000  0.00000  1.0000
  Cu  Cu2       1.0  0.00000  0.50000  0.50000  1.0000
  Rb  Rb1       1.0  0.28200  0.50000  0.14100  1.0000
  Rb  Rb2       1.0  0.71800  0.00000  0.35900  1.0000
  Rb  Rb3       1.0  0.28200  0.00000  0.64100  1.0000
  Rb  Rb4       1.0  0.71800  0.50000  0.85900  1.0000
