data_image0
_chemical_formula_structural       S6Sn4Tl4
_chemical_formula_sum              "S6 Sn4 Tl4"
_cell_length_a       7.18629
_cell_length_b       8.16883
_cell_length_c       8.27043
_cell_angle_alpha    119.594
_cell_angle_beta     103.818
_cell_angle_gamma    90

_space_group_name_H-M_alt    "P 1"
_space_group_IT_number       1

loop_
  _space_group_symop_operation_xyz
  'x, y, z'

loop_
  _atom_site_type_symbol
  _atom_site_label
  _atom_site_symmetry_multiplicity
  _atom_site_fract_x
  _atom_site_fract_y
  _atom_site_fract_z
  _atom_site_occupancy
  S   S1        1.0  0.75000  0.40900  0.00000  1.0000
  S   S2        1.0  0.25000  0.59100  0.00000  1.0000
  S   S3        1.0  0.19000  0.64400  0.45400  1.0000
  S   S4        1.0  0.69000  0.81000  0.45400  1.0000
  S   S5        1.0  0.81000  0.35600  0.54600  1.0000
  S   S6        1.0  0.31000  0.19000  0.54600  1.0000
  Sn  Sn1       1.0  0.96000  0.74400  0.23900  1.0000
  Sn  Sn2       1.0  0.46000  0.49500  0.23900  1.0000
  Sn  Sn3       1.0  0.03980  0.25600  0.76100  1.0000
  Sn  Sn4       1.0  0.54000  0.50500  0.76100  1.0000
  Tl  Tl1       1.0  0.02120  0.23200  0.24200  1.0000
  Tl  Tl2       1.0  0.52100  0.00986  0.24200  1.0000
  Tl  Tl3       1.0  0.97900  0.76800  0.75800  1.0000
  Tl  Tl4       1.0  0.47900  0.99000  0.75800  1.0000
