data_image0
_chemical_formula_structural       Er6Fe2Si6
_chemical_formula_sum              "Er6 Fe2 Si6"
_cell_length_a       4.12275
_cell_length_b       5.59322
_cell_length_c       12.6432
_cell_angle_alpha    95.0149
_cell_angle_beta     99.3835
_cell_angle_gamma    68.3739

_space_group_name_H-M_alt    "P 1"
_space_group_IT_number       1

loop_
  _space_group_symop_operation_xyz
  'x, y, z'

loop_
  _atom_site_type_symbol
  _atom_site_label
  _atom_site_symmetry_multiplicity
  _atom_site_fract_x
  _atom_site_fract_y
  _atom_site_fract_z
  _atom_site_occupancy
  Er  Er1       1.0  0.39800  0.28400  0.08050  1.0000
  Er  Er2       1.0  0.74800  0.73500  0.23000  1.0000
  Er  Er3       1.0  0.52400  0.33200  0.37900  1.0000
  Er  Er4       1.0  0.47600  0.66800  0.62100  1.0000
  Er  Er5       1.0  0.25200  0.26500  0.77000  1.0000
  Er  Er6       1.0  0.60200  0.71600  0.92000  1.0000
  Fe  Fe1       1.0  0.24700  0.92200  0.41500  1.0000
  Fe  Fe2       1.0  0.75300  0.07810  0.58500  1.0000
  Si  Si1       1.0  0.11400  0.84800  0.07560  1.0000
  Si  Si2       1.0  0.05390  0.13400  0.24200  1.0000
  Si  Si3       1.0  0.85600  0.74500  0.45700  1.0000
  Si  Si4       1.0  0.14400  0.25500  0.54300  1.0000
  Si  Si5       1.0  0.94600  0.86600  0.75800  1.0000
  Si  Si6       1.0  0.88600  0.15200  0.92400  1.0000
