data_image0
_chemical_formula_structural       N4O4S6
_chemical_formula_sum              "N4 O4 S6"
_cell_length_a       4.46178
_cell_length_b       6.47789
_cell_length_c       8.44721
_cell_angle_alpha    97.8496
_cell_angle_beta     105.313
_cell_angle_gamma    90

_space_group_name_H-M_alt    "P 1"
_space_group_IT_number       1

loop_
  _space_group_symop_operation_xyz
  'x, y, z'

loop_
  _atom_site_type_symbol
  _atom_site_label
  _atom_site_symmetry_multiplicity
  _atom_site_fract_x
  _atom_site_fract_y
  _atom_site_fract_z
  _atom_site_occupancy
  N   N1        1.0  0.43400  0.19400  0.13900  1.0000
  N   N2        1.0  0.70600  0.69400  0.13900  1.0000
  N   N3        1.0  0.29400  0.30600  0.86100  1.0000
  N   N4        1.0  0.56600  0.80600  0.86100  1.0000
  O   O1        1.0  0.22000  0.62200  0.34800  1.0000
  O   O2        1.0  0.12800  0.12200  0.34800  1.0000
  O   O3        1.0  0.78000  0.37800  0.65200  1.0000
  O   O4        1.0  0.87200  0.87800  0.65200  1.0000
  S   S1        1.0  0.12500  0.25000  0.00000  1.0000
  S   S2        1.0  0.87500  0.75000  0.00000  1.0000
  S   S3        1.0  0.87700  0.63200  0.31000  1.0000
  S   S4        1.0  0.43300  0.13200  0.31000  1.0000
  S   S5        1.0  0.12300  0.36800  0.69000  1.0000
  S   S6        1.0  0.56700  0.86800  0.69000  1.0000
