data_image0
_chemical_formula_structural       Cu2Li2O8V2
_chemical_formula_sum              "Cu2 Li2 O8 V2"
_cell_length_a       5.66728
_cell_length_b       5.76072
_cell_length_c       5.9156
_cell_angle_alpha    119.138
_cell_angle_beta     118.621
_cell_angle_gamma    90

_space_group_name_H-M_alt    "P 1"
_space_group_IT_number       1

loop_
  _space_group_symop_operation_xyz
  'x, y, z'

loop_
  _atom_site_type_symbol
  _atom_site_label
  _atom_site_symmetry_multiplicity
  _atom_site_fract_x
  _atom_site_fract_y
  _atom_site_fract_z
  _atom_site_occupancy
  Cu  Cu1       1.0  0.00000  0.00000  0.00000  1.0000
  Cu  Cu2       1.0  0.00000  0.50000  0.00000  1.0000
  Li  Li1       1.0  0.00000  0.50000  0.50000  1.0000
  Li  Li2       1.0  0.50000  0.50000  0.50000  1.0000
  O   O1        1.0  0.23700  0.25300  0.00538  1.0000
  O   O2        1.0  0.76900  0.25300  0.00538  1.0000
  O   O3        1.0  0.72700  0.21600  0.45500  1.0000
  O   O4        1.0  0.72700  0.73900  0.45500  1.0000
  O   O5        1.0  0.27300  0.26100  0.54500  1.0000
  O   O6        1.0  0.27300  0.78400  0.54500  1.0000
  O   O7        1.0  0.23100  0.74700  0.99500  1.0000
  O   O8        1.0  0.76300  0.74700  0.99500  1.0000
  V   V1        1.0  0.61400  0.86400  0.22800  1.0000
  V   V2        1.0  0.38600  0.13600  0.77200  1.0000
