data_image0
_chemical_formula_structural       Eu2K2S8Si2
_chemical_formula_sum              "Eu2 K2 S8 Si2"
_cell_length_a       6.88203
_cell_length_b       5.75742
_cell_length_c       9.16033
_cell_angle_alpha    90
_cell_angle_beta     105.878
_cell_angle_gamma    90

_space_group_name_H-M_alt    "P 1"
_space_group_IT_number       1

loop_
  _space_group_symop_operation_xyz
  'x, y, z'

loop_
  _atom_site_type_symbol
  _atom_site_label
  _atom_site_symmetry_multiplicity
  _atom_site_fract_x
  _atom_site_fract_y
  _atom_site_fract_z
  _atom_site_occupancy
  Eu  Eu1       1.0  0.25500  0.18200  0.44800  1.0000
  Eu  Eu2       1.0  0.74500  0.68200  0.55200  1.0000
  K   K1        1.0  0.77200  0.68300  0.04920  1.0000
  K   K2        1.0  0.22800  0.18300  0.95100  1.0000
  S   S1        1.0  0.92300  0.18200  0.17200  1.0000
  S   S2        1.0  0.49700  0.44100  0.26400  1.0000
  S   S3        1.0  0.49700  0.92300  0.26500  1.0000
  S   S4        1.0  0.12000  0.68300  0.44900  1.0000
  S   S5        1.0  0.88000  0.18300  0.55100  1.0000
  S   S6        1.0  0.50300  0.42300  0.73500  1.0000
  S   S7        1.0  0.50300  0.94100  0.73600  1.0000
  S   S8        1.0  0.07670  0.68200  0.82800  1.0000
  Si  Si1       1.0  0.73600  0.18200  0.31600  1.0000
  Si  Si2       1.0  0.26400  0.68200  0.68400  1.0000
