data_image0
_chemical_formula_structural       B13P2
_chemical_formula_sum              "B13 P2"
_cell_length_a       7.939
_cell_length_b       7.93899
_cell_length_c       7.939
_cell_angle_alpha    144.684
_cell_angle_beta     144.684
_cell_angle_gamma    35.316

_space_group_name_H-M_alt    "P 1"
_space_group_IT_number       1

loop_
  _space_group_symop_operation_xyz
  'x, y, z'

loop_
  _atom_site_type_symbol
  _atom_site_label
  _atom_site_symmetry_multiplicity
  _atom_site_fract_x
  _atom_site_fract_y
  _atom_site_fract_z
  _atom_site_occupancy
  B   B1        1.0  0.27800  0.27800  0.09870  1.0000
  B   B2        1.0  0.43800  0.43800  0.17800  1.0000
  B   B3        1.0  0.72200  0.09870  0.27800  1.0000
  B   B4        1.0  0.09870  0.72200  0.27800  1.0000
  B   B5        1.0  0.17800  0.56200  0.43800  1.0000
  B   B6        1.0  0.56200  0.17800  0.43800  1.0000
  B   B7        1.0  0.50000  0.50000  0.50000  1.0000
  B   B8        1.0  0.82200  0.43800  0.56200  1.0000
  B   B9        1.0  0.43800  0.82200  0.56200  1.0000
  B   B10       1.0  0.90100  0.27800  0.72200  1.0000
  B   B11       1.0  0.27800  0.90100  0.72200  1.0000
  B   B12       1.0  0.56200  0.56200  0.82200  1.0000
  B   B13       1.0  0.72200  0.72200  0.90100  1.0000
  P   P1        1.0  0.71900  0.71900  0.28100  1.0000
  P   P2        1.0  0.28100  0.28100  0.71900  1.0000
