data_image0
_chemical_formula_structural       Gd3Zn11
_chemical_formula_sum              "Gd3 Zn11"
_cell_length_a       4.3956
_cell_length_b       8.16194
_cell_length_c       8.16194
_cell_angle_alpha    105.554
_cell_angle_beta     105.621
_cell_angle_gamma    105.621

_space_group_name_H-M_alt    "P 1"
_space_group_IT_number       1

loop_
  _space_group_symop_operation_xyz
  'x, y, z'

loop_
  _atom_site_type_symbol
  _atom_site_label
  _atom_site_symmetry_multiplicity
  _atom_site_fract_x
  _atom_site_fract_y
  _atom_site_fract_z
  _atom_site_occupancy
  Gd  Gd1       1.0  0.00000  0.00000  0.00000  1.0000
  Gd  Gd2       1.0  0.00000  0.70500  0.29500  1.0000
  Gd  Gd3       1.0  0.00000  0.29500  0.70500  1.0000
  Zn  Zn1       1.0  0.36100  0.70300  0.01830  1.0000
  Zn  Zn2       1.0  0.28100  0.42100  0.14200  1.0000
  Zn  Zn3       1.0  0.63900  0.98200  0.29700  1.0000
  Zn  Zn4       1.0  0.81600  0.31600  0.31600  1.0000
  Zn  Zn5       1.0  0.28100  0.14200  0.42100  1.0000
  Zn  Zn6       1.0  0.50000  0.50000  0.50000  1.0000
  Zn  Zn7       1.0  0.71900  0.85800  0.57900  1.0000
  Zn  Zn8       1.0  0.18400  0.68400  0.68400  1.0000
  Zn  Zn9       1.0  0.36100  0.01830  0.70300  1.0000
  Zn  Zn10      1.0  0.71900  0.57900  0.85800  1.0000
  Zn  Zn11      1.0  0.63900  0.29700  0.98200  1.0000
