data_image0
_chemical_formula_structural       Cu2Fe2O5Se2Sr3
_chemical_formula_sum              "Cu2 Fe2 O5 Se2 Sr3"
_cell_length_a       3.97705
_cell_length_b       3.97705
_cell_length_c       13.7453
_cell_angle_alpha    98.3181
_cell_angle_beta     98.3181
_cell_angle_gamma    90

_space_group_name_H-M_alt    "P 1"
_space_group_IT_number       1

loop_
  _space_group_symop_operation_xyz
  'x, y, z'

loop_
  _atom_site_type_symbol
  _atom_site_label
  _atom_site_symmetry_multiplicity
  _atom_site_fract_x
  _atom_site_fract_y
  _atom_site_fract_z
  _atom_site_occupancy
  Cu  Cu1       1.0  0.75000  0.25000  0.50000  1.0000
  Cu  Cu2       1.0  0.25000  0.75000  0.50000  1.0000
  Fe  Fe1       1.0  0.07080  0.07080  0.14200  1.0000
  Fe  Fe2       1.0  0.92900  0.92900  0.85800  1.0000
  O   O1        1.0  0.00000  0.00000  0.00000  1.0000
  O   O2        1.0  0.58000  0.07990  0.16000  1.0000
  O   O3        1.0  0.07990  0.58000  0.16000  1.0000
  O   O4        1.0  0.92000  0.42000  0.84000  1.0000
  O   O5        1.0  0.42000  0.92000  0.84000  1.0000
  Se  Se1       1.0  0.19400  0.19400  0.38700  1.0000
  Se  Se2       1.0  0.80600  0.80600  0.61300  1.0000
  Sr  Sr1       1.0  0.50000  0.50000  0.00000  1.0000
  Sr  Sr2       1.0  0.63800  0.63800  0.27600  1.0000
  Sr  Sr3       1.0  0.36200  0.36200  0.72400  1.0000
