data_image0
_chemical_formula_structural       Au8Nd6
_chemical_formula_sum              "Au8 Nd6"
_cell_length_a       6.16061
_cell_length_b       8.24889
_cell_length_c       8.24889
_cell_angle_alpha    114.019
_cell_angle_beta     104.415
_cell_angle_gamma    104.415

_space_group_name_H-M_alt    "P 1"
_space_group_IT_number       1

loop_
  _space_group_symop_operation_xyz
  'x, y, z'

loop_
  _atom_site_type_symbol
  _atom_site_label
  _atom_site_symmetry_multiplicity
  _atom_site_fract_x
  _atom_site_fract_y
  _atom_site_fract_z
  _atom_site_occupancy
  Au  Au1       1.0  0.50000  1.00000  1.00000  1.0000
  Au  Au2       1.0  0.00000  0.00000  0.00000  1.0000
  Au  Au3       1.0  0.92900  0.49000  0.16100  1.0000
  Au  Au4       1.0  0.76800  0.83900  0.32900  1.0000
  Au  Au5       1.0  0.56100  0.32900  0.49000  1.0000
  Au  Au6       1.0  0.43900  0.67100  0.51000  1.0000
  Au  Au7       1.0  0.23200  0.16100  0.67100  1.0000
  Au  Au8       1.0  0.07080  0.51000  0.83900  1.0000
  Nd  Nd1       1.0  0.39900  0.38400  0.12700  1.0000
  Nd  Nd2       1.0  0.27200  0.87300  0.25700  1.0000
  Nd  Nd3       1.0  0.98500  0.25700  0.38400  1.0000
  Nd  Nd4       1.0  0.01510  0.74300  0.61600  1.0000
  Nd  Nd5       1.0  0.72800  0.12700  0.74300  1.0000
  Nd  Nd6       1.0  0.60100  0.61600  0.87300  1.0000
