data_image0
_chemical_formula_structural       Fe4Si4U4
_chemical_formula_sum              "Fe4 Si4 U4"
_cell_length_a       7.23224
_cell_length_b       3.99907
_cell_length_c       6.34865
_cell_angle_alpha    90
_cell_angle_beta     90
_cell_angle_gamma    90

_space_group_name_H-M_alt    "P 1"
_space_group_IT_number       1

loop_
  _space_group_symop_operation_xyz
  'x, y, z'

loop_
  _atom_site_type_symbol
  _atom_site_label
  _atom_site_symmetry_multiplicity
  _atom_site_fract_x
  _atom_site_fract_y
  _atom_site_fract_z
  _atom_site_occupancy
  Fe  Fe1       1.0  0.87500  0.25000  0.05510  1.0000
  Fe  Fe2       1.0  0.37500  0.25000  0.44500  1.0000
  Fe  Fe3       1.0  0.62500  0.75000  0.55500  1.0000
  Fe  Fe4       1.0  0.12500  0.75000  0.94500  1.0000
  Si  Si1       1.0  0.19800  0.25000  0.11800  1.0000
  Si  Si2       1.0  0.69800  0.25000  0.38200  1.0000
  Si  Si3       1.0  0.30200  0.75000  0.61800  1.0000
  Si  Si4       1.0  0.80200  0.75000  0.88200  1.0000
  U   U1        1.0  0.48800  0.75000  0.15900  1.0000
  U   U2        1.0  0.98800  0.75000  0.34100  1.0000
  U   U3        1.0  0.01160  0.25000  0.65900  1.0000
  U   U4        1.0  0.51200  0.25000  0.84100  1.0000
