data_image0
_chemical_formula_structural       N4Ni6
_chemical_formula_sum              "N4 Ni6"
_cell_length_a       5.10072
_cell_length_b       5.10072
_cell_length_c       5.11208
_cell_angle_alpha    119.926
_cell_angle_beta     60.0735
_cell_angle_gamma    120

_space_group_name_H-M_alt    "P 1"
_space_group_IT_number       1

loop_
  _space_group_symop_operation_xyz
  'x, y, z'

loop_
  _atom_site_type_symbol
  _atom_site_label
  _atom_site_symmetry_multiplicity
  _atom_site_fract_x
  _atom_site_fract_y
  _atom_site_fract_z
  _atom_site_occupancy
  N   N1        1.0  0.63800  0.36200  0.08730  1.0000
  N   N2        1.0  0.86200  0.13800  0.41300  1.0000
  N   N3        1.0  0.13800  0.86200  0.58700  1.0000
  N   N4        1.0  0.36200  0.63800  0.91300  1.0000
  Ni  Ni1       1.0  0.96600  0.46600  0.25000  1.0000
  Ni  Ni2       1.0  0.25000  0.03400  0.25000  1.0000
  Ni  Ni3       1.0  0.53400  0.75000  0.25000  1.0000
  Ni  Ni4       1.0  0.46600  0.25000  0.75000  1.0000
  Ni  Ni5       1.0  0.75000  0.96600  0.75000  1.0000
  Ni  Ni6       1.0  0.03400  0.53400  0.75000  1.0000
