data_image0
_chemical_formula_structural       Cd2Cs4I8
_chemical_formula_sum              "Cd2 Cs4 I8"
_cell_length_a       8.0652
_cell_length_b       8.47595
_cell_length_c       11.3191
_cell_angle_alpha    90
_cell_angle_beta     111.792
_cell_angle_gamma    90

_space_group_name_H-M_alt    "P 1"
_space_group_IT_number       1

loop_
  _space_group_symop_operation_xyz
  'x, y, z'

loop_
  _atom_site_type_symbol
  _atom_site_label
  _atom_site_symmetry_multiplicity
  _atom_site_fract_x
  _atom_site_fract_y
  _atom_site_fract_z
  _atom_site_occupancy
  Cd  Cd1       1.0  0.08810  0.25000  0.27800  1.0000
  Cd  Cd2       1.0  0.91200  0.75000  0.72200  1.0000
  Cs  Cs1       1.0  0.78500  0.75000  0.09130  1.0000
  Cs  Cs2       1.0  0.66000  0.25000  0.46600  1.0000
  Cs  Cs3       1.0  0.34000  0.75000  0.53400  1.0000
  Cs  Cs4       1.0  0.21500  0.25000  0.90900  1.0000
  I   I1        1.0  0.71800  0.25000  0.14500  1.0000
  I   I2        1.0  0.25200  0.51300  0.21400  1.0000
  I   I3        1.0  0.25200  0.98700  0.21400  1.0000
  I   I4        1.0  0.81200  0.75000  0.45300  1.0000
  I   I5        1.0  0.18800  0.25000  0.54700  1.0000
  I   I6        1.0  0.74800  0.01260  0.78600  1.0000
  I   I7        1.0  0.74800  0.48700  0.78600  1.0000
  I   I8        1.0  0.28200  0.75000  0.85500  1.0000
