data_image0
_chemical_formula_structural       Br2F8K2
_chemical_formula_sum              "Br2 F8 K2"
_cell_length_a       5.92643
_cell_length_b       5.92643
_cell_length_c       6.82307
_cell_angle_alpha    115.74
_cell_angle_beta     115.74
_cell_angle_gamma    90

_space_group_name_H-M_alt    "P 1"
_space_group_IT_number       1

loop_
  _space_group_symop_operation_xyz
  'x, y, z'

loop_
  _atom_site_type_symbol
  _atom_site_label
  _atom_site_symmetry_multiplicity
  _atom_site_fract_x
  _atom_site_fract_y
  _atom_site_fract_z
  _atom_site_occupancy
  Br  Br1       1.0  0.50000  0.00000  0.00000  1.0000
  Br  Br2       1.0  0.00000  0.50000  0.00000  1.0000
  F   F1        1.0  0.96400  0.78800  0.25100  1.0000
  F   F2        1.0  0.46400  0.96400  0.25100  1.0000
  F   F3        1.0  0.78800  0.28800  0.25100  1.0000
  F   F4        1.0  0.28800  0.46400  0.25100  1.0000
  F   F5        1.0  0.71200  0.53600  0.74900  1.0000
  F   F6        1.0  0.21200  0.71200  0.74900  1.0000
  F   F7        1.0  0.53600  0.03640  0.74900  1.0000
  F   F8        1.0  0.03640  0.21200  0.74900  1.0000
  K   K1        1.0  0.75000  0.75000  0.50000  1.0000
  K   K2        1.0  0.25000  0.25000  0.50000  1.0000
