data_image0
_chemical_formula_structural       K2Li2O8S2
_chemical_formula_sum              "K2 Li2 O8 S2"
_cell_length_a       5.07874
_cell_length_b       5.07882
_cell_length_c       8.60864
_cell_angle_alpha    90
_cell_angle_beta     90
_cell_angle_gamma    119.999

_space_group_name_H-M_alt    "P 1"
_space_group_IT_number       1

loop_
  _space_group_symop_operation_xyz
  'x, y, z'

loop_
  _atom_site_type_symbol
  _atom_site_label
  _atom_site_symmetry_multiplicity
  _atom_site_fract_x
  _atom_site_fract_y
  _atom_site_fract_z
  _atom_site_occupancy
  K   K1        1.0  0.00001  0.00001  0.00411  1.0000
  K   K2        1.0  0.00000  0.00000  0.50400  1.0000
  Li  Li1       1.0  0.66700  0.33300  0.31400  1.0000
  Li  Li2       1.0  0.33300  0.66700  0.81400  1.0000
  O   O1        1.0  0.33300  0.66700  0.03410  1.0000
  O   O2        1.0  0.05820  0.67000  0.26200  1.0000
  O   O3        1.0  0.33000  0.38800  0.26200  1.0000
  O   O4        1.0  0.61200  0.94200  0.26200  1.0000
  O   O5        1.0  0.66700  0.33300  0.53400  1.0000
  O   O6        1.0  0.94200  0.33000  0.76200  1.0000
  O   O7        1.0  0.67000  0.61200  0.76200  1.0000
  O   O8        1.0  0.38800  0.05820  0.76200  1.0000
  S   S1        1.0  0.33300  0.66700  0.20700  1.0000
  S   S2        1.0  0.66700  0.33300  0.70700  1.0000
