data_image0
_chemical_formula_structural       Al2EuSi2
_chemical_formula_sum              "Al2 Eu1 Si2"
_cell_length_a       4.17804
_cell_length_b       4.17822
_cell_length_c       7.22843
_cell_angle_alpha    90
_cell_angle_beta     89.9982
_cell_angle_gamma    120.001

_space_group_name_H-M_alt    "P 1"
_space_group_IT_number       1

loop_
  _space_group_symop_operation_xyz
  'x, y, z'

loop_
  _atom_site_type_symbol
  _atom_site_label
  _atom_site_symmetry_multiplicity
  _atom_site_fract_x
  _atom_site_fract_y
  _atom_site_fract_z
  _atom_site_occupancy
  Al  Al1       1.0  0.66700  0.33300  0.37100  1.0000
  Al  Al2       1.0  0.33300  0.66700  0.62900  1.0000
  Eu  Eu1       1.0  0.00000  0.00000  0.00000  1.0000
  Si  Si1       1.0  0.33300  0.66700  0.26800  1.0000
  Si  Si2       1.0  0.66700  0.33300  0.73200  1.0000
