data_image0
_chemical_formula_structural       Ag6Rb2S4
_chemical_formula_sum              "Ag6 Rb2 S4"
_cell_length_a       4.33263
_cell_length_b       10.8349
_cell_length_c       8.41357
_cell_angle_alpha    123.204
_cell_angle_beta     90
_cell_angle_gamma    101.533

_space_group_name_H-M_alt    "P 1"
_space_group_IT_number       1

loop_
  _space_group_symop_operation_xyz
  'x, y, z'

loop_
  _atom_site_type_symbol
  _atom_site_label
  _atom_site_symmetry_multiplicity
  _atom_site_fract_x
  _atom_site_fract_y
  _atom_site_fract_z
  _atom_site_occupancy
  Ag  Ag1       1.0  0.01180  0.02360  0.18700  1.0000
  Ag  Ag2       1.0  0.91600  0.83100  0.31900  1.0000
  Ag  Ag3       1.0  0.58700  0.17500  0.44200  1.0000
  Ag  Ag4       1.0  0.41300  0.82500  0.55800  1.0000
  Ag  Ag5       1.0  0.08430  0.16900  0.68100  1.0000
  Ag  Ag6       1.0  0.98800  0.97600  0.81300  1.0000
  Rb  Rb1       1.0  0.19800  0.39600  0.20400  1.0000
  Rb  Rb2       1.0  0.80200  0.60400  0.79600  1.0000
  S   S1        1.0  0.43600  0.87100  0.14700  1.0000
  S   S2        1.0  0.83900  0.67800  0.46000  1.0000
  S   S3        1.0  0.16100  0.32200  0.54000  1.0000
  S   S4        1.0  0.56400  0.12900  0.85300  1.0000
