data_image0
_chemical_formula_structural       Bi4Pd6Se4
_chemical_formula_sum              "Bi4 Pd6 Se4"
_cell_length_a       7.28169
_cell_length_b       7.28169
_cell_length_c       7.44907
_cell_angle_alpha    109.172
_cell_angle_beta     109.681
_cell_angle_gamma    108.634

_space_group_name_H-M_alt    "P 1"
_space_group_IT_number       1

loop_
  _space_group_symop_operation_xyz
  'x, y, z'

loop_
  _atom_site_type_symbol
  _atom_site_label
  _atom_site_symmetry_multiplicity
  _atom_site_fract_x
  _atom_site_fract_y
  _atom_site_fract_z
  _atom_site_occupancy
  Bi  Bi1       1.0  0.00613  0.25100  0.25700  1.0000
  Bi  Bi2       1.0  0.51600  0.78200  0.29700  1.0000
  Bi  Bi3       1.0  0.48400  0.21800  0.70300  1.0000
  Bi  Bi4       1.0  0.99400  0.74900  0.74300  1.0000
  Pd  Pd1       1.0  0.22600  0.97700  0.20300  1.0000
  Pd  Pd2       1.0  0.00000  0.00000  0.50000  1.0000
  Pd  Pd3       1.0  0.50000  0.50000  0.50000  1.0000
  Pd  Pd4       1.0  0.77600  0.27600  0.50000  1.0000
  Pd  Pd5       1.0  0.22400  0.72400  0.50000  1.0000
  Pd  Pd6       1.0  0.77400  0.02300  0.79700  1.0000
  Se  Se1       1.0  0.50100  0.25700  0.17600  1.0000
  Se  Se2       1.0  0.91900  0.67500  0.17600  1.0000
  Se  Se3       1.0  0.08140  0.32500  0.82400  1.0000
  Se  Se4       1.0  0.49900  0.74300  0.82400  1.0000
