data_image0
_chemical_formula_structural       Cr2F10Mn2
_chemical_formula_sum              "Cr2 F10 Mn2"
_cell_length_a       5.23895
_cell_length_b       5.23895
_cell_length_c       7.25362
_cell_angle_alpha    110.178
_cell_angle_beta     69.8217
_cell_angle_gamma    107.637

_space_group_name_H-M_alt    "P 1"
_space_group_IT_number       1

loop_
  _space_group_symop_operation_xyz
  'x, y, z'

loop_
  _atom_site_type_symbol
  _atom_site_label
  _atom_site_symmetry_multiplicity
  _atom_site_fract_x
  _atom_site_fract_y
  _atom_site_fract_z
  _atom_site_occupancy
  Cr  Cr1       1.0  0.00000  0.00000  0.00000  1.0000
  Cr  Cr2       1.0  1.00000  1.00000  0.50000  1.0000
  F   F1        1.0  0.73100  0.66600  0.03350  1.0000
  F   F2        1.0  0.70600  0.19300  0.13700  1.0000
  F   F3        1.0  0.10200  0.10200  0.25000  1.0000
  F   F4        1.0  0.19300  0.70600  0.36300  1.0000
  F   F5        1.0  0.66600  0.73100  0.46600  1.0000
  F   F6        1.0  0.33400  0.26900  0.53400  1.0000
  F   F7        1.0  0.80700  0.29400  0.63700  1.0000
  F   F8        1.0  0.89800  0.89800  0.75000  1.0000
  F   F9        1.0  0.29400  0.80700  0.86300  1.0000
  F   F10       1.0  0.26900  0.33400  0.96600  1.0000
  Mn  Mn1       1.0  0.46200  0.46200  0.25000  1.0000
  Mn  Mn2       1.0  0.53800  0.53800  0.75000  1.0000
