data_image0
_chemical_formula_structural       K2O8Tc2
_chemical_formula_sum              "K2 O8 Tc2"
_cell_length_a       7.46254
_cell_length_b       7.46254
_cell_length_c       7.46254
_cell_angle_alpha    136.274
_cell_angle_beta     136.274
_cell_angle_gamma    63.5565

_space_group_name_H-M_alt    "P 1"
_space_group_IT_number       1

loop_
  _space_group_symop_operation_xyz
  'x, y, z'

loop_
  _atom_site_type_symbol
  _atom_site_label
  _atom_site_symmetry_multiplicity
  _atom_site_fract_x
  _atom_site_fract_y
  _atom_site_fract_z
  _atom_site_occupancy
  K   K1        1.0  0.87500  0.62500  0.25000  1.0000
  K   K2        1.0  0.12500  0.37500  0.75000  1.0000
  O   O1        1.0  0.81600  0.18400  0.09380  1.0000
  O   O2        1.0  0.22200  0.31600  0.13200  1.0000
  O   O3        1.0  0.68400  0.09030  0.36800  1.0000
  O   O4        1.0  0.59000  0.72200  0.40600  1.0000
  O   O5        1.0  0.41000  0.27800  0.59400  1.0000
  O   O6        1.0  0.31600  0.91000  0.63200  1.0000
  O   O7        1.0  0.77800  0.68400  0.86800  1.0000
  O   O8        1.0  0.18400  0.81600  0.90600  1.0000
  Tc  Tc1       1.0  0.37500  0.12500  0.25000  1.0000
  Tc  Tc2       1.0  0.62500  0.87500  0.75000  1.0000
