data_image0
_chemical_formula_structural       Al2Ca2F10
_chemical_formula_sum              "Al2 Ca2 F10"
_cell_length_a       5.30876
_cell_length_b       5.30876
_cell_length_c       7.23235
_cell_angle_alpha    110.009
_cell_angle_beta     69.991
_cell_angle_gamma    108.299

_space_group_name_H-M_alt    "P 1"
_space_group_IT_number       1

loop_
  _space_group_symop_operation_xyz
  'x, y, z'

loop_
  _atom_site_type_symbol
  _atom_site_label
  _atom_site_symmetry_multiplicity
  _atom_site_fract_x
  _atom_site_fract_y
  _atom_site_fract_z
  _atom_site_occupancy
  Al  Al1       1.0  0.00000  0.00000  0.00000  1.0000
  Al  Al2       1.0  1.00000  1.00000  0.50000  1.0000
  Ca  Ca1       1.0  0.45100  0.45100  0.25000  1.0000
  Ca  Ca2       1.0  0.54900  0.54900  0.75000  1.0000
  F   F1        1.0  0.72900  0.69900  0.03070  1.0000
  F   F2        1.0  0.75300  0.20300  0.11600  1.0000
  F   F3        1.0  0.06490  0.06490  0.25000  1.0000
  F   F4        1.0  0.20300  0.75300  0.38400  1.0000
  F   F5        1.0  0.69900  0.72900  0.46900  1.0000
  F   F6        1.0  0.30100  0.27100  0.53100  1.0000
  F   F7        1.0  0.79700  0.24700  0.61600  1.0000
  F   F8        1.0  0.93500  0.93500  0.75000  1.0000
  F   F9        1.0  0.24700  0.79700  0.88400  1.0000
  F   F10       1.0  0.27100  0.30100  0.96900  1.0000
