data_image0
_chemical_formula_structural       Mn12Th
_chemical_formula_sum              "Mn12 Th1"
_cell_length_a       4.55055
_cell_length_b       6.32555
_cell_length_c       6.32555
_cell_angle_alpha    97.4338
_cell_angle_beta     68.9185
_cell_angle_gamma    111.082

_space_group_name_H-M_alt    "P 1"
_space_group_IT_number       1

loop_
  _space_group_symop_operation_xyz
  'x, y, z'

loop_
  _atom_site_type_symbol
  _atom_site_label
  _atom_site_symmetry_multiplicity
  _atom_site_fract_x
  _atom_site_fract_y
  _atom_site_fract_z
  _atom_site_occupancy
  Mn  Mn1       1.0  0.00000  0.50000  0.00000  1.0000
  Mn  Mn2       1.0  0.50000  0.50000  0.00000  1.0000
  Mn  Mn3       1.0  0.26600  0.76600  0.23400  1.0000
  Mn  Mn4       1.0  0.50000  0.23400  0.23400  1.0000
  Mn  Mn5       1.0  0.00000  0.36400  0.36400  1.0000
  Mn  Mn6       1.0  0.63600  0.63600  0.36400  1.0000
  Mn  Mn7       1.0  1.00000  0.00000  0.50000  1.0000
  Mn  Mn8       1.0  0.50000  0.00000  0.50000  1.0000
  Mn  Mn9       1.0  0.36400  0.36400  0.63600  1.0000
  Mn  Mn10      1.0  0.00000  0.63600  0.63600  1.0000
  Mn  Mn11      1.0  0.50000  0.76600  0.76600  1.0000
  Mn  Mn12      1.0  0.73400  0.23400  0.76600  1.0000
  Th  Th1       1.0  0.00000  0.00000  0.00000  1.0000
