data_image0
_chemical_formula_structural       Ir4Lu10
_chemical_formula_sum              "Ir4 Lu10"
_cell_length_a       6.35038
_cell_length_b       7.11164
_cell_length_c       8.22797
_cell_angle_alpha    96.5099
_cell_angle_beta     112.7
_cell_angle_gamma    90

_space_group_name_H-M_alt    "P 1"
_space_group_IT_number       1

loop_
  _space_group_symop_operation_xyz
  'x, y, z'

loop_
  _atom_site_type_symbol
  _atom_site_label
  _atom_site_symmetry_multiplicity
  _atom_site_fract_x
  _atom_site_fract_y
  _atom_site_fract_z
  _atom_site_occupancy
  Ir  Ir1       1.0  0.82700  0.57300  0.21800  1.0000
  Ir  Ir2       1.0  0.39100  0.07280  0.21800  1.0000
  Ir  Ir3       1.0  0.60900  0.92700  0.78200  1.0000
  Ir  Ir4       1.0  0.17300  0.42700  0.78200  1.0000
  Lu  Lu1       1.0  0.42700  0.75000  0.00000  1.0000
  Lu  Lu2       1.0  0.57300  0.25000  0.00000  1.0000
  Lu  Lu3       1.0  0.96800  0.92000  0.18200  1.0000
  Lu  Lu4       1.0  0.21300  0.42000  0.18200  1.0000
  Lu  Lu5       1.0  0.78800  0.31800  0.44300  1.0000
  Lu  Lu6       1.0  0.65500  0.81800  0.44300  1.0000
  Lu  Lu7       1.0  0.21200  0.68200  0.55700  1.0000
  Lu  Lu8       1.0  0.34500  0.18200  0.55700  1.0000
  Lu  Lu9       1.0  0.78700  0.58000  0.81800  1.0000
  Lu  Lu10      1.0  0.03180  0.07970  0.81800  1.0000
