data_image0
_chemical_formula_structural       Er6Ni2Si6
_chemical_formula_sum              "Er6 Ni2 Si6"
_cell_length_a       4.15948
_cell_length_b       5.5355
_cell_length_c       12.7601
_cell_angle_alpha    95.2734
_cell_angle_beta     99.3803
_cell_angle_gamma    67.9318

_space_group_name_H-M_alt    "P 1"
_space_group_IT_number       1

loop_
  _space_group_symop_operation_xyz
  'x, y, z'

loop_
  _atom_site_type_symbol
  _atom_site_label
  _atom_site_symmetry_multiplicity
  _atom_site_fract_x
  _atom_site_fract_y
  _atom_site_fract_z
  _atom_site_occupancy
  Er  Er1       1.0  0.39800  0.28300  0.07870  1.0000
  Er  Er2       1.0  0.74700  0.73300  0.22800  1.0000
  Er  Er3       1.0  0.53000  0.32000  0.38000  1.0000
  Er  Er4       1.0  0.47000  0.68000  0.62000  1.0000
  Er  Er5       1.0  0.25300  0.26700  0.77200  1.0000
  Er  Er6       1.0  0.60200  0.71700  0.92100  1.0000
  Ni  Ni1       1.0  0.24700  0.90800  0.40300  1.0000
  Ni  Ni2       1.0  0.75300  0.09240  0.59700  1.0000
  Si  Si1       1.0  0.11400  0.84800  0.07600  1.0000
  Si  Si2       1.0  0.04550  0.14500  0.23600  1.0000
  Si  Si3       1.0  0.86400  0.72800  0.45700  1.0000
  Si  Si4       1.0  0.13600  0.27200  0.54300  1.0000
  Si  Si5       1.0  0.95500  0.85500  0.76400  1.0000
  Si  Si6       1.0  0.88600  0.15200  0.92400  1.0000
