data_image0
_chemical_formula_structural       Cl2Nd2O7Ta2
_chemical_formula_sum              "Cl2 Nd2 O7 Ta2"
_cell_length_a       3.9285
_cell_length_b       6.91015
_cell_length_c       7.92773
_cell_angle_alpha    113.159
_cell_angle_beta     104.346
_cell_angle_gamma    90

_space_group_name_H-M_alt    "P 1"
_space_group_IT_number       1

loop_
  _space_group_symop_operation_xyz
  'x, y, z'

loop_
  _atom_site_type_symbol
  _atom_site_label
  _atom_site_symmetry_multiplicity
  _atom_site_fract_x
  _atom_site_fract_y
  _atom_site_fract_z
  _atom_site_occupancy
  Cl  Cl1       1.0  0.67700  0.56500  0.35500  1.0000
  Cl  Cl2       1.0  0.32300  0.43500  0.64500  1.0000
  Nd  Nd1       1.0  0.69300  0.16700  0.38500  1.0000
  Nd  Nd2       1.0  0.30700  0.83300  0.61500  1.0000
  O   O1        1.0  0.00000  0.50000  1.00000  1.0000
  O   O2        1.0  0.54500  0.83700  0.08940  1.0000
  O   O3        1.0  0.08250  0.15400  0.16500  1.0000
  O   O4        1.0  0.17600  0.93100  0.35200  1.0000
  O   O5        1.0  0.82400  0.06860  0.64800  1.0000
  O   O6        1.0  0.91700  0.84600  0.83500  1.0000
  O   O7        1.0  0.45500  0.16300  0.91100  1.0000
  Ta  Ta1       1.0  0.03480  0.79900  0.06950  1.0000
  Ta  Ta2       1.0  0.96500  0.20100  0.93000  1.0000
