data_image0
_chemical_formula_structural       F10HPPb2
_chemical_formula_sum              "F10 H1 P1 Pb2"
_cell_length_a       4.445
_cell_length_b       4.59853
_cell_length_c       8.53304
_cell_angle_alpha    86.564
_cell_angle_beta     76.0835
_cell_angle_gamma    81.6148

_space_group_name_H-M_alt    "P 1"
_space_group_IT_number       1

loop_
  _space_group_symop_operation_xyz
  'x, y, z'

loop_
  _atom_site_type_symbol
  _atom_site_label
  _atom_site_symmetry_multiplicity
  _atom_site_fract_x
  _atom_site_fract_y
  _atom_site_fract_z
  _atom_site_occupancy
  F   F1        1.0  0.66400  0.71000  0.03620  1.0000
  F   F2        1.0  0.83800  0.22900  0.09960  1.0000
  F   F3        1.0  0.06480  0.60300  0.16700  1.0000
  F   F4        1.0  0.38300  0.52600  0.39400  1.0000
  F   F5        1.0  0.78700  0.97500  0.41200  1.0000
  F   F6        1.0  0.21300  0.02510  0.58800  1.0000
  F   F7        1.0  0.61700  0.47400  0.60600  1.0000
  F   F8        1.0  0.93500  0.39700  0.83300  1.0000
  F   F9        1.0  0.16200  0.77100  0.90000  1.0000
  F   F10       1.0  0.33600  0.29000  0.96400  1.0000
  H   H1        1.0  0.50000  0.50000  0.50000  1.0000
  P   P1        1.0  1.00000  0.50000  0.00000  1.0000
  Pb  Pb1       1.0  0.32200  0.03830  0.30400  1.0000
  Pb  Pb2       1.0  0.67800  0.96200  0.69600  1.0000
