data_image0
_chemical_formula_structural       Au2CaF12
_chemical_formula_sum              "Au2 Ca1 F12"
_cell_length_a       5.07368
_cell_length_b       5.07368
_cell_length_c       7.94561
_cell_angle_alpha    90
_cell_angle_beta     90
_cell_angle_gamma    90

_space_group_name_H-M_alt    "P 1"
_space_group_IT_number       1

loop_
  _space_group_symop_operation_xyz
  'x, y, z'

loop_
  _atom_site_type_symbol
  _atom_site_label
  _atom_site_symmetry_multiplicity
  _atom_site_fract_x
  _atom_site_fract_y
  _atom_site_fract_z
  _atom_site_occupancy
  Au  Au1       1.0  0.00000  0.50000  0.26000  1.0000
  Au  Au2       1.0  0.50000  0.00000  0.74000  1.0000
  Ca  Ca1       1.0  0.00000  0.00000  0.00000  1.0000
  F   F1        1.0  0.00000  0.50000  0.01110  1.0000
  F   F2        1.0  0.25900  0.22600  0.24200  1.0000
  F   F3        1.0  0.74100  0.22600  0.24200  1.0000
  F   F4        1.0  0.25900  0.77400  0.24200  1.0000
  F   F5        1.0  0.74100  0.77400  0.24200  1.0000
  F   F6        1.0  0.00000  0.50000  0.49900  1.0000
  F   F7        1.0  0.50000  0.00000  0.50100  1.0000
  F   F8        1.0  0.22600  0.25900  0.75800  1.0000
  F   F9        1.0  0.77400  0.25900  0.75800  1.0000
  F   F10       1.0  0.22600  0.74100  0.75800  1.0000
  F   F11       1.0  0.77400  0.74100  0.75800  1.0000
  F   F12       1.0  0.50000  0.00000  0.98900  1.0000
