data_image0
_chemical_formula_structural       Cr7Se8
_chemical_formula_sum              "Cr7 Se8"
_cell_length_a       7.05724
_cell_length_b       7.05724
_cell_length_c       7.4043
_cell_angle_alpha    104.728
_cell_angle_beta     105.998
_cell_angle_gamma    116.367

_space_group_name_H-M_alt    "P 1"
_space_group_IT_number       1

loop_
  _space_group_symop_operation_xyz
  'x, y, z'

loop_
  _atom_site_type_symbol
  _atom_site_label
  _atom_site_symmetry_multiplicity
  _atom_site_fract_x
  _atom_site_fract_y
  _atom_site_fract_z
  _atom_site_occupancy
  Cr  Cr1       1.0  0.50000  0.50000  0.00000  1.0000
  Cr  Cr2       1.0  0.24400  0.76500  0.00951  1.0000
  Cr  Cr3       1.0  0.73000  0.23000  0.50000  1.0000
  Cr  Cr4       1.0  0.00000  0.00000  0.50000  1.0000
  Cr  Cr5       1.0  0.50000  0.50000  0.50000  1.0000
  Cr  Cr6       1.0  0.27000  0.77000  0.50000  1.0000
  Cr  Cr7       1.0  0.75600  0.23500  0.99000  1.0000
  Se  Se1       1.0  0.21100  0.47000  0.16900  1.0000
  Se  Se2       1.0  0.69900  0.95800  0.16900  1.0000
  Se  Se3       1.0  0.28400  0.04850  0.33200  1.0000
  Se  Se4       1.0  0.79700  0.53600  0.33300  1.0000
  Se  Se5       1.0  0.20300  0.46400  0.66700  1.0000
  Se  Se6       1.0  0.71600  0.95100  0.66800  1.0000
  Se  Se7       1.0  0.30100  0.04190  0.83100  1.0000
  Se  Se8       1.0  0.78900  0.53000  0.83100  1.0000
