data_image0
_chemical_formula_structural       Mo6Na2Se6
_chemical_formula_sum              "Mo6 Na2 Se6"
_cell_length_a       8.72498
_cell_length_b       8.71887
_cell_length_c       4.5117
_cell_angle_alpha    90
_cell_angle_beta     90
_cell_angle_gamma    119.955

_space_group_name_H-M_alt    "P 1"
_space_group_IT_number       1

loop_
  _space_group_symop_operation_xyz
  'x, y, z'

loop_
  _atom_site_type_symbol
  _atom_site_label
  _atom_site_symmetry_multiplicity
  _atom_site_fract_x
  _atom_site_fract_y
  _atom_site_fract_z
  _atom_site_occupancy
  Mo  Mo1       1.0  0.84900  0.04230  0.25000  1.0000
  Mo  Mo2       1.0  0.19300  0.15100  0.25000  1.0000
  Mo  Mo3       1.0  0.95800  0.80600  0.25000  1.0000
  Mo  Mo4       1.0  0.04200  0.19400  0.75000  1.0000
  Mo  Mo5       1.0  0.80700  0.84900  0.75000  1.0000
  Mo  Mo6       1.0  0.15100  0.95800  0.75000  1.0000
  Na  Na1       1.0  0.66700  0.33300  0.25000  1.0000
  Na  Na2       1.0  0.33300  0.66700  0.75000  1.0000
  Se  Se1       1.0  0.08220  0.38300  0.25000  1.0000
  Se  Se2       1.0  0.61700  0.69900  0.25000  1.0000
  Se  Se3       1.0  0.30100  0.91700  0.25000  1.0000
  Se  Se4       1.0  0.69900  0.08260  0.75000  1.0000
  Se  Se5       1.0  0.38300  0.30100  0.75000  1.0000
  Se  Se6       1.0  0.91800  0.61700  0.75000  1.0000
