data_image0
_chemical_formula_structural       CeMo6S8
_chemical_formula_sum              "Ce1 Mo6 S8"
_cell_length_a       6.54692
_cell_length_b       6.54692
_cell_length_c       6.54692
_cell_angle_alpha    91.2664
_cell_angle_beta     91.2664
_cell_angle_gamma    88.7336

_space_group_name_H-M_alt    "P 1"
_space_group_IT_number       1

loop_
  _space_group_symop_operation_xyz
  'x, y, z'

loop_
  _atom_site_type_symbol
  _atom_site_label
  _atom_site_symmetry_multiplicity
  _atom_site_fract_x
  _atom_site_fract_y
  _atom_site_fract_z
  _atom_site_occupancy
  Ce  Ce1       1.0  0.00000  0.00000  0.00000  1.0000
  Mo  Mo1       1.0  0.43700  0.58100  0.22600  1.0000
  Mo  Mo2       1.0  0.77400  0.43700  0.41900  1.0000
  Mo  Mo3       1.0  0.41900  0.22600  0.43700  1.0000
  Mo  Mo4       1.0  0.58100  0.77400  0.56300  1.0000
  Mo  Mo5       1.0  0.22600  0.56300  0.58100  1.0000
  Mo  Mo6       1.0  0.56300  0.41900  0.77400  1.0000
  S   S1        1.0  0.62300  0.25100  0.12600  1.0000
  S   S2        1.0  0.75500  0.75500  0.24500  1.0000
  S   S3        1.0  0.12600  0.37700  0.25100  1.0000
  S   S4        1.0  0.25100  0.87400  0.37700  1.0000
  S   S5        1.0  0.74900  0.12600  0.62300  1.0000
  S   S6        1.0  0.87400  0.62300  0.74900  1.0000
  S   S7        1.0  0.24500  0.24500  0.75500  1.0000
  S   S8        1.0  0.37700  0.74900  0.87400  1.0000
