data_image0
_chemical_formula_structural       Bi4Nb4O18Pb2
_chemical_formula_sum              "Bi4 Nb4 O18 Pb2"
_cell_length_a       5.46463
_cell_length_b       12.6232
_cell_length_c       12.6232
_cell_angle_alpha    25.0588
_cell_angle_beta     90
_cell_angle_gamma    90

_space_group_name_H-M_alt    "P 1"
_space_group_IT_number       1

loop_
  _space_group_symop_operation_xyz
  'x, y, z'

loop_
  _atom_site_type_symbol
  _atom_site_label
  _atom_site_symmetry_multiplicity
  _atom_site_fract_x
  _atom_site_fract_y
  _atom_site_fract_z
  _atom_site_occupancy
  Bi  Bi1       1.0  0.46700  0.56800  0.03220  1.0000
  Bi  Bi2       1.0  0.96700  0.43200  0.96800  1.0000
  Bi  Bi3       1.0  0.96700  0.03220  0.56800  1.0000
  Bi  Bi4       1.0  0.46700  0.96800  0.43200  1.0000
  Nb  Nb1       1.0  0.47900  0.34300  0.83700  1.0000
  Nb  Nb2       1.0  0.97900  0.65700  0.16300  1.0000
  Nb  Nb3       1.0  0.97900  0.83700  0.34300  1.0000
  Nb  Nb4       1.0  0.47900  0.16300  0.65700  1.0000
  O   O1        1.0  0.00053  0.70500  0.29500  1.0000
  O   O2        1.0  0.50100  0.29500  0.70500  1.0000
  O   O3        1.0  0.48900  0.36800  0.96200  1.0000
  O   O4        1.0  0.98900  0.63200  0.03770  1.0000
  O   O5        1.0  0.98900  0.96200  0.36800  1.0000
  O   O6        1.0  0.48900  0.03770  0.63200  1.0000
  O   O7        1.0  0.72500  0.74600  0.74900  1.0000
  O   O8        1.0  0.22500  0.25400  0.25100  1.0000
  O   O9        1.0  0.22500  0.74900  0.74600  1.0000
  O   O10       1.0  0.72500  0.25100  0.25400  1.0000
  O   O11       1.0  0.69800  0.02980  0.12300  1.0000
  O   O12       1.0  0.19800  0.97000  0.87700  1.0000
  O   O13       1.0  0.19800  0.12300  0.02980  1.0000
  O   O14       1.0  0.69800  0.87700  0.97000  1.0000
  O   O15       1.0  0.80400  0.34800  0.47100  1.0000
  O   O16       1.0  0.30400  0.65200  0.52900  1.0000
  O   O17       1.0  0.30400  0.47100  0.34800  1.0000
  O   O18       1.0  0.80400  0.52900  0.65200  1.0000
  Pb  Pb1       1.0  0.45900  0.74900  0.25100  1.0000
  Pb  Pb2       1.0  0.95900  0.25100  0.74900  1.0000
