data_image0
_chemical_formula_structural       CdK2N12
_chemical_formula_sum              "Cd1 K2 N12"
_cell_length_a       3.70332
_cell_length_b       7.29968
_cell_length_c       8.73402
_cell_angle_alpha    90.8329
_cell_angle_beta     90
_cell_angle_gamma    104.694

_space_group_name_H-M_alt    "P 1"
_space_group_IT_number       1

loop_
  _space_group_symop_operation_xyz
  'x, y, z'

loop_
  _atom_site_type_symbol
  _atom_site_label
  _atom_site_symmetry_multiplicity
  _atom_site_fract_x
  _atom_site_fract_y
  _atom_site_fract_z
  _atom_site_occupancy
  Cd  Cd1       1.0  0.00000  0.00000  0.50000  1.0000
  K   K1        1.0  0.65400  0.30800  0.17300  1.0000
  K   K2        1.0  0.34600  0.69200  0.82700  1.0000
  N   N1        1.0  0.86500  0.73100  0.06910  1.0000
  N   N2        1.0  0.93200  0.86400  0.15200  1.0000
  N   N3        1.0  0.00109  0.00219  0.23300  1.0000
  N   N4        1.0  0.25700  0.51500  0.34100  1.0000
  N   N5        1.0  0.32600  0.65200  0.41700  1.0000
  N   N6        1.0  0.39600  0.79200  0.49800  1.0000
  N   N7        1.0  0.60400  0.20800  0.50200  1.0000
  N   N8        1.0  0.67400  0.34800  0.58300  1.0000
  N   N9        1.0  0.74300  0.48500  0.65900  1.0000
  N   N10       1.0  0.99900  0.99800  0.76700  1.0000
  N   N11       1.0  0.06820  0.13600  0.84800  1.0000
  N   N12       1.0  0.13500  0.26900  0.93100  1.0000
