data_image0
_chemical_formula_structural       Ca2Cr2F10
_chemical_formula_sum              "Ca2 Cr2 F10"
_cell_length_a       5.46184
_cell_length_b       5.46184
_cell_length_c       7.4156
_cell_angle_alpha    110.593
_cell_angle_beta     69.4068
_cell_angle_gamma    108.821

_space_group_name_H-M_alt    "P 1"
_space_group_IT_number       1

loop_
  _space_group_symop_operation_xyz
  'x, y, z'

loop_
  _atom_site_type_symbol
  _atom_site_label
  _atom_site_symmetry_multiplicity
  _atom_site_fract_x
  _atom_site_fract_y
  _atom_site_fract_z
  _atom_site_occupancy
  Ca  Ca1       1.0  0.44400  0.46100  0.25700  1.0000
  Ca  Ca2       1.0  0.53900  0.55600  0.75700  1.0000
  Cr  Cr1       1.0  0.99200  0.00832  0.00636  1.0000
  Cr  Cr2       1.0  0.99200  0.00846  0.50600  1.0000
  F   F1        1.0  0.71100  0.69700  0.03730  1.0000
  F   F2        1.0  0.73400  0.21500  0.13000  1.0000
  F   F3        1.0  0.07360  0.08970  0.25600  1.0000
  F   F4        1.0  0.20000  0.75300  0.38300  1.0000
  F   F5        1.0  0.68000  0.72900  0.47600  1.0000
  F   F6        1.0  0.30300  0.28900  0.53700  1.0000
  F   F7        1.0  0.78500  0.26600  0.63000  1.0000
  F   F8        1.0  0.91000  0.92600  0.75600  1.0000
  F   F9        1.0  0.24700  0.80000  0.88300  1.0000
  F   F10       1.0  0.27100  0.32000  0.97600  1.0000
