data_image0
_chemical_formula_structural       C5CuFeN6O
_chemical_formula_sum              "C5 Cu1 Fe1 N6 O1"
_cell_length_a       7.04261
_cell_length_b       7.04261
_cell_length_c       7.32544
_cell_angle_alpha    118.731
_cell_angle_beta     118.731
_cell_angle_gamma    90

_space_group_name_H-M_alt    "P 1"
_space_group_IT_number       1

loop_
  _space_group_symop_operation_xyz
  'x, y, z'

loop_
  _atom_site_type_symbol
  _atom_site_label
  _atom_site_symmetry_multiplicity
  _atom_site_fract_x
  _atom_site_fract_y
  _atom_site_fract_z
  _atom_site_occupancy
  C   C1        1.0  0.19800  0.19800  0.01630  1.0000
  C   C2        1.0  0.81800  0.19800  0.01630  1.0000
  C   C3        1.0  0.19800  0.81800  0.01630  1.0000
  C   C4        1.0  0.81800  0.81800  0.01630  1.0000
  C   C5        1.0  0.17300  0.17300  0.34500  1.0000
  Cu  Cu1       1.0  0.47700  0.47700  0.95400  1.0000
  Fe  Fe1       1.0  0.99600  0.99600  0.99200  1.0000
  N   N1        1.0  0.31100  0.31100  0.00847  1.0000
  N   N2        1.0  0.69800  0.31100  0.00847  1.0000
  N   N3        1.0  0.31100  0.69800  0.00847  1.0000
  N   N4        1.0  0.69800  0.69800  0.00847  1.0000
  N   N5        1.0  0.28100  0.28100  0.56200  1.0000
  N   N6        1.0  0.84300  0.84300  0.68500  1.0000
  O   O1        1.0  0.73600  0.73600  0.47100  1.0000
