data_image0
_chemical_formula_structural       Cs3I9Sb2
_chemical_formula_sum              "Cs3 I9 Sb2"
_cell_length_a       8.65872
_cell_length_b       8.65829
_cell_length_c       10.5729
_cell_angle_alpha    90
_cell_angle_beta     90.0051
_cell_angle_gamma    119.998

_space_group_name_H-M_alt    "P 1"
_space_group_IT_number       1

loop_
  _space_group_symop_operation_xyz
  'x, y, z'

loop_
  _atom_site_type_symbol
  _atom_site_label
  _atom_site_symmetry_multiplicity
  _atom_site_fract_x
  _atom_site_fract_y
  _atom_site_fract_z
  _atom_site_occupancy
  Cs  Cs1       1.0  0.00000  0.00000  0.00000  1.0000
  Cs  Cs2       1.0  0.33300  0.66700  0.32600  1.0000
  Cs  Cs3       1.0  0.66700  0.33300  0.67400  1.0000
  I   I1        1.0  0.00000  0.50000  0.00000  1.0000
  I   I2        1.0  0.50000  1.00000  0.00000  1.0000
  I   I3        1.0  0.50000  0.50000  0.00000  1.0000
  I   I4        1.0  0.83000  0.66000  0.33600  1.0000
  I   I5        1.0  0.83000  0.17000  0.33600  1.0000
  I   I6        1.0  0.34000  0.17000  0.33600  1.0000
  I   I7        1.0  0.66000  0.83000  0.66400  1.0000
  I   I8        1.0  0.17000  0.34000  0.66400  1.0000
  I   I9        1.0  0.17000  0.83000  0.66400  1.0000
  Sb  Sb1       1.0  0.66700  0.33300  0.18600  1.0000
  Sb  Sb2       1.0  0.33300  0.66700  0.81400  1.0000
