data_image0
_chemical_formula_structural       Cl2Eu2H4O4
_chemical_formula_sum              "Cl2 Eu2 H4 O4"
_cell_length_a       6.01997
_cell_length_b       4.2475
_cell_length_c       6.8204
_cell_angle_alpha    90
_cell_angle_beta     101.82
_cell_angle_gamma    90

_space_group_name_H-M_alt    "P 1"
_space_group_IT_number       1

loop_
  _space_group_symop_operation_xyz
  'x, y, z'

loop_
  _atom_site_type_symbol
  _atom_site_label
  _atom_site_symmetry_multiplicity
  _atom_site_fract_x
  _atom_site_fract_y
  _atom_site_fract_z
  _atom_site_occupancy
  Cl  Cl1       1.0  0.75800  0.25000  0.46200  1.0000
  Cl  Cl2       1.0  0.24200  0.75000  0.53800  1.0000
  Eu  Eu1       1.0  0.11100  0.25000  0.22600  1.0000
  Eu  Eu2       1.0  0.88900  0.75000  0.77400  1.0000
  H   H1        1.0  0.60500  0.25000  0.08670  1.0000
  H   H2        1.0  0.32000  0.75000  0.14700  1.0000
  H   H3        1.0  0.68000  0.25000  0.85300  1.0000
  H   H4        1.0  0.39500  0.75000  0.91300  1.0000
  O   O1        1.0  0.16300  0.75000  0.07120  1.0000
  O   O2        1.0  0.48200  0.25000  0.16300  1.0000
  O   O3        1.0  0.51800  0.75000  0.83700  1.0000
  O   O4        1.0  0.83700  0.25000  0.92900  1.0000
