data_image0
_chemical_formula_structural       Cs2Hg3S8Sn2
_chemical_formula_sum              "Cs2 Hg3 S8 Sn2"
_cell_length_a       8.08148
_cell_length_b       9.48057
_cell_length_c       6.92312
_cell_angle_alpha    92.7031
_cell_angle_beta     108.728
_cell_angle_gamma    108.256

_space_group_name_H-M_alt    "P 1"
_space_group_IT_number       1

loop_
  _space_group_symop_operation_xyz
  'x, y, z'

loop_
  _atom_site_type_symbol
  _atom_site_label
  _atom_site_symmetry_multiplicity
  _atom_site_fract_x
  _atom_site_fract_y
  _atom_site_fract_z
  _atom_site_occupancy
  Cs  Cs1       1.0  0.45800  0.74600  0.11100  1.0000
  Cs  Cs2       1.0  0.54200  0.25400  0.88900  1.0000
  Hg  Hg1       1.0  0.08180  0.88300  0.33100  1.0000
  Hg  Hg2       1.0  0.00000  0.50000  0.50000  1.0000
  Hg  Hg3       1.0  0.91800  0.11700  0.66900  1.0000
  S   S1        1.0  0.86000  0.65900  0.07490  1.0000
  S   S2        1.0  0.86100  0.11800  0.27600  1.0000
  S   S3        1.0  0.35600  0.10600  0.33800  1.0000
  S   S4        1.0  0.29400  0.49700  0.49900  1.0000
  S   S5        1.0  0.70600  0.50300  0.50100  1.0000
  S   S6        1.0  0.64400  0.89400  0.66200  1.0000
  S   S7        1.0  0.13900  0.88200  0.72400  1.0000
  S   S8        1.0  0.14000  0.34100  0.92500  1.0000
  Sn  Sn1       1.0  0.16000  0.25800  0.25600  1.0000
  Sn  Sn2       1.0  0.84000  0.74200  0.74400  1.0000
