data_image0
_chemical_formula_structural       Ba6Cr2N6
_chemical_formula_sum              "Ba6 Cr2 N6"
_cell_length_a       8.22936
_cell_length_b       8.22911
_cell_length_c       5.5229
_cell_angle_alpha    90
_cell_angle_beta     90
_cell_angle_gamma    120.002

_space_group_name_H-M_alt    "P 1"
_space_group_IT_number       1

loop_
  _space_group_symop_operation_xyz
  'x, y, z'

loop_
  _atom_site_type_symbol
  _atom_site_label
  _atom_site_symmetry_multiplicity
  _atom_site_fract_x
  _atom_site_fract_y
  _atom_site_fract_z
  _atom_site_occupancy
  Ba  Ba1       1.0  0.72500  0.08620  0.25000  1.0000
  Ba  Ba2       1.0  0.36200  0.27500  0.25000  1.0000
  Ba  Ba3       1.0  0.91400  0.63800  0.25000  1.0000
  Ba  Ba4       1.0  0.08620  0.36200  0.75000  1.0000
  Ba  Ba5       1.0  0.63800  0.72500  0.75000  1.0000
  Ba  Ba6       1.0  0.27500  0.91400  0.75000  1.0000
  Cr  Cr1       1.0  0.33300  0.66700  0.25000  1.0000
  Cr  Cr2       1.0  0.66700  0.33300  0.75000  1.0000
  N   N1        1.0  0.13100  0.44900  0.25000  1.0000
  N   N2        1.0  0.55100  0.68200  0.25000  1.0000
  N   N3        1.0  0.31800  0.86900  0.25000  1.0000
  N   N4        1.0  0.68200  0.13100  0.75000  1.0000
  N   N5        1.0  0.44900  0.31800  0.75000  1.0000
  N   N6        1.0  0.86900  0.55100  0.75000  1.0000
