data_image0
_chemical_formula_structural       K2O8PbS2
_chemical_formula_sum              "K2 O8 Pb1 S2"
_cell_length_a       7.55525
_cell_length_b       7.55525
_cell_length_c       7.55525
_cell_angle_alpha    42.3007
_cell_angle_beta     42.3007
_cell_angle_gamma    42.3007

_space_group_name_H-M_alt    "P 1"
_space_group_IT_number       1

loop_
  _space_group_symop_operation_xyz
  'x, y, z'

loop_
  _atom_site_type_symbol
  _atom_site_label
  _atom_site_symmetry_multiplicity
  _atom_site_fract_x
  _atom_site_fract_y
  _atom_site_fract_z
  _atom_site_occupancy
  K   K1        1.0  0.20200  0.20200  0.20200  1.0000
  K   K2        1.0  0.79800  0.79800  0.79800  1.0000
  O   O1        1.0  0.72100  0.72100  0.27400  1.0000
  O   O2        1.0  0.27900  0.72600  0.27900  1.0000
  O   O3        1.0  0.72600  0.27900  0.27900  1.0000
  O   O4        1.0  0.33100  0.33100  0.33100  1.0000
  O   O5        1.0  0.66900  0.66900  0.66900  1.0000
  O   O6        1.0  0.27400  0.72100  0.72100  1.0000
  O   O7        1.0  0.72100  0.27400  0.72100  1.0000
  O   O8        1.0  0.27900  0.27900  0.72600  1.0000
  Pb  Pb1       1.0  0.00000  0.00000  0.00000  1.0000
  S   S1        1.0  0.40300  0.40300  0.40300  1.0000
  S   S2        1.0  0.59700  0.59700  0.59700  1.0000
