data_image0
_chemical_formula_structural       Mg2Mo2N4
_chemical_formula_sum              "Mg2 Mo2 N4"
_cell_length_a       2.9168
_cell_length_b       2.9168
_cell_length_c       10.5304
_cell_angle_alpha    90
_cell_angle_beta     90
_cell_angle_gamma    120

_space_group_name_H-M_alt    "P 1"
_space_group_IT_number       1

loop_
  _space_group_symop_operation_xyz
  'x, y, z'

loop_
  _atom_site_type_symbol
  _atom_site_label
  _atom_site_symmetry_multiplicity
  _atom_site_fract_x
  _atom_site_fract_y
  _atom_site_fract_z
  _atom_site_occupancy
  Mg  Mg1       1.0  0.00000  0.00000  0.00000  1.0000
  Mg  Mg2       1.0  0.00000  0.00000  0.50000  1.0000
  Mo  Mo1       1.0  0.66700  0.33300  0.25000  1.0000
  Mo  Mo2       1.0  0.33300  0.66700  0.75000  1.0000
  N   N1        1.0  0.33300  0.66700  0.12700  1.0000
  N   N2        1.0  0.33300  0.66700  0.37300  1.0000
  N   N3        1.0  0.66700  0.33300  0.62700  1.0000
  N   N4        1.0  0.66700  0.33300  0.87300  1.0000
