data_image0
_chemical_formula_structural       Ca2F10Ti2
_chemical_formula_sum              "Ca2 F10 Ti2"
_cell_length_a       5.53103
_cell_length_b       5.53103
_cell_length_c       7.57863
_cell_angle_alpha    70.0665
_cell_angle_beta     109.933
_cell_angle_gamma    108.084

_space_group_name_H-M_alt    "P 1"
_space_group_IT_number       1

loop_
  _space_group_symop_operation_xyz
  'x, y, z'

loop_
  _atom_site_type_symbol
  _atom_site_label
  _atom_site_symmetry_multiplicity
  _atom_site_fract_x
  _atom_site_fract_y
  _atom_site_fract_z
  _atom_site_occupancy
  Ca  Ca1       1.0  0.45500  0.45500  0.25000  1.0000
  Ca  Ca2       1.0  0.54500  0.54500  0.75000  1.0000
  F   F1        1.0  0.68300  0.71100  0.03220  1.0000
  F   F2        1.0  0.21000  0.74500  0.12200  1.0000
  F   F3        1.0  0.09490  0.09490  0.25000  1.0000
  F   F4        1.0  0.74500  0.21000  0.37800  1.0000
  F   F5        1.0  0.71100  0.68300  0.46800  1.0000
  F   F6        1.0  0.28900  0.31700  0.53200  1.0000
  F   F7        1.0  0.25500  0.79000  0.62200  1.0000
  F   F8        1.0  0.90500  0.90500  0.75000  1.0000
  F   F9        1.0  0.79000  0.25500  0.87800  1.0000
  F   F10       1.0  0.31700  0.28900  0.96800  1.0000
  Ti  Ti1       1.0  0.00000  0.00000  0.00000  1.0000
  Ti  Ti2       1.0  0.00000  1.00000  0.50000  1.0000
