data_image0
_chemical_formula_structural       Cl2Eu2Mo2O8
_chemical_formula_sum              "Cl2 Eu2 Mo2 O8"
_cell_length_a       6.40157
_cell_length_b       6.40157
_cell_length_c       6.73516
_cell_angle_alpha    102.759
_cell_angle_beta     102.759
_cell_angle_gamma    69.8322

_space_group_name_H-M_alt    "P 1"
_space_group_IT_number       1

loop_
  _space_group_symop_operation_xyz
  'x, y, z'

loop_
  _atom_site_type_symbol
  _atom_site_label
  _atom_site_symmetry_multiplicity
  _atom_site_fract_x
  _atom_site_fract_y
  _atom_site_fract_z
  _atom_site_occupancy
  Cl  Cl1       1.0  0.99800  0.99800  0.31100  1.0000
  Cl  Cl2       1.0  0.00200  0.00200  0.68900  1.0000
  Eu  Eu1       1.0  0.22100  0.22100  0.08910  1.0000
  Eu  Eu2       1.0  0.77900  0.77900  0.91100  1.0000
  Mo  Mo1       1.0  0.62900  0.62900  0.27700  1.0000
  Mo  Mo2       1.0  0.37100  0.37100  0.72300  1.0000
  O   O1        1.0  0.87500  0.49900  0.15600  1.0000
  O   O2        1.0  0.49900  0.87500  0.15600  1.0000
  O   O3        1.0  0.45400  0.45400  0.22200  1.0000
  O   O4        1.0  0.30200  0.30200  0.45100  1.0000
  O   O5        1.0  0.69800  0.69800  0.54900  1.0000
  O   O6        1.0  0.54600  0.54600  0.77800  1.0000
  O   O7        1.0  0.50100  0.12500  0.84400  1.0000
  O   O8        1.0  0.12500  0.50100  0.84400  1.0000
