data_image0
_chemical_formula_structural       Mo6Na2Te6
_chemical_formula_sum              "Mo6 Na2 Te6"
_cell_length_a       9.32946
_cell_length_b       9.3258
_cell_length_c       4.61695
_cell_angle_alpha    90
_cell_angle_beta     90
_cell_angle_gamma    120.004

_space_group_name_H-M_alt    "P 1"
_space_group_IT_number       1

loop_
  _space_group_symop_operation_xyz
  'x, y, z'

loop_
  _atom_site_type_symbol
  _atom_site_label
  _atom_site_symmetry_multiplicity
  _atom_site_fract_x
  _atom_site_fract_y
  _atom_site_fract_z
  _atom_site_occupancy
  Mo  Mo1       1.0  0.14000  0.18200  0.25000  1.0000
  Mo  Mo2       1.0  0.04160  0.86000  0.25000  1.0000
  Mo  Mo3       1.0  0.81800  0.95800  0.25000  1.0000
  Mo  Mo4       1.0  0.18200  0.04170  0.75000  1.0000
  Mo  Mo5       1.0  0.95800  0.14000  0.75000  1.0000
  Mo  Mo6       1.0  0.86000  0.81800  0.75000  1.0000
  Na  Na1       1.0  0.33300  0.66700  0.25000  1.0000
  Na  Na2       1.0  0.66700  0.33300  0.75000  1.0000
  Te  Te1       1.0  0.38500  0.08430  0.25000  1.0000
  Te  Te2       1.0  0.91600  0.30100  0.25000  1.0000
  Te  Te3       1.0  0.69900  0.61500  0.25000  1.0000
  Te  Te4       1.0  0.30100  0.38500  0.75000  1.0000
  Te  Te5       1.0  0.08430  0.69900  0.75000  1.0000
  Te  Te6       1.0  0.61500  0.91600  0.75000  1.0000
