data_image0
_chemical_formula_structural       O4Rb6
_chemical_formula_sum              "O4 Rb6"
_cell_length_a       7.03536
_cell_length_b       7.03535
_cell_length_c       7.405
_cell_angle_alpha    118.362
_cell_angle_beta     61.638
_cell_angle_gamma    120

_space_group_name_H-M_alt    "P 1"
_space_group_IT_number       1

loop_
  _space_group_symop_operation_xyz
  'x, y, z'

loop_
  _atom_site_type_symbol
  _atom_site_label
  _atom_site_symmetry_multiplicity
  _atom_site_fract_x
  _atom_site_fract_y
  _atom_site_fract_z
  _atom_site_occupancy
  O   O1        1.0  0.64600  0.35400  0.06150  1.0000
  O   O2        1.0  0.85400  0.14600  0.43800  1.0000
  O   O3        1.0  0.14600  0.85400  0.56100  1.0000
  O   O4        1.0  0.35400  0.64600  0.93800  1.0000
  Rb  Rb1       1.0  0.54900  0.75000  0.25000  1.0000
  Rb  Rb2       1.0  0.95100  0.45100  0.25000  1.0000
  Rb  Rb3       1.0  0.25000  0.04870  0.25000  1.0000
  Rb  Rb4       1.0  0.75000  0.95100  0.75000  1.0000
  Rb  Rb5       1.0  0.04870  0.54900  0.75000  1.0000
  Rb  Rb6       1.0  0.45100  0.25000  0.75000  1.0000
