data_image0
_chemical_formula_structural       In2Mo6Se6
_chemical_formula_sum              "In2 Mo6 Se6"
_cell_length_a       8.97612
_cell_length_b       8.97638
_cell_length_c       4.52715
_cell_angle_alpha    90
_cell_angle_beta     90
_cell_angle_gamma    119.998

_space_group_name_H-M_alt    "P 1"
_space_group_IT_number       1

loop_
  _space_group_symop_operation_xyz
  'x, y, z'

loop_
  _atom_site_type_symbol
  _atom_site_label
  _atom_site_symmetry_multiplicity
  _atom_site_fract_x
  _atom_site_fract_y
  _atom_site_fract_z
  _atom_site_occupancy
  In  In1       1.0  0.66700  0.33300  0.25000  1.0000
  In  In2       1.0  0.33300  0.66700  0.75000  1.0000
  Mo  Mo1       1.0  0.84800  0.03400  0.25000  1.0000
  Mo  Mo2       1.0  0.18600  0.15200  0.25000  1.0000
  Mo  Mo3       1.0  0.96600  0.81400  0.25000  1.0000
  Mo  Mo4       1.0  0.03400  0.18600  0.75000  1.0000
  Mo  Mo5       1.0  0.81400  0.84800  0.75000  1.0000
  Mo  Mo6       1.0  0.15200  0.96600  0.75000  1.0000
  Se  Se1       1.0  0.06950  0.36800  0.25000  1.0000
  Se  Se2       1.0  0.63200  0.70100  0.25000  1.0000
  Se  Se3       1.0  0.29900  0.93000  0.25000  1.0000
  Se  Se4       1.0  0.70100  0.06960  0.75000  1.0000
  Se  Se5       1.0  0.36800  0.29900  0.75000  1.0000
  Se  Se6       1.0  0.93000  0.63200  0.75000  1.0000
