data_image0
_chemical_formula_structural       Al2Cu6U4
_chemical_formula_sum              "Al2 Cu6 U4"
_cell_length_a       5.37897
_cell_length_b       5.37521
_cell_length_c       7.86217
_cell_angle_alpha    90
_cell_angle_beta     90
_cell_angle_gamma    120.023

_space_group_name_H-M_alt    "P 1"
_space_group_IT_number       1

loop_
  _space_group_symop_operation_xyz
  'x, y, z'

loop_
  _atom_site_type_symbol
  _atom_site_label
  _atom_site_symmetry_multiplicity
  _atom_site_fract_x
  _atom_site_fract_y
  _atom_site_fract_z
  _atom_site_occupancy
  Al  Al1       1.0  0.00000  0.00000  0.00000  1.0000
  Al  Al2       1.0  0.00000  0.00000  0.50000  1.0000
  Cu  Cu1       1.0  0.34200  0.17100  0.25000  1.0000
  Cu  Cu2       1.0  0.82900  0.17100  0.25000  1.0000
  Cu  Cu3       1.0  0.82900  0.65800  0.25000  1.0000
  Cu  Cu4       1.0  0.17100  0.34200  0.75000  1.0000
  Cu  Cu5       1.0  0.17100  0.82900  0.75000  1.0000
  Cu  Cu6       1.0  0.65800  0.82900  0.75000  1.0000
  U   U1        1.0  0.33400  0.66700  0.07720  1.0000
  U   U2        1.0  0.33400  0.66700  0.42300  1.0000
  U   U3        1.0  0.66600  0.33300  0.57700  1.0000
  U   U4        1.0  0.66600  0.33300  0.92300  1.0000
