data_image0
_chemical_formula_structural       Ag2F8K4
_chemical_formula_sum              "Ag2 F8 K4"
_cell_length_a       3.63619
_cell_length_b       9.91455
_cell_length_c       6.2791
_cell_angle_alpha    90
_cell_angle_beta     90.6707
_cell_angle_gamma    90

_space_group_name_H-M_alt    "P 1"
_space_group_IT_number       1

loop_
  _space_group_symop_operation_xyz
  'x, y, z'

loop_
  _atom_site_type_symbol
  _atom_site_label
  _atom_site_symmetry_multiplicity
  _atom_site_fract_x
  _atom_site_fract_y
  _atom_site_fract_z
  _atom_site_occupancy
  Ag  Ag1       1.0  0.00000  0.00000  0.00000  1.0000
  Ag  Ag2       1.0  0.00000  0.50000  0.50000  1.0000
  F   F1        1.0  0.01840  0.19600  0.12800  1.0000
  F   F2        1.0  0.41700  0.94500  0.22700  1.0000
  F   F3        1.0  0.58300  0.44500  0.27300  1.0000
  F   F4        1.0  0.98200  0.69600  0.37200  1.0000
  F   F5        1.0  0.01840  0.30400  0.62800  1.0000
  F   F6        1.0  0.41700  0.55500  0.72700  1.0000
  F   F7        1.0  0.58300  0.05490  0.77300  1.0000
  F   F8        1.0  0.98200  0.80400  0.87200  1.0000
  K   K1        1.0  0.48100  0.67900  0.08320  1.0000
  K   K2        1.0  0.51900  0.17900  0.41700  1.0000
  K   K3        1.0  0.48100  0.82100  0.58300  1.0000
  K   K4        1.0  0.51900  0.32100  0.91700  1.0000
