data_image0
_chemical_formula_structural       Bi4Ni6Se4
_chemical_formula_sum              "Bi4 Ni6 Se4"
_cell_length_a       6.97978
_cell_length_b       6.97978
_cell_length_c       7.2241
_cell_angle_alpha    109.118
_cell_angle_beta     110.072
_cell_angle_gamma    107.807

_space_group_name_H-M_alt    "P 1"
_space_group_IT_number       1

loop_
  _space_group_symop_operation_xyz
  'x, y, z'

loop_
  _atom_site_type_symbol
  _atom_site_label
  _atom_site_symmetry_multiplicity
  _atom_site_fract_x
  _atom_site_fract_y
  _atom_site_fract_z
  _atom_site_occupancy
  Bi  Bi1       1.0  0.00669  0.25100  0.25700  1.0000
  Bi  Bi2       1.0  0.51700  0.78300  0.30000  1.0000
  Bi  Bi3       1.0  0.48300  0.21700  0.70000  1.0000
  Bi  Bi4       1.0  0.99300  0.74900  0.74300  1.0000
  Ni  Ni1       1.0  0.22900  0.98300  0.21100  1.0000
  Ni  Ni2       1.0  0.77300  0.27300  0.50000  1.0000
  Ni  Ni3       1.0  0.22700  0.72700  0.50000  1.0000
  Ni  Ni4       1.0  0.00000  0.00000  0.50000  1.0000
  Ni  Ni5       1.0  0.50000  0.50000  0.50000  1.0000
  Ni  Ni6       1.0  0.77100  0.01710  0.78900  1.0000
  Se  Se1       1.0  0.50000  0.25500  0.19200  1.0000
  Se  Se2       1.0  0.93600  0.69200  0.19200  1.0000
  Se  Se3       1.0  0.06380  0.30800  0.80800  1.0000
  Se  Se4       1.0  0.50000  0.74500  0.80800  1.0000
