data_image0
_chemical_formula_structural       Mo6Te6Tl2
_chemical_formula_sum              "Mo6 Te6 Tl2"
_cell_length_a       9.59741
_cell_length_b       9.59662
_cell_length_c       4.61999
_cell_angle_alpha    90
_cell_angle_beta     90
_cell_angle_gamma    119.997

_space_group_name_H-M_alt    "P 1"
_space_group_IT_number       1

loop_
  _space_group_symop_operation_xyz
  'x, y, z'

loop_
  _atom_site_type_symbol
  _atom_site_label
  _atom_site_symmetry_multiplicity
  _atom_site_fract_x
  _atom_site_fract_y
  _atom_site_fract_z
  _atom_site_occupancy
  Mo  Mo1       1.0  0.85800  0.03160  0.25000  1.0000
  Mo  Mo2       1.0  0.17400  0.14200  0.25000  1.0000
  Mo  Mo3       1.0  0.96800  0.82600  0.25000  1.0000
  Mo  Mo4       1.0  0.03150  0.17400  0.75000  1.0000
  Mo  Mo5       1.0  0.82600  0.85800  0.75000  1.0000
  Mo  Mo6       1.0  0.14200  0.96800  0.75000  1.0000
  Te  Te1       1.0  0.06720  0.36900  0.25000  1.0000
  Te  Te2       1.0  0.63100  0.69800  0.25000  1.0000
  Te  Te3       1.0  0.30200  0.93300  0.25000  1.0000
  Te  Te4       1.0  0.69800  0.06720  0.75000  1.0000
  Te  Te5       1.0  0.36900  0.30200  0.75000  1.0000
  Te  Te6       1.0  0.93300  0.63100  0.75000  1.0000
  Tl  Tl1       1.0  0.66700  0.33300  0.25000  1.0000
  Tl  Tl2       1.0  0.33300  0.66700  0.75000  1.0000
