data_image0
_chemical_formula_structural       Fe12Li12O48Se8
_chemical_formula_sum              "Fe12 Li12 O48 Se8"
_cell_length_a       9.90602
_cell_length_b       9.90602
_cell_length_c       9.90602
_cell_angle_alpha    109.471
_cell_angle_beta     109.471
_cell_angle_gamma    109.471

_space_group_name_H-M_alt    "P 1"
_space_group_IT_number       1

loop_
  _space_group_symop_operation_xyz
  'x, y, z'

loop_
  _atom_site_type_symbol
  _atom_site_label
  _atom_site_symmetry_multiplicity
  _atom_site_fract_x
  _atom_site_fract_y
  _atom_site_fract_z
  _atom_site_occupancy
  Fe  Fe1       1.0  0.37500  0.25000  0.12500  1.0000
  Fe  Fe2       1.0  0.25000  0.87500  0.12500  1.0000
  Fe  Fe3       1.0  0.37500  0.62500  0.25000  1.0000
  Fe  Fe4       1.0  0.87500  0.12500  0.25000  1.0000
  Fe  Fe5       1.0  0.12500  0.75000  0.37500  1.0000
  Fe  Fe6       1.0  0.75000  0.62500  0.37500  1.0000
  Fe  Fe7       1.0  0.87500  0.25000  0.62500  1.0000
  Fe  Fe8       1.0  0.25000  0.37500  0.62500  1.0000
  Fe  Fe9       1.0  0.62500  0.37500  0.75000  1.0000
  Fe  Fe10      1.0  0.12500  0.87500  0.75000  1.0000
  Fe  Fe11      1.0  0.62500  0.75000  0.87500  1.0000
  Fe  Fe12      1.0  0.75000  0.12500  0.87500  1.0000
  Li  Li1       1.0  0.75000  0.37500  0.12500  1.0000
  Li  Li2       1.0  0.87500  0.75000  0.12500  1.0000
  Li  Li3       1.0  0.12500  0.37500  0.25000  1.0000
  Li  Li4       1.0  0.62500  0.87500  0.25000  1.0000
  Li  Li5       1.0  0.25000  0.12500  0.37500  1.0000
  Li  Li6       1.0  0.62500  0.25000  0.37500  1.0000
  Li  Li7       1.0  0.37500  0.75000  0.62500  1.0000
  Li  Li8       1.0  0.75000  0.87500  0.62500  1.0000
  Li  Li9       1.0  0.37500  0.12500  0.75000  1.0000
  Li  Li10      1.0  0.87500  0.62500  0.75000  1.0000
  Li  Li11      1.0  0.12500  0.25000  0.87500  1.0000
  Li  Li12      1.0  0.25000  0.62500  0.87500  1.0000
  O   O1        1.0  0.20300  0.62100  0.03090  1.0000
  O   O2        1.0  0.32800  0.41000  0.03090  1.0000
  O   O3        1.0  0.87900  0.91000  0.08190  1.0000
  O   O4        1.0  0.70300  0.17200  0.08190  1.0000
  O   O5        1.0  0.62100  0.91800  0.08990  1.0000
  O   O6        1.0  0.96900  0.17200  0.08990  1.0000
  O   O7        1.0  0.03090  0.70300  0.12100  1.0000
  O   O8        1.0  0.59000  0.41800  0.12100  1.0000
  O   O9        1.0  0.20300  0.08190  0.17200  1.0000
  O   O10       1.0  0.46900  0.08990  0.17200  1.0000
  O   O11       1.0  0.58200  0.67200  0.20300  1.0000
  O   O12       1.0  0.12100  0.53100  0.20300  1.0000
  O   O13       1.0  0.32800  0.41800  0.29700  1.0000
  O   O14       1.0  0.46900  0.87900  0.29700  1.0000
  O   O15       1.0  0.91800  0.79700  0.32800  1.0000
  O   O16       1.0  0.91000  0.53100  0.32800  1.0000
  O   O17       1.0  0.29700  0.96900  0.37900  1.0000
  O   O18       1.0  0.58200  0.41000  0.37900  1.0000
  O   O19       1.0  0.08190  0.37900  0.41000  1.0000
  O   O20       1.0  0.82800  0.03090  0.41000  1.0000
  O   O21       1.0  0.08990  0.12100  0.41800  1.0000
  O   O22       1.0  0.82800  0.29700  0.41800  1.0000
  O   O23       1.0  0.37900  0.79700  0.46900  1.0000
  O   O24       1.0  0.59000  0.67200  0.46900  1.0000
  O   O25       1.0  0.62100  0.20300  0.53100  1.0000
  O   O26       1.0  0.41000  0.32800  0.53100  1.0000
  O   O27       1.0  0.17200  0.70300  0.58200  1.0000
  O   O28       1.0  0.91000  0.87900  0.58200  1.0000
  O   O29       1.0  0.17200  0.96900  0.59000  1.0000
  O   O30       1.0  0.91800  0.62100  0.59000  1.0000
  O   O31       1.0  0.70300  0.03090  0.62100  1.0000
  O   O32       1.0  0.41800  0.59000  0.62100  1.0000
  O   O33       1.0  0.08190  0.20300  0.67200  1.0000
  O   O34       1.0  0.08990  0.46900  0.67200  1.0000
  O   O35       1.0  0.53100  0.12100  0.70300  1.0000
  O   O36       1.0  0.67200  0.58200  0.70300  1.0000
  O   O37       1.0  0.41800  0.32800  0.79700  1.0000
  O   O38       1.0  0.87900  0.46900  0.79700  1.0000
  O   O39       1.0  0.79700  0.91800  0.82800  1.0000
  O   O40       1.0  0.53100  0.91000  0.82800  1.0000
  O   O41       1.0  0.96900  0.29700  0.87900  1.0000
  O   O42       1.0  0.41000  0.58200  0.87900  1.0000
  O   O43       1.0  0.03090  0.82800  0.91000  1.0000
  O   O44       1.0  0.37900  0.08190  0.91000  1.0000
  O   O45       1.0  0.12100  0.08990  0.91800  1.0000
  O   O46       1.0  0.29700  0.82800  0.91800  1.0000
  O   O47       1.0  0.67200  0.59000  0.96900  1.0000
  O   O48       1.0  0.79700  0.37900  0.96900  1.0000
  Se  Se1       1.0  0.00000  0.00000  0.00000  1.0000
  Se  Se2       1.0  0.00000  0.50000  0.00000  1.0000
  Se  Se3       1.0  0.50000  0.50000  0.00000  1.0000
  Se  Se4       1.0  0.50000  0.00000  0.00000  1.0000
  Se  Se5       1.0  0.00000  0.00000  0.50000  1.0000
  Se  Se6       1.0  0.00000  0.50000  0.50000  1.0000
  Se  Se7       1.0  0.50000  0.00000  0.50000  1.0000
  Se  Se8       1.0  0.50000  0.50000  0.50000  1.0000
