data_image0
_chemical_formula_structural       Hf8Li12O48V12
_chemical_formula_sum              "Hf8 Li12 O48 V12"
_cell_length_a       10.0205
_cell_length_b       10.0205
_cell_length_c       10.0205
_cell_angle_alpha    109.471
_cell_angle_beta     109.471
_cell_angle_gamma    109.471

_space_group_name_H-M_alt    "P 1"
_space_group_IT_number       1

loop_
  _space_group_symop_operation_xyz
  'x, y, z'

loop_
  _atom_site_type_symbol
  _atom_site_label
  _atom_site_symmetry_multiplicity
  _atom_site_fract_x
  _atom_site_fract_y
  _atom_site_fract_z
  _atom_site_occupancy
  Hf  Hf1       1.0  0.00000  0.00000  0.00000  1.0000
  Hf  Hf2       1.0  0.50000  0.00000  0.00000  1.0000
  Hf  Hf3       1.0  0.00000  0.50000  0.00000  1.0000
  Hf  Hf4       1.0  0.50000  0.50000  0.00000  1.0000
  Hf  Hf5       1.0  0.00000  0.00000  0.50000  1.0000
  Hf  Hf6       1.0  0.50000  0.00000  0.50000  1.0000
  Hf  Hf7       1.0  1.00000  0.50000  0.50000  1.0000
  Hf  Hf8       1.0  0.50000  0.50000  0.50000  1.0000
  Li  Li1       1.0  0.75000  0.37500  0.12500  1.0000
  Li  Li2       1.0  0.87500  0.75000  0.12500  1.0000
  Li  Li3       1.0  0.12500  0.37500  0.25000  1.0000
  Li  Li4       1.0  0.62500  0.87500  0.25000  1.0000
  Li  Li5       1.0  0.25000  0.12500  0.37500  1.0000
  Li  Li6       1.0  0.62500  0.25000  0.37500  1.0000
  Li  Li7       1.0  0.37500  0.75000  0.62500  1.0000
  Li  Li8       1.0  0.75000  0.87500  0.62500  1.0000
  Li  Li9       1.0  0.37500  0.12500  0.75000  1.0000
  Li  Li10      1.0  0.87500  0.62500  0.75000  1.0000
  Li  Li11      1.0  0.12500  0.25000  0.87500  1.0000
  Li  Li12      1.0  0.25000  0.62500  0.87500  1.0000
  O   O1        1.0  0.31600  0.41900  0.04920  1.0000
  O   O2        1.0  0.23400  0.63000  0.04920  1.0000
  O   O3        1.0  0.95100  0.18400  0.08090  1.0000
  O   O4        1.0  0.63000  0.89600  0.08090  1.0000
  O   O5        1.0  0.73400  0.18400  0.10400  1.0000
  O   O6        1.0  0.87000  0.91900  0.10400  1.0000
  O   O7        1.0  0.58100  0.39600  0.13000  1.0000
  O   O8        1.0  0.04920  0.73400  0.13000  1.0000
  O   O9        1.0  0.23400  0.10400  0.18400  1.0000
  O   O10       1.0  0.45100  0.08090  0.18400  1.0000
  O   O11       1.0  0.60400  0.68400  0.23400  1.0000
  O   O12       1.0  0.13000  0.54900  0.23400  1.0000
  O   O13       1.0  0.31600  0.39600  0.26600  1.0000
  O   O14       1.0  0.45100  0.87000  0.26600  1.0000
  O   O15       1.0  0.91900  0.54900  0.31600  1.0000
  O   O16       1.0  0.89600  0.76600  0.31600  1.0000
  O   O17       1.0  0.60400  0.41900  0.37000  1.0000
  O   O18       1.0  0.26600  0.95100  0.37000  1.0000
  O   O19       1.0  0.08090  0.13000  0.39600  1.0000
  O   O20       1.0  0.81600  0.26600  0.39600  1.0000
  O   O21       1.0  0.81600  0.04920  0.41900  1.0000
  O   O22       1.0  0.10400  0.37000  0.41900  1.0000
  O   O23       1.0  0.58100  0.68400  0.45100  1.0000
  O   O24       1.0  0.37000  0.76600  0.45100  1.0000
  O   O25       1.0  0.63000  0.23400  0.54900  1.0000
  O   O26       1.0  0.41900  0.31600  0.54900  1.0000
  O   O27       1.0  0.89600  0.63000  0.58100  1.0000
  O   O28       1.0  0.18400  0.95100  0.58100  1.0000
  O   O29       1.0  0.18400  0.73400  0.60400  1.0000
  O   O30       1.0  0.91900  0.87000  0.60400  1.0000
  O   O31       1.0  0.73400  0.04920  0.63000  1.0000
  O   O32       1.0  0.39600  0.58100  0.63000  1.0000
  O   O33       1.0  0.10400  0.23400  0.68400  1.0000
  O   O34       1.0  0.08090  0.45100  0.68400  1.0000
  O   O35       1.0  0.54900  0.13000  0.73400  1.0000
  O   O36       1.0  0.68400  0.60400  0.73400  1.0000
  O   O37       1.0  0.39600  0.31600  0.76600  1.0000
  O   O38       1.0  0.87000  0.45100  0.76600  1.0000
  O   O39       1.0  0.76600  0.89600  0.81600  1.0000
  O   O40       1.0  0.54900  0.91900  0.81600  1.0000
  O   O41       1.0  0.95100  0.26600  0.87000  1.0000
  O   O42       1.0  0.41900  0.60400  0.87000  1.0000
  O   O43       1.0  0.13000  0.08090  0.89600  1.0000
  O   O44       1.0  0.26600  0.81600  0.89600  1.0000
  O   O45       1.0  0.37000  0.10400  0.91900  1.0000
  O   O46       1.0  0.04920  0.81600  0.91900  1.0000
  O   O47       1.0  0.76600  0.37000  0.95100  1.0000
  O   O48       1.0  0.68400  0.58100  0.95100  1.0000
  V   V1        1.0  0.37500  0.25000  0.12500  1.0000
  V   V2        1.0  0.25000  0.87500  0.12500  1.0000
  V   V3        1.0  0.87500  0.12500  0.25000  1.0000
  V   V4        1.0  0.37500  0.62500  0.25000  1.0000
  V   V5        1.0  0.75000  0.62500  0.37500  1.0000
  V   V6        1.0  0.12500  0.75000  0.37500  1.0000
  V   V7        1.0  0.87500  0.25000  0.62500  1.0000
  V   V8        1.0  0.25000  0.37500  0.62500  1.0000
  V   V9        1.0  0.62500  0.37500  0.75000  1.0000
  V   V10       1.0  0.12500  0.87500  0.75000  1.0000
  V   V11       1.0  0.75000  0.12500  0.87500  1.0000
  V   V12       1.0  0.62500  0.75000  0.87500  1.0000
