data_image0
_chemical_formula_structural       Cr20Li12O48
_chemical_formula_sum              "Cr20 Li12 O48"
_cell_length_a       9.7586
_cell_length_b       9.7586
_cell_length_c       9.7586
_cell_angle_alpha    109.471
_cell_angle_beta     109.471
_cell_angle_gamma    109.471

_space_group_name_H-M_alt    "P 1"
_space_group_IT_number       1

loop_
  _space_group_symop_operation_xyz
  'x, y, z'

loop_
  _atom_site_type_symbol
  _atom_site_label
  _atom_site_symmetry_multiplicity
  _atom_site_fract_x
  _atom_site_fract_y
  _atom_site_fract_z
  _atom_site_occupancy
  Cr  Cr1       1.0  0.00000  0.00000  0.00000  1.0000
  Cr  Cr2       1.0  0.50000  0.00000  0.00000  1.0000
  Cr  Cr3       1.0  0.00000  0.50000  0.00000  1.0000
  Cr  Cr4       1.0  0.50000  0.50000  0.00000  1.0000
  Cr  Cr5       1.0  0.25000  0.87500  0.12500  1.0000
  Cr  Cr6       1.0  0.37500  0.25000  0.12500  1.0000
  Cr  Cr7       1.0  0.87500  0.12500  0.25000  1.0000
  Cr  Cr8       1.0  0.37500  0.62500  0.25000  1.0000
  Cr  Cr9       1.0  0.75000  0.62500  0.37500  1.0000
  Cr  Cr10      1.0  0.12500  0.75000  0.37500  1.0000
  Cr  Cr11      1.0  0.00000  0.00000  0.50000  1.0000
  Cr  Cr12      1.0  0.50000  0.00000  0.50000  1.0000
  Cr  Cr13      1.0  0.00000  0.50000  0.50000  1.0000
  Cr  Cr14      1.0  0.50000  0.50000  0.50000  1.0000
  Cr  Cr15      1.0  0.87500  0.25000  0.62500  1.0000
  Cr  Cr16      1.0  0.25000  0.37500  0.62500  1.0000
  Cr  Cr17      1.0  0.12500  0.87500  0.75000  1.0000
  Cr  Cr18      1.0  0.62500  0.37500  0.75000  1.0000
  Cr  Cr19      1.0  0.75000  0.12500  0.87500  1.0000
  Cr  Cr20      1.0  0.62500  0.75000  0.87500  1.0000
  Li  Li1       1.0  0.87500  0.75000  0.12500  1.0000
  Li  Li2       1.0  0.75000  0.37500  0.12500  1.0000
  Li  Li3       1.0  0.12500  0.37500  0.25000  1.0000
  Li  Li4       1.0  0.62500  0.87500  0.25000  1.0000
  Li  Li5       1.0  0.25000  0.12500  0.37500  1.0000
  Li  Li6       1.0  0.62500  0.25000  0.37500  1.0000
  Li  Li7       1.0  0.37500  0.75000  0.62500  1.0000
  Li  Li8       1.0  0.75000  0.87500  0.62500  1.0000
  Li  Li9       1.0  0.37500  0.12500  0.75000  1.0000
  Li  Li10      1.0  0.87500  0.62500  0.75000  1.0000
  Li  Li11      1.0  0.25000  0.62500  0.87500  1.0000
  Li  Li12      1.0  0.12500  0.25000  0.87500  1.0000
  O   O1        1.0  0.22200  0.62700  0.04560  1.0000
  O   O2        1.0  0.32400  0.41900  0.04560  1.0000
  O   O3        1.0  0.62700  0.90500  0.08120  1.0000
  O   O4        1.0  0.95400  0.17600  0.08120  1.0000
  O   O5        1.0  0.87300  0.91900  0.09470  1.0000
  O   O6        1.0  0.72200  0.17600  0.09470  1.0000
  O   O7        1.0  0.58100  0.40500  0.12700  1.0000
  O   O8        1.0  0.04560  0.72200  0.12700  1.0000
  O   O9        1.0  0.45400  0.08120  0.17600  1.0000
  O   O10       1.0  0.22200  0.09470  0.17600  1.0000
  O   O11       1.0  0.12700  0.54600  0.22200  1.0000
  O   O12       1.0  0.59500  0.67600  0.22200  1.0000
  O   O13       1.0  0.45400  0.87300  0.27800  1.0000
  O   O14       1.0  0.32400  0.40500  0.27800  1.0000
  O   O15       1.0  0.91900  0.54600  0.32400  1.0000
  O   O16       1.0  0.90500  0.77800  0.32400  1.0000
  O   O17       1.0  0.27800  0.95400  0.37300  1.0000
  O   O18       1.0  0.59500  0.41900  0.37300  1.0000
  O   O19       1.0  0.82400  0.27800  0.40500  1.0000
  O   O20       1.0  0.08120  0.12700  0.40500  1.0000
  O   O21       1.0  0.82400  0.04560  0.41900  1.0000
  O   O22       1.0  0.09470  0.37300  0.41900  1.0000
  O   O23       1.0  0.58100  0.67600  0.45400  1.0000
  O   O24       1.0  0.37300  0.77800  0.45400  1.0000
  O   O25       1.0  0.62700  0.22200  0.54600  1.0000
  O   O26       1.0  0.41900  0.32400  0.54600  1.0000
  O   O27       1.0  0.90500  0.62700  0.58100  1.0000
  O   O28       1.0  0.17600  0.95400  0.58100  1.0000
  O   O29       1.0  0.17600  0.72200  0.59500  1.0000
  O   O30       1.0  0.91900  0.87300  0.59500  1.0000
  O   O31       1.0  0.72200  0.04560  0.62700  1.0000
  O   O32       1.0  0.40500  0.58100  0.62700  1.0000
  O   O33       1.0  0.08120  0.45400  0.67600  1.0000
  O   O34       1.0  0.09470  0.22200  0.67600  1.0000
  O   O35       1.0  0.54600  0.12700  0.72200  1.0000
  O   O36       1.0  0.67600  0.59500  0.72200  1.0000
  O   O37       1.0  0.87300  0.45400  0.77800  1.0000
  O   O38       1.0  0.40500  0.32400  0.77800  1.0000
  O   O39       1.0  0.54600  0.91900  0.82400  1.0000
  O   O40       1.0  0.77800  0.90500  0.82400  1.0000
  O   O41       1.0  0.41900  0.59500  0.87300  1.0000
  O   O42       1.0  0.95400  0.27800  0.87300  1.0000
  O   O43       1.0  0.12700  0.08120  0.90500  1.0000
  O   O44       1.0  0.27800  0.82400  0.90500  1.0000
  O   O45       1.0  0.04560  0.82400  0.91900  1.0000
  O   O46       1.0  0.37300  0.09470  0.91900  1.0000
  O   O47       1.0  0.67600  0.58100  0.95400  1.0000
  O   O48       1.0  0.77800  0.37300  0.95400  1.0000
