data_image0
_chemical_formula_structural       Al12Li12Mo8O48
_chemical_formula_sum              "Al12 Li12 Mo8 O48"
_cell_length_a       9.87459
_cell_length_b       9.87459
_cell_length_c       9.87459
_cell_angle_alpha    109.471
_cell_angle_beta     109.471
_cell_angle_gamma    109.471

_space_group_name_H-M_alt    "P 1"
_space_group_IT_number       1

loop_
  _space_group_symop_operation_xyz
  'x, y, z'

loop_
  _atom_site_type_symbol
  _atom_site_label
  _atom_site_symmetry_multiplicity
  _atom_site_fract_x
  _atom_site_fract_y
  _atom_site_fract_z
  _atom_site_occupancy
  Al  Al1       1.0  0.37500  0.25000  0.12500  1.0000
  Al  Al2       1.0  0.25000  0.87500  0.12500  1.0000
  Al  Al3       1.0  0.87500  0.12500  0.25000  1.0000
  Al  Al4       1.0  0.37500  0.62500  0.25000  1.0000
  Al  Al5       1.0  0.75000  0.62500  0.37500  1.0000
  Al  Al6       1.0  0.12500  0.75000  0.37500  1.0000
  Al  Al7       1.0  0.87500  0.25000  0.62500  1.0000
  Al  Al8       1.0  0.25000  0.37500  0.62500  1.0000
  Al  Al9       1.0  0.62500  0.37500  0.75000  1.0000
  Al  Al10      1.0  0.12500  0.87500  0.75000  1.0000
  Al  Al11      1.0  0.75000  0.12500  0.87500  1.0000
  Al  Al12      1.0  0.62500  0.75000  0.87500  1.0000
  Li  Li1       1.0  0.87500  0.75000  0.12500  1.0000
  Li  Li2       1.0  0.75000  0.37500  0.12500  1.0000
  Li  Li3       1.0  0.12500  0.37500  0.25000  1.0000
  Li  Li4       1.0  0.62500  0.87500  0.25000  1.0000
  Li  Li5       1.0  0.25000  0.12500  0.37500  1.0000
  Li  Li6       1.0  0.62500  0.25000  0.37500  1.0000
  Li  Li7       1.0  0.37500  0.75000  0.62500  1.0000
  Li  Li8       1.0  0.75000  0.87500  0.62500  1.0000
  Li  Li9       1.0  0.37500  0.12500  0.75000  1.0000
  Li  Li10      1.0  0.87500  0.62500  0.75000  1.0000
  Li  Li11      1.0  0.12500  0.25000  0.87500  1.0000
  Li  Li12      1.0  0.25000  0.62500  0.87500  1.0000
  Mo  Mo1       1.0  0.00000  0.00000  0.00000  1.0000
  Mo  Mo2       1.0  0.50000  0.00000  0.00000  1.0000
  Mo  Mo3       1.0  0.00000  0.50000  0.00000  1.0000
  Mo  Mo4       1.0  0.50000  0.50000  0.00000  1.0000
  Mo  Mo5       1.0  0.00000  0.00000  0.50000  1.0000
  Mo  Mo6       1.0  0.50000  0.00000  0.50000  1.0000
  Mo  Mo7       1.0  0.00000  0.50000  0.50000  1.0000
  Mo  Mo8       1.0  0.50000  0.50000  0.50000  1.0000
  O   O1        1.0  0.22300  0.62200  0.04400  1.0000
  O   O2        1.0  0.32100  0.42200  0.04400  1.0000
  O   O3        1.0  0.62200  0.89800  0.07750  1.0000
  O   O4        1.0  0.95600  0.17900  0.07750  1.0000
  O   O5        1.0  0.87800  0.92200  0.10200  1.0000
  O   O6        1.0  0.72300  0.17900  0.10200  1.0000
  O   O7        1.0  0.04400  0.72300  0.12200  1.0000
  O   O8        1.0  0.57800  0.39800  0.12200  1.0000
  O   O9        1.0  0.22300  0.10200  0.17900  1.0000
  O   O10       1.0  0.45600  0.07750  0.17900  1.0000
  O   O11       1.0  0.12200  0.54400  0.22300  1.0000
  O   O12       1.0  0.60200  0.67900  0.22300  1.0000
  O   O13       1.0  0.32100  0.39800  0.27700  1.0000
  O   O14       1.0  0.45600  0.87800  0.27700  1.0000
  O   O15       1.0  0.92200  0.54400  0.32100  1.0000
  O   O16       1.0  0.89800  0.77700  0.32100  1.0000
  O   O17       1.0  0.27700  0.95600  0.37800  1.0000
  O   O18       1.0  0.60200  0.42200  0.37800  1.0000
  O   O19       1.0  0.82100  0.27700  0.39800  1.0000
  O   O20       1.0  0.07750  0.12200  0.39800  1.0000
  O   O21       1.0  0.82100  0.04400  0.42200  1.0000
  O   O22       1.0  0.10200  0.37800  0.42200  1.0000
  O   O23       1.0  0.57800  0.67900  0.45600  1.0000
  O   O24       1.0  0.37800  0.77700  0.45600  1.0000
  O   O25       1.0  0.62200  0.22300  0.54400  1.0000
  O   O26       1.0  0.42200  0.32100  0.54400  1.0000
  O   O27       1.0  0.17900  0.95600  0.57800  1.0000
  O   O28       1.0  0.89800  0.62200  0.57800  1.0000
  O   O29       1.0  0.17900  0.72300  0.60200  1.0000
  O   O30       1.0  0.92200  0.87800  0.60200  1.0000
  O   O31       1.0  0.72300  0.04400  0.62200  1.0000
  O   O32       1.0  0.39800  0.57800  0.62200  1.0000
  O   O33       1.0  0.07750  0.45600  0.67900  1.0000
  O   O34       1.0  0.10200  0.22300  0.67900  1.0000
  O   O35       1.0  0.54400  0.12200  0.72300  1.0000
  O   O36       1.0  0.67900  0.60200  0.72300  1.0000
  O   O37       1.0  0.39800  0.32100  0.77700  1.0000
  O   O38       1.0  0.87800  0.45600  0.77700  1.0000
  O   O39       1.0  0.77700  0.89800  0.82100  1.0000
  O   O40       1.0  0.54400  0.92200  0.82100  1.0000
  O   O41       1.0  0.95600  0.27700  0.87800  1.0000
  O   O42       1.0  0.42200  0.60200  0.87800  1.0000
  O   O43       1.0  0.12200  0.07750  0.89800  1.0000
  O   O44       1.0  0.27700  0.82100  0.89800  1.0000
  O   O45       1.0  0.04400  0.82100  0.92200  1.0000
  O   O46       1.0  0.37800  0.10200  0.92200  1.0000
  O   O47       1.0  0.77700  0.37800  0.95600  1.0000
  O   O48       1.0  0.67900  0.57800  0.95600  1.0000
