data_image0
_chemical_formula_structural       Gd12Li12O48W8
_chemical_formula_sum              "Gd12 Li12 O48 W8"
_cell_length_a       10.6119
_cell_length_b       10.6119
_cell_length_c       10.6119
_cell_angle_alpha    109.471
_cell_angle_beta     109.471
_cell_angle_gamma    109.471

_space_group_name_H-M_alt    "P 1"
_space_group_IT_number       1

loop_
  _space_group_symop_operation_xyz
  'x, y, z'

loop_
  _atom_site_type_symbol
  _atom_site_label
  _atom_site_symmetry_multiplicity
  _atom_site_fract_x
  _atom_site_fract_y
  _atom_site_fract_z
  _atom_site_occupancy
  Gd  Gd1       1.0  0.37500  0.25000  0.12500  1.0000
  Gd  Gd2       1.0  0.25000  0.87500  0.12500  1.0000
  Gd  Gd3       1.0  0.87500  0.12500  0.25000  1.0000
  Gd  Gd4       1.0  0.37500  0.62500  0.25000  1.0000
  Gd  Gd5       1.0  0.12500  0.75000  0.37500  1.0000
  Gd  Gd6       1.0  0.75000  0.62500  0.37500  1.0000
  Gd  Gd7       1.0  0.87500  0.25000  0.62500  1.0000
  Gd  Gd8       1.0  0.25000  0.37500  0.62500  1.0000
  Gd  Gd9       1.0  0.62500  0.37500  0.75000  1.0000
  Gd  Gd10      1.0  0.12500  0.87500  0.75000  1.0000
  Gd  Gd11      1.0  0.75000  0.12500  0.87500  1.0000
  Gd  Gd12      1.0  0.62500  0.75000  0.87500  1.0000
  Li  Li1       1.0  0.75000  0.37500  0.12500  1.0000
  Li  Li2       1.0  0.87500  0.75000  0.12500  1.0000
  Li  Li3       1.0  0.12500  0.37500  0.25000  1.0000
  Li  Li4       1.0  0.62500  0.87500  0.25000  1.0000
  Li  Li5       1.0  0.25000  0.12500  0.37500  1.0000
  Li  Li6       1.0  0.62500  0.25000  0.37500  1.0000
  Li  Li7       1.0  0.37500  0.75000  0.62500  1.0000
  Li  Li8       1.0  0.75000  0.87500  0.62500  1.0000
  Li  Li9       1.0  0.37500  0.12500  0.75000  1.0000
  Li  Li10      1.0  0.87500  0.62500  0.75000  1.0000
  Li  Li11      1.0  0.12500  0.25000  0.87500  1.0000
  Li  Li12      1.0  0.25000  0.62500  0.87500  1.0000
  O   O1        1.0  0.20100  0.61700  0.02640  1.0000
  O   O2        1.0  0.32600  0.40900  0.02640  1.0000
  O   O3        1.0  0.70100  0.17400  0.08370  1.0000
  O   O4        1.0  0.88300  0.90900  0.08370  1.0000
  O   O5        1.0  0.97400  0.17400  0.09050  1.0000
  O   O6        1.0  0.61700  0.91600  0.09050  1.0000
  O   O7        1.0  0.02640  0.70100  0.11700  1.0000
  O   O8        1.0  0.59100  0.41600  0.11700  1.0000
  O   O9        1.0  0.20100  0.08370  0.17400  1.0000
  O   O10       1.0  0.47400  0.09050  0.17400  1.0000
  O   O11       1.0  0.11700  0.52600  0.20100  1.0000
  O   O12       1.0  0.58400  0.67400  0.20100  1.0000
  O   O13       1.0  0.32600  0.41600  0.29900  1.0000
  O   O14       1.0  0.47400  0.88300  0.29900  1.0000
  O   O15       1.0  0.91600  0.79900  0.32600  1.0000
  O   O16       1.0  0.90900  0.52600  0.32600  1.0000
  O   O17       1.0  0.58400  0.40900  0.38300  1.0000
  O   O18       1.0  0.29900  0.97400  0.38300  1.0000
  O   O19       1.0  0.82600  0.02640  0.40900  1.0000
  O   O20       1.0  0.08370  0.38300  0.40900  1.0000
  O   O21       1.0  0.82600  0.29900  0.41600  1.0000
  O   O22       1.0  0.09050  0.11700  0.41600  1.0000
  O   O23       1.0  0.38300  0.79900  0.47400  1.0000
  O   O24       1.0  0.59100  0.67400  0.47400  1.0000
  O   O25       1.0  0.40900  0.32600  0.52600  1.0000
  O   O26       1.0  0.61700  0.20100  0.52600  1.0000
  O   O27       1.0  0.17400  0.70100  0.58400  1.0000
  O   O28       1.0  0.90900  0.88300  0.58400  1.0000
  O   O29       1.0  0.91600  0.61700  0.59100  1.0000
  O   O30       1.0  0.17400  0.97400  0.59100  1.0000
  O   O31       1.0  0.41600  0.59100  0.61700  1.0000
  O   O32       1.0  0.70100  0.02640  0.61700  1.0000
  O   O33       1.0  0.08370  0.20100  0.67400  1.0000
  O   O34       1.0  0.09050  0.47400  0.67400  1.0000
  O   O35       1.0  0.67400  0.58400  0.70100  1.0000
  O   O36       1.0  0.52600  0.11700  0.70100  1.0000
  O   O37       1.0  0.41600  0.32600  0.79900  1.0000
  O   O38       1.0  0.88300  0.47400  0.79900  1.0000
  O   O39       1.0  0.52600  0.90900  0.82600  1.0000
  O   O40       1.0  0.79900  0.91600  0.82600  1.0000
  O   O41       1.0  0.97400  0.29900  0.88300  1.0000
  O   O42       1.0  0.40900  0.58400  0.88300  1.0000
  O   O43       1.0  0.02640  0.82600  0.90900  1.0000
  O   O44       1.0  0.38300  0.08370  0.90900  1.0000
  O   O45       1.0  0.11700  0.09050  0.91600  1.0000
  O   O46       1.0  0.29900  0.82600  0.91600  1.0000
  O   O47       1.0  0.79900  0.38300  0.97400  1.0000
  O   O48       1.0  0.67400  0.59100  0.97400  1.0000
  W   W1        1.0  0.00000  0.00000  0.00000  1.0000
  W   W2        1.0  0.50000  0.00000  0.00000  1.0000
  W   W3        1.0  0.00000  0.50000  0.00000  1.0000
  W   W4        1.0  0.50000  0.50000  0.00000  1.0000
  W   W5        1.0  0.50000  0.00000  0.50000  1.0000
  W   W6        1.0  0.00000  0.50000  0.50000  1.0000
  W   W7        1.0  0.00000  0.00000  0.50000  1.0000
  W   W8        1.0  0.50000  0.50000  0.50000  1.0000
