data_image0
_chemical_formula_structural       Li12O48Te8Yb12
_chemical_formula_sum              "Li12 O48 Te8 Yb12"
_cell_length_a       10.6876
_cell_length_b       10.6876
_cell_length_c       10.6876
_cell_angle_alpha    109.471
_cell_angle_beta     109.471
_cell_angle_gamma    109.471

_space_group_name_H-M_alt    "P 1"
_space_group_IT_number       1

loop_
  _space_group_symop_operation_xyz
  'x, y, z'

loop_
  _atom_site_type_symbol
  _atom_site_label
  _atom_site_symmetry_multiplicity
  _atom_site_fract_x
  _atom_site_fract_y
  _atom_site_fract_z
  _atom_site_occupancy
  Li  Li1       1.0  0.87500  0.75000  0.12500  1.0000
  Li  Li2       1.0  0.75000  0.37500  0.12500  1.0000
  Li  Li3       1.0  0.12500  0.37500  0.25000  1.0000
  Li  Li4       1.0  0.62500  0.87500  0.25000  1.0000
  Li  Li5       1.0  0.25000  0.12500  0.37500  1.0000
  Li  Li6       1.0  0.62500  0.25000  0.37500  1.0000
  Li  Li7       1.0  0.37500  0.75000  0.62500  1.0000
  Li  Li8       1.0  0.75000  0.87500  0.62500  1.0000
  Li  Li9       1.0  0.37500  0.12500  0.75000  1.0000
  Li  Li10      1.0  0.87500  0.62500  0.75000  1.0000
  Li  Li11      1.0  0.12500  0.25000  0.87500  1.0000
  Li  Li12      1.0  0.25000  0.62500  0.87500  1.0000
  O   O1        1.0  0.19800  0.61600  0.02590  1.0000
  O   O2        1.0  0.32800  0.41000  0.02590  1.0000
  O   O3        1.0  0.69800  0.17200  0.08190  1.0000
  O   O4        1.0  0.88400  0.91000  0.08190  1.0000
  O   O5        1.0  0.97400  0.17200  0.09040  1.0000
  O   O6        1.0  0.61600  0.91800  0.09040  1.0000
  O   O7        1.0  0.59000  0.41800  0.11600  1.0000
  O   O8        1.0  0.02590  0.69800  0.11600  1.0000
  O   O9        1.0  0.47400  0.09040  0.17200  1.0000
  O   O10       1.0  0.19800  0.08190  0.17200  1.0000
  O   O11       1.0  0.11600  0.52600  0.19800  1.0000
  O   O12       1.0  0.58200  0.67200  0.19800  1.0000
  O   O13       1.0  0.47400  0.88400  0.30200  1.0000
  O   O14       1.0  0.32800  0.41800  0.30200  1.0000
  O   O15       1.0  0.91000  0.52600  0.32800  1.0000
  O   O16       1.0  0.91800  0.80200  0.32800  1.0000
  O   O17       1.0  0.58200  0.41000  0.38400  1.0000
  O   O18       1.0  0.30200  0.97400  0.38400  1.0000
  O   O19       1.0  0.82800  0.02590  0.41000  1.0000
  O   O20       1.0  0.08190  0.38400  0.41000  1.0000
  O   O21       1.0  0.82800  0.30200  0.41800  1.0000
  O   O22       1.0  0.09040  0.11600  0.41800  1.0000
  O   O23       1.0  0.59000  0.67200  0.47400  1.0000
  O   O24       1.0  0.38400  0.80200  0.47400  1.0000
  O   O25       1.0  0.61600  0.19800  0.52600  1.0000
  O   O26       1.0  0.41000  0.32800  0.52600  1.0000
  O   O27       1.0  0.17200  0.69800  0.58200  1.0000
  O   O28       1.0  0.91000  0.88400  0.58200  1.0000
  O   O29       1.0  0.17200  0.97400  0.59000  1.0000
  O   O30       1.0  0.91800  0.61600  0.59000  1.0000
  O   O31       1.0  0.69800  0.02590  0.61600  1.0000
  O   O32       1.0  0.41800  0.59000  0.61600  1.0000
  O   O33       1.0  0.08190  0.19800  0.67200  1.0000
  O   O34       1.0  0.09040  0.47400  0.67200  1.0000
  O   O35       1.0  0.52600  0.11600  0.69800  1.0000
  O   O36       1.0  0.67200  0.58200  0.69800  1.0000
  O   O37       1.0  0.41800  0.32800  0.80200  1.0000
  O   O38       1.0  0.88400  0.47400  0.80200  1.0000
  O   O39       1.0  0.80200  0.91800  0.82800  1.0000
  O   O40       1.0  0.52600  0.91000  0.82800  1.0000
  O   O41       1.0  0.97400  0.30200  0.88400  1.0000
  O   O42       1.0  0.41000  0.58200  0.88400  1.0000
  O   O43       1.0  0.02590  0.82800  0.91000  1.0000
  O   O44       1.0  0.38400  0.08190  0.91000  1.0000
  O   O45       1.0  0.11600  0.09040  0.91800  1.0000
  O   O46       1.0  0.30200  0.82800  0.91800  1.0000
  O   O47       1.0  0.80200  0.38400  0.97400  1.0000
  O   O48       1.0  0.67200  0.59000  0.97400  1.0000
  Te  Te1       1.0  0.00000  0.00000  0.00000  1.0000
  Te  Te2       1.0  0.50000  0.00000  0.00000  1.0000
  Te  Te3       1.0  0.50000  0.50000  0.00000  1.0000
  Te  Te4       1.0  0.00000  0.50000  0.00000  1.0000
  Te  Te5       1.0  0.50000  0.00000  0.50000  1.0000
  Te  Te6       1.0  0.00000  0.50000  0.50000  1.0000
  Te  Te7       1.0  0.00000  0.00000  0.50000  1.0000
  Te  Te8       1.0  0.50000  0.50000  0.50000  1.0000
  Yb  Yb1       1.0  0.37500  0.25000  0.12500  1.0000
  Yb  Yb2       1.0  0.25000  0.87500  0.12500  1.0000
  Yb  Yb3       1.0  0.87500  0.12500  0.25000  1.0000
  Yb  Yb4       1.0  0.37500  0.62500  0.25000  1.0000
  Yb  Yb5       1.0  0.75000  0.62500  0.37500  1.0000
  Yb  Yb6       1.0  0.12500  0.75000  0.37500  1.0000
  Yb  Yb7       1.0  0.87500  0.25000  0.62500  1.0000
  Yb  Yb8       1.0  0.25000  0.37500  0.62500  1.0000
  Yb  Yb9       1.0  0.12500  0.87500  0.75000  1.0000
  Yb  Yb10      1.0  0.62500  0.37500  0.75000  1.0000
  Yb  Yb11      1.0  0.75000  0.12500  0.87500  1.0000
  Yb  Yb12      1.0  0.62500  0.75000  0.87500  1.0000
