data_image0
_chemical_formula_structural       Fe12Li12O48Te8
_chemical_formula_sum              "Fe12 Li12 O48 Te8"
_cell_length_a       10.1442
_cell_length_b       10.1442
_cell_length_c       10.1442
_cell_angle_alpha    109.471
_cell_angle_beta     109.471
_cell_angle_gamma    109.471

_space_group_name_H-M_alt    "P 1"
_space_group_IT_number       1

loop_
  _space_group_symop_operation_xyz
  'x, y, z'

loop_
  _atom_site_type_symbol
  _atom_site_label
  _atom_site_symmetry_multiplicity
  _atom_site_fract_x
  _atom_site_fract_y
  _atom_site_fract_z
  _atom_site_occupancy
  Fe  Fe1       1.0  0.25000  0.87500  0.12500  1.0000
  Fe  Fe2       1.0  0.37500  0.25000  0.12500  1.0000
  Fe  Fe3       1.0  0.87500  0.12500  0.25000  1.0000
  Fe  Fe4       1.0  0.37500  0.62500  0.25000  1.0000
  Fe  Fe5       1.0  0.12500  0.75000  0.37500  1.0000
  Fe  Fe6       1.0  0.75000  0.62500  0.37500  1.0000
  Fe  Fe7       1.0  0.87500  0.25000  0.62500  1.0000
  Fe  Fe8       1.0  0.25000  0.37500  0.62500  1.0000
  Fe  Fe9       1.0  0.62500  0.37500  0.75000  1.0000
  Fe  Fe10      1.0  0.12500  0.87500  0.75000  1.0000
  Fe  Fe11      1.0  0.62500  0.75000  0.87500  1.0000
  Fe  Fe12      1.0  0.75000  0.12500  0.87500  1.0000
  Li  Li1       1.0  0.75000  0.37500  0.12500  1.0000
  Li  Li2       1.0  0.87500  0.75000  0.12500  1.0000
  Li  Li3       1.0  0.12500  0.37500  0.25000  1.0000
  Li  Li4       1.0  0.62500  0.87500  0.25000  1.0000
  Li  Li5       1.0  0.62500  0.25000  0.37500  1.0000
  Li  Li6       1.0  0.25000  0.12500  0.37500  1.0000
  Li  Li7       1.0  0.37500  0.75000  0.62500  1.0000
  Li  Li8       1.0  0.75000  0.87500  0.62500  1.0000
  Li  Li9       1.0  0.37500  0.12500  0.75000  1.0000
  Li  Li10      1.0  0.87500  0.62500  0.75000  1.0000
  Li  Li11      1.0  0.12500  0.25000  0.87500  1.0000
  Li  Li12      1.0  0.25000  0.62500  0.87500  1.0000
  O   O1        1.0  0.21400  0.62600  0.03680  1.0000
  O   O2        1.0  0.32300  0.41100  0.03680  1.0000
  O   O3        1.0  0.71400  0.17700  0.08740  1.0000
  O   O4        1.0  0.87400  0.91100  0.08740  1.0000
  O   O5        1.0  0.62600  0.91300  0.08930  1.0000
  O   O6        1.0  0.96300  0.17700  0.08930  1.0000
  O   O7        1.0  0.03680  0.71400  0.12600  1.0000
  O   O8        1.0  0.58900  0.41300  0.12600  1.0000
  O   O9        1.0  0.21400  0.08740  0.17700  1.0000
  O   O10       1.0  0.46300  0.08930  0.17700  1.0000
  O   O11       1.0  0.12600  0.53700  0.21400  1.0000
  O   O12       1.0  0.58700  0.67700  0.21400  1.0000
  O   O13       1.0  0.46300  0.87400  0.28600  1.0000
  O   O14       1.0  0.32300  0.41300  0.28600  1.0000
  O   O15       1.0  0.91100  0.53700  0.32300  1.0000
  O   O16       1.0  0.91300  0.78600  0.32300  1.0000
  O   O17       1.0  0.28600  0.96300  0.37400  1.0000
  O   O18       1.0  0.58700  0.41100  0.37400  1.0000
  O   O19       1.0  0.08740  0.37400  0.41100  1.0000
  O   O20       1.0  0.82300  0.03680  0.41100  1.0000
  O   O21       1.0  0.08930  0.12600  0.41300  1.0000
  O   O22       1.0  0.82300  0.28600  0.41300  1.0000
  O   O23       1.0  0.37400  0.78600  0.46300  1.0000
  O   O24       1.0  0.58900  0.67700  0.46300  1.0000
  O   O25       1.0  0.41100  0.32300  0.53700  1.0000
  O   O26       1.0  0.62600  0.21400  0.53700  1.0000
  O   O27       1.0  0.91100  0.87400  0.58700  1.0000
  O   O28       1.0  0.17700  0.71400  0.58700  1.0000
  O   O29       1.0  0.17700  0.96300  0.58900  1.0000
  O   O30       1.0  0.91300  0.62600  0.58900  1.0000
  O   O31       1.0  0.41300  0.58900  0.62600  1.0000
  O   O32       1.0  0.71400  0.03680  0.62600  1.0000
  O   O33       1.0  0.08740  0.21400  0.67700  1.0000
  O   O34       1.0  0.08930  0.46300  0.67700  1.0000
  O   O35       1.0  0.67700  0.58700  0.71400  1.0000
  O   O36       1.0  0.53700  0.12600  0.71400  1.0000
  O   O37       1.0  0.41300  0.32300  0.78600  1.0000
  O   O38       1.0  0.87400  0.46300  0.78600  1.0000
  O   O39       1.0  0.78600  0.91300  0.82300  1.0000
  O   O40       1.0  0.53700  0.91100  0.82300  1.0000
  O   O41       1.0  0.41100  0.58700  0.87400  1.0000
  O   O42       1.0  0.96300  0.28600  0.87400  1.0000
  O   O43       1.0  0.03680  0.82300  0.91100  1.0000
  O   O44       1.0  0.37400  0.08740  0.91100  1.0000
  O   O45       1.0  0.28600  0.82300  0.91300  1.0000
  O   O46       1.0  0.12600  0.08930  0.91300  1.0000
  O   O47       1.0  0.78600  0.37400  0.96300  1.0000
  O   O48       1.0  0.67700  0.58900  0.96300  1.0000
  Te  Te1       1.0  0.00000  0.00000  0.00000  1.0000
  Te  Te2       1.0  0.50000  0.00000  0.00000  1.0000
  Te  Te3       1.0  0.50000  0.50000  0.00000  1.0000
  Te  Te4       1.0  0.00000  0.50000  0.00000  1.0000
  Te  Te5       1.0  0.50000  0.00000  0.50000  1.0000
  Te  Te6       1.0  0.00000  0.50000  0.50000  1.0000
  Te  Te7       1.0  0.00000  0.00000  0.50000  1.0000
  Te  Te8       1.0  0.50000  0.50000  0.50000  1.0000
