data_image0
_chemical_formula_structural       Cr8Li12Mo12O48
_chemical_formula_sum              "Cr8 Li12 Mo12 O48"
_cell_length_a       9.91549
_cell_length_b       9.91549
_cell_length_c       9.91549
_cell_angle_alpha    109.471
_cell_angle_beta     109.471
_cell_angle_gamma    109.471

_space_group_name_H-M_alt    "P 1"
_space_group_IT_number       1

loop_
  _space_group_symop_operation_xyz
  'x, y, z'

loop_
  _atom_site_type_symbol
  _atom_site_label
  _atom_site_symmetry_multiplicity
  _atom_site_fract_x
  _atom_site_fract_y
  _atom_site_fract_z
  _atom_site_occupancy
  Cr  Cr1       1.0  0.00000  0.00000  0.00000  1.0000
  Cr  Cr2       1.0  0.50000  0.00000  0.00000  1.0000
  Cr  Cr3       1.0  0.00000  0.50000  0.00000  1.0000
  Cr  Cr4       1.0  0.50000  0.50000  0.00000  1.0000
  Cr  Cr5       1.0  0.00000  0.00000  0.50000  1.0000
  Cr  Cr6       1.0  0.50000  0.50000  0.50000  1.0000
  Cr  Cr7       1.0  0.50000  0.00000  0.50000  1.0000
  Cr  Cr8       1.0  0.00000  0.50000  0.50000  1.0000
  Li  Li1       1.0  0.75000  0.37500  0.12500  1.0000
  Li  Li2       1.0  0.87500  0.75000  0.12500  1.0000
  Li  Li3       1.0  0.12500  0.37500  0.25000  1.0000
  Li  Li4       1.0  0.62500  0.87500  0.25000  1.0000
  Li  Li5       1.0  0.25000  0.12500  0.37500  1.0000
  Li  Li6       1.0  0.62500  0.25000  0.37500  1.0000
  Li  Li7       1.0  0.75000  0.87500  0.62500  1.0000
  Li  Li8       1.0  0.37500  0.75000  0.62500  1.0000
  Li  Li9       1.0  0.37500  0.12500  0.75000  1.0000
  Li  Li10      1.0  0.87500  0.62500  0.75000  1.0000
  Li  Li11      1.0  0.12500  0.25000  0.87500  1.0000
  Li  Li12      1.0  0.25000  0.62500  0.87500  1.0000
  Mo  Mo1       1.0  0.25000  0.87500  0.12500  1.0000
  Mo  Mo2       1.0  0.37500  0.25000  0.12500  1.0000
  Mo  Mo3       1.0  0.37500  0.62500  0.25000  1.0000
  Mo  Mo4       1.0  0.87500  0.12500  0.25000  1.0000
  Mo  Mo5       1.0  0.75000  0.62500  0.37500  1.0000
  Mo  Mo6       1.0  0.12500  0.75000  0.37500  1.0000
  Mo  Mo7       1.0  0.25000  0.37500  0.62500  1.0000
  Mo  Mo8       1.0  0.87500  0.25000  0.62500  1.0000
  Mo  Mo9       1.0  0.62500  0.37500  0.75000  1.0000
  Mo  Mo10      1.0  0.12500  0.87500  0.75000  1.0000
  Mo  Mo11      1.0  0.62500  0.75000  0.87500  1.0000
  Mo  Mo12      1.0  0.75000  0.12500  0.87500  1.0000
  O   O1        1.0  0.22400  0.63300  0.04720  1.0000
  O   O2        1.0  0.32300  0.41400  0.04720  1.0000
  O   O3        1.0  0.95300  0.17700  0.08560  1.0000
  O   O4        1.0  0.63300  0.90800  0.08560  1.0000
  O   O5        1.0  0.72400  0.17700  0.09160  1.0000
  O   O6        1.0  0.86700  0.91400  0.09160  1.0000
  O   O7        1.0  0.58600  0.40800  0.13300  1.0000
  O   O8        1.0  0.04720  0.72400  0.13300  1.0000
  O   O9        1.0  0.45300  0.08560  0.17700  1.0000
  O   O10       1.0  0.22400  0.09160  0.17700  1.0000
  O   O11       1.0  0.13300  0.54700  0.22400  1.0000
  O   O12       1.0  0.59200  0.67700  0.22400  1.0000
  O   O13       1.0  0.45300  0.86700  0.27600  1.0000
  O   O14       1.0  0.32300  0.40800  0.27600  1.0000
  O   O15       1.0  0.90800  0.77600  0.32300  1.0000
  O   O16       1.0  0.91400  0.54700  0.32300  1.0000
  O   O17       1.0  0.59200  0.41400  0.36700  1.0000
  O   O18       1.0  0.27600  0.95300  0.36700  1.0000
  O   O19       1.0  0.82300  0.27600  0.40800  1.0000
  O   O20       1.0  0.08560  0.13300  0.40800  1.0000
  O   O21       1.0  0.82300  0.04720  0.41400  1.0000
  O   O22       1.0  0.09160  0.36700  0.41400  1.0000
  O   O23       1.0  0.36700  0.77600  0.45300  1.0000
  O   O24       1.0  0.58600  0.67700  0.45300  1.0000
  O   O25       1.0  0.63300  0.22400  0.54700  1.0000
  O   O26       1.0  0.41400  0.32300  0.54700  1.0000
  O   O27       1.0  0.17700  0.95300  0.58600  1.0000
  O   O28       1.0  0.90800  0.63300  0.58600  1.0000
  O   O29       1.0  0.17700  0.72400  0.59200  1.0000
  O   O30       1.0  0.91400  0.86700  0.59200  1.0000
  O   O31       1.0  0.72400  0.04720  0.63300  1.0000
  O   O32       1.0  0.40800  0.58600  0.63300  1.0000
  O   O33       1.0  0.09160  0.22400  0.67700  1.0000
  O   O34       1.0  0.08560  0.45300  0.67700  1.0000
  O   O35       1.0  0.54700  0.13300  0.72400  1.0000
  O   O36       1.0  0.67700  0.59200  0.72400  1.0000
  O   O37       1.0  0.40800  0.32300  0.77600  1.0000
  O   O38       1.0  0.86700  0.45300  0.77600  1.0000
  O   O39       1.0  0.77600  0.90800  0.82300  1.0000
  O   O40       1.0  0.54700  0.91400  0.82300  1.0000
  O   O41       1.0  0.95300  0.27600  0.86700  1.0000
  O   O42       1.0  0.41400  0.59200  0.86700  1.0000
  O   O43       1.0  0.13300  0.08560  0.90800  1.0000
  O   O44       1.0  0.27600  0.82300  0.90800  1.0000
  O   O45       1.0  0.36700  0.09160  0.91400  1.0000
  O   O46       1.0  0.04720  0.82300  0.91400  1.0000
  O   O47       1.0  0.77600  0.36700  0.95300  1.0000
  O   O48       1.0  0.67700  0.58600  0.95300  1.0000
