data_image0
_chemical_formula_structural       La12Li12O48W8
_chemical_formula_sum              "La12 Li12 O48 W8"
_cell_length_a       10.8883
_cell_length_b       10.8883
_cell_length_c       10.8883
_cell_angle_alpha    109.471
_cell_angle_beta     109.471
_cell_angle_gamma    109.471

_space_group_name_H-M_alt    "P 1"
_space_group_IT_number       1

loop_
  _space_group_symop_operation_xyz
  'x, y, z'

loop_
  _atom_site_type_symbol
  _atom_site_label
  _atom_site_symmetry_multiplicity
  _atom_site_fract_x
  _atom_site_fract_y
  _atom_site_fract_z
  _atom_site_occupancy
  La  La1       1.0  0.25000  0.87500  0.12500  1.0000
  La  La2       1.0  0.37500  0.25000  0.12500  1.0000
  La  La3       1.0  0.87500  0.12500  0.25000  1.0000
  La  La4       1.0  0.37500  0.62500  0.25000  1.0000
  La  La5       1.0  0.12500  0.75000  0.37500  1.0000
  La  La6       1.0  0.75000  0.62500  0.37500  1.0000
  La  La7       1.0  0.87500  0.25000  0.62500  1.0000
  La  La8       1.0  0.25000  0.37500  0.62500  1.0000
  La  La9       1.0  0.62500  0.37500  0.75000  1.0000
  La  La10      1.0  0.12500  0.87500  0.75000  1.0000
  La  La11      1.0  0.62500  0.75000  0.87500  1.0000
  La  La12      1.0  0.75000  0.12500  0.87500  1.0000
  Li  Li1       1.0  0.75000  0.37500  0.12500  1.0000
  Li  Li2       1.0  0.87500  0.75000  0.12500  1.0000
  Li  Li3       1.0  0.12500  0.37500  0.25000  1.0000
  Li  Li4       1.0  0.62500  0.87500  0.25000  1.0000
  Li  Li5       1.0  0.62500  0.25000  0.37500  1.0000
  Li  Li6       1.0  0.25000  0.12500  0.37500  1.0000
  Li  Li7       1.0  0.37500  0.75000  0.62500  1.0000
  Li  Li8       1.0  0.75000  0.87500  0.62500  1.0000
  Li  Li9       1.0  0.37500  0.12500  0.75000  1.0000
  Li  Li10      1.0  0.87500  0.62500  0.75000  1.0000
  Li  Li11      1.0  0.12500  0.25000  0.87500  1.0000
  Li  Li12      1.0  0.25000  0.62500  0.87500  1.0000
  O   O1        1.0  0.32800  0.40900  0.02180  1.0000
  O   O2        1.0  0.19400  0.61300  0.02180  1.0000
  O   O3        1.0  0.88700  0.90900  0.08090  1.0000
  O   O4        1.0  0.69400  0.17200  0.08090  1.0000
  O   O5        1.0  0.61300  0.91900  0.09130  1.0000
  O   O6        1.0  0.97800  0.17200  0.09130  1.0000
  O   O7        1.0  0.02180  0.69400  0.11300  1.0000
  O   O8        1.0  0.59100  0.41900  0.11300  1.0000
  O   O9        1.0  0.19400  0.08090  0.17200  1.0000
  O   O10       1.0  0.47800  0.09130  0.17200  1.0000
  O   O11       1.0  0.11300  0.52200  0.19400  1.0000
  O   O12       1.0  0.58100  0.67200  0.19400  1.0000
  O   O13       1.0  0.32800  0.41900  0.30600  1.0000
  O   O14       1.0  0.47800  0.88700  0.30600  1.0000
  O   O15       1.0  0.91900  0.80600  0.32800  1.0000
  O   O16       1.0  0.90900  0.52200  0.32800  1.0000
  O   O17       1.0  0.58100  0.40900  0.38700  1.0000
  O   O18       1.0  0.30600  0.97800  0.38700  1.0000
  O   O19       1.0  0.82800  0.02180  0.40900  1.0000
  O   O20       1.0  0.08090  0.38700  0.40900  1.0000
  O   O21       1.0  0.09130  0.11300  0.41900  1.0000
  O   O22       1.0  0.82800  0.30600  0.41900  1.0000
  O   O23       1.0  0.59100  0.67200  0.47800  1.0000
  O   O24       1.0  0.38700  0.80600  0.47800  1.0000
  O   O25       1.0  0.61300  0.19400  0.52200  1.0000
  O   O26       1.0  0.40900  0.32800  0.52200  1.0000
  O   O27       1.0  0.17200  0.69400  0.58100  1.0000
  O   O28       1.0  0.90900  0.88700  0.58100  1.0000
  O   O29       1.0  0.17200  0.97800  0.59100  1.0000
  O   O30       1.0  0.91900  0.61300  0.59100  1.0000
  O   O31       1.0  0.41900  0.59100  0.61300  1.0000
  O   O32       1.0  0.69400  0.02180  0.61300  1.0000
  O   O33       1.0  0.08090  0.19400  0.67200  1.0000
  O   O34       1.0  0.09130  0.47800  0.67200  1.0000
  O   O35       1.0  0.67200  0.58100  0.69400  1.0000
  O   O36       1.0  0.52200  0.11300  0.69400  1.0000
  O   O37       1.0  0.88700  0.47800  0.80600  1.0000
  O   O38       1.0  0.41900  0.32800  0.80600  1.0000
  O   O39       1.0  0.52200  0.90900  0.82800  1.0000
  O   O40       1.0  0.80600  0.91900  0.82800  1.0000
  O   O41       1.0  0.97800  0.30600  0.88700  1.0000
  O   O42       1.0  0.40900  0.58100  0.88700  1.0000
  O   O43       1.0  0.38700  0.08090  0.90900  1.0000
  O   O44       1.0  0.02180  0.82800  0.90900  1.0000
  O   O45       1.0  0.11300  0.09130  0.91900  1.0000
  O   O46       1.0  0.30600  0.82800  0.91900  1.0000
  O   O47       1.0  0.80600  0.38700  0.97800  1.0000
  O   O48       1.0  0.67200  0.59100  0.97800  1.0000
  W   W1        1.0  0.00000  0.00000  0.00000  1.0000
  W   W2        1.0  0.50000  0.00000  0.00000  1.0000
  W   W3        1.0  0.50000  0.50000  0.00000  1.0000
  W   W4        1.0  0.00000  0.50000  0.00000  1.0000
  W   W5        1.0  0.50000  0.00000  0.50000  1.0000
  W   W6        1.0  0.00000  0.50000  0.50000  1.0000
  W   W7        1.0  0.00000  0.00000  0.50000  1.0000
  W   W8        1.0  0.50000  0.50000  0.50000  1.0000
