data_image0
_chemical_formula_structural       Li12Mo8O48Sc12
_chemical_formula_sum              "Li12 Mo8 O48 Sc12"
_cell_length_a       10.1999
_cell_length_b       10.1999
_cell_length_c       10.1999
_cell_angle_alpha    109.471
_cell_angle_beta     109.471
_cell_angle_gamma    109.471

_space_group_name_H-M_alt    "P 1"
_space_group_IT_number       1

loop_
  _space_group_symop_operation_xyz
  'x, y, z'

loop_
  _atom_site_type_symbol
  _atom_site_label
  _atom_site_symmetry_multiplicity
  _atom_site_fract_x
  _atom_site_fract_y
  _atom_site_fract_z
  _atom_site_occupancy
  Li  Li1       1.0  0.75000  0.37500  0.12500  1.0000
  Li  Li2       1.0  0.87500  0.75000  0.12500  1.0000
  Li  Li3       1.0  0.12500  0.37500  0.25000  1.0000
  Li  Li4       1.0  0.62500  0.87500  0.25000  1.0000
  Li  Li5       1.0  0.25000  0.12500  0.37500  1.0000
  Li  Li6       1.0  0.62500  0.25000  0.37500  1.0000
  Li  Li7       1.0  0.37500  0.75000  0.62500  1.0000
  Li  Li8       1.0  0.75000  0.87500  0.62500  1.0000
  Li  Li9       1.0  0.37500  0.12500  0.75000  1.0000
  Li  Li10      1.0  0.87500  0.62500  0.75000  1.0000
  Li  Li11      1.0  0.12500  0.25000  0.87500  1.0000
  Li  Li12      1.0  0.25000  0.62500  0.87500  1.0000
  Mo  Mo1       1.0  0.00000  0.00000  0.00000  1.0000
  Mo  Mo2       1.0  0.50000  0.00000  0.00000  1.0000
  Mo  Mo3       1.0  0.00000  0.50000  0.00000  1.0000
  Mo  Mo4       1.0  0.50000  0.50000  0.00000  1.0000
  Mo  Mo5       1.0  0.00000  0.00000  0.50000  1.0000
  Mo  Mo6       1.0  0.50000  0.00000  0.50000  1.0000
  Mo  Mo7       1.0  0.00000  0.50000  0.50000  1.0000
  Mo  Mo8       1.0  0.50000  0.50000  0.50000  1.0000
  O   O1        1.0  0.32300  0.41200  0.03390  1.0000
  O   O2        1.0  0.21100  0.62200  0.03390  1.0000
  O   O3        1.0  0.96600  0.17700  0.08830  1.0000
  O   O4        1.0  0.62200  0.91100  0.08830  1.0000
  O   O5        1.0  0.71100  0.17700  0.08860  1.0000
  O   O6        1.0  0.87800  0.91200  0.08860  1.0000
  O   O7        1.0  0.03390  0.71100  0.12200  1.0000
  O   O8        1.0  0.58800  0.41100  0.12200  1.0000
  O   O9        1.0  0.21100  0.08860  0.17700  1.0000
  O   O10       1.0  0.46600  0.08830  0.17700  1.0000
  O   O11       1.0  0.12200  0.53400  0.21100  1.0000
  O   O12       1.0  0.58900  0.67700  0.21100  1.0000
  O   O13       1.0  0.32300  0.41100  0.28900  1.0000
  O   O14       1.0  0.46600  0.87800  0.28900  1.0000
  O   O15       1.0  0.91200  0.53400  0.32300  1.0000
  O   O16       1.0  0.91100  0.78900  0.32300  1.0000
  O   O17       1.0  0.58900  0.41200  0.37800  1.0000
  O   O18       1.0  0.28900  0.96600  0.37800  1.0000
  O   O19       1.0  0.08830  0.12200  0.41100  1.0000
  O   O20       1.0  0.82300  0.28900  0.41100  1.0000
  O   O21       1.0  0.08860  0.37800  0.41200  1.0000
  O   O22       1.0  0.82300  0.03390  0.41200  1.0000
  O   O23       1.0  0.58800  0.67700  0.46600  1.0000
  O   O24       1.0  0.37800  0.78900  0.46600  1.0000
  O   O25       1.0  0.62200  0.21100  0.53400  1.0000
  O   O26       1.0  0.41200  0.32300  0.53400  1.0000
  O   O27       1.0  0.91100  0.62200  0.58800  1.0000
  O   O28       1.0  0.17700  0.96600  0.58800  1.0000
  O   O29       1.0  0.17700  0.71100  0.58900  1.0000
  O   O30       1.0  0.91200  0.87800  0.58900  1.0000
  O   O31       1.0  0.71100  0.03390  0.62200  1.0000
  O   O32       1.0  0.41100  0.58800  0.62200  1.0000
  O   O33       1.0  0.08860  0.21100  0.67700  1.0000
  O   O34       1.0  0.08830  0.46600  0.67700  1.0000
  O   O35       1.0  0.53400  0.12200  0.71100  1.0000
  O   O36       1.0  0.67700  0.58900  0.71100  1.0000
  O   O37       1.0  0.87800  0.46600  0.78900  1.0000
  O   O38       1.0  0.41100  0.32300  0.78900  1.0000
  O   O39       1.0  0.53400  0.91200  0.82300  1.0000
  O   O40       1.0  0.78900  0.91100  0.82300  1.0000
  O   O41       1.0  0.96600  0.28900  0.87800  1.0000
  O   O42       1.0  0.41200  0.58900  0.87800  1.0000
  O   O43       1.0  0.12200  0.08830  0.91100  1.0000
  O   O44       1.0  0.28900  0.82300  0.91100  1.0000
  O   O45       1.0  0.37800  0.08860  0.91200  1.0000
  O   O46       1.0  0.03390  0.82300  0.91200  1.0000
  O   O47       1.0  0.78900  0.37800  0.96600  1.0000
  O   O48       1.0  0.67700  0.58800  0.96600  1.0000
  Sc  Sc1       1.0  0.37500  0.25000  0.12500  1.0000
  Sc  Sc2       1.0  0.25000  0.87500  0.12500  1.0000
  Sc  Sc3       1.0  0.87500  0.12500  0.25000  1.0000
  Sc  Sc4       1.0  0.37500  0.62500  0.25000  1.0000
  Sc  Sc5       1.0  0.75000  0.62500  0.37500  1.0000
  Sc  Sc6       1.0  0.12500  0.75000  0.37500  1.0000
  Sc  Sc7       1.0  0.87500  0.25000  0.62500  1.0000
  Sc  Sc8       1.0  0.25000  0.37500  0.62500  1.0000
  Sc  Sc9       1.0  0.62500  0.37500  0.75000  1.0000
  Sc  Sc10      1.0  0.12500  0.87500  0.75000  1.0000
  Sc  Sc11      1.0  0.75000  0.12500  0.87500  1.0000
  Sc  Sc12      1.0  0.62500  0.75000  0.87500  1.0000
