data_image0
_chemical_formula_structural       AuF6O2
_chemical_formula_sum              "Au1 F6 O2"
_cell_length_a       4.64854
_cell_length_b       4.71307
_cell_length_c       4.69903
_cell_angle_alpha    102.26
_cell_angle_beta     92.2595
_cell_angle_gamma    102.401

_space_group_name_H-M_alt    "P 1"
_space_group_IT_number       1

loop_
  _space_group_symop_operation_xyz
  'x, y, z'

loop_
  _atom_site_type_symbol
  _atom_site_label
  _atom_site_symmetry_multiplicity
  _atom_site_fract_x
  _atom_site_fract_y
  _atom_site_fract_z
  _atom_site_occupancy
  Au  Au1       1.0  0.00000  0.00000  0.00000  1.0000
  F   F1        1.0  0.77000  0.62900  0.06940  1.0000
  F   F2        1.0  0.34900  0.96000  0.21100  1.0000
  F   F3        1.0  0.91800  0.23100  0.36800  1.0000
  F   F4        1.0  0.08220  0.76900  0.63200  1.0000
  F   F5        1.0  0.65100  0.03960  0.78900  1.0000
  F   F6        1.0  0.23000  0.37100  0.93100  1.0000
  O   O1        1.0  0.49400  0.60500  0.45500  1.0000
  O   O2        1.0  0.50600  0.39500  0.54500  1.0000
