data_image0
_chemical_formula_structural       H4O8S2
_chemical_formula_sum              "H4 O8 S2"
_cell_length_a       4.60216
_cell_length_b       4.60216
_cell_length_c       7.98156
_cell_angle_alpha    92.7285
_cell_angle_beta     103.158
_cell_angle_gamma    121.511

_space_group_name_H-M_alt    "P 1"
_space_group_IT_number       1

loop_
  _space_group_symop_operation_xyz
  'x, y, z'

loop_
  _atom_site_type_symbol
  _atom_site_label
  _atom_site_symmetry_multiplicity
  _atom_site_fract_x
  _atom_site_fract_y
  _atom_site_fract_z
  _atom_site_occupancy
  H   H1        1.0  0.34400  0.48600  0.13300  1.0000
  H   H2        1.0  0.85300  0.21100  0.36700  1.0000
  H   H3        1.0  0.14700  0.78900  0.63300  1.0000
  H   H4        1.0  0.65600  0.51400  0.86700  1.0000
  O   O1        1.0  0.36900  0.28300  0.10500  1.0000
  O   O2        1.0  0.23200  0.73400  0.17200  1.0000
  O   O3        1.0  0.06210  0.06060  0.32800  1.0000
  O   O4        1.0  0.67800  0.26400  0.39500  1.0000
  O   O5        1.0  0.32200  0.73600  0.60500  1.0000
  O   O6        1.0  0.93800  0.93900  0.67200  1.0000
  O   O7        1.0  0.76800  0.26600  0.82800  1.0000
  O   O8        1.0  0.63100  0.71700  0.89500  1.0000
  S   S1        1.0  0.31700  0.06650  0.25000  1.0000
  S   S2        1.0  0.68300  0.93300  0.75000  1.0000
