data_image0
_chemical_formula_structural       Al12Bi8Li12O48
_chemical_formula_sum              "Al12 Bi8 Li12 O48"
_cell_length_a       10.1723
_cell_length_b       10.1723
_cell_length_c       10.1723
_cell_angle_alpha    109.471
_cell_angle_beta     109.471
_cell_angle_gamma    109.471

_space_group_name_H-M_alt    "P 1"
_space_group_IT_number       1

loop_
  _space_group_symop_operation_xyz
  'x, y, z'

loop_
  _atom_site_type_symbol
  _atom_site_label
  _atom_site_symmetry_multiplicity
  _atom_site_fract_x
  _atom_site_fract_y
  _atom_site_fract_z
  _atom_site_occupancy
  Al  Al1       1.0  0.37500  0.25000  0.12500  1.0000
  Al  Al2       1.0  0.25000  0.87500  0.12500  1.0000
  Al  Al3       1.0  0.87500  0.12500  0.25000  1.0000
  Al  Al4       1.0  0.37500  0.62500  0.25000  1.0000
  Al  Al5       1.0  0.75000  0.62500  0.37500  1.0000
  Al  Al6       1.0  0.12500  0.75000  0.37500  1.0000
  Al  Al7       1.0  0.87500  0.25000  0.62500  1.0000
  Al  Al8       1.0  0.25000  0.37500  0.62500  1.0000
  Al  Al9       1.0  0.62500  0.37500  0.75000  1.0000
  Al  Al10      1.0  0.12500  0.87500  0.75000  1.0000
  Al  Al11      1.0  0.75000  0.12500  0.87500  1.0000
  Al  Al12      1.0  0.62500  0.75000  0.87500  1.0000
  Bi  Bi1       1.0  0.00000  0.00000  0.00000  1.0000
  Bi  Bi2       1.0  0.50000  0.00000  0.00000  1.0000
  Bi  Bi3       1.0  0.00000  0.50000  0.00000  1.0000
  Bi  Bi4       1.0  0.50000  0.50000  0.00000  1.0000
  Bi  Bi5       1.0  0.00000  0.00000  0.50000  1.0000
  Bi  Bi6       1.0  0.50000  0.00000  0.50000  1.0000
  Bi  Bi7       1.0  0.00000  0.50000  0.50000  1.0000
  Bi  Bi8       1.0  0.50000  0.50000  0.50000  1.0000
  Li  Li1       1.0  0.87500  0.75000  0.12500  1.0000
  Li  Li2       1.0  0.75000  0.37500  0.12500  1.0000
  Li  Li3       1.0  0.12500  0.37500  0.25000  1.0000
  Li  Li4       1.0  0.62500  0.87500  0.25000  1.0000
  Li  Li5       1.0  0.25000  0.12500  0.37500  1.0000
  Li  Li6       1.0  0.62500  0.25000  0.37500  1.0000
  Li  Li7       1.0  0.37500  0.75000  0.62500  1.0000
  Li  Li8       1.0  0.75000  0.87500  0.62500  1.0000
  Li  Li9       1.0  0.37500  0.12500  0.75000  1.0000
  Li  Li10      1.0  0.87500  0.62500  0.75000  1.0000
  Li  Li11      1.0  0.25000  0.62500  0.87500  1.0000
  Li  Li12      1.0  0.12500  0.25000  0.87500  1.0000
  O   O1        1.0  0.31600  0.42200  0.05480  1.0000
  O   O2        1.0  0.23900  0.63300  0.05480  1.0000
  O   O3        1.0  0.63300  0.89400  0.07810  1.0000
  O   O4        1.0  0.94500  0.18400  0.07810  1.0000
  O   O5        1.0  0.86700  0.92200  0.10600  1.0000
  O   O6        1.0  0.73900  0.18400  0.10600  1.0000
  O   O7        1.0  0.57800  0.39400  0.13300  1.0000
  O   O8        1.0  0.05480  0.73900  0.13300  1.0000
  O   O9        1.0  0.44500  0.07810  0.18400  1.0000
  O   O10       1.0  0.23900  0.10600  0.18400  1.0000
  O   O11       1.0  0.13300  0.55500  0.23900  1.0000
  O   O12       1.0  0.60600  0.68400  0.23900  1.0000
  O   O13       1.0  0.44500  0.86700  0.26100  1.0000
  O   O14       1.0  0.31600  0.39400  0.26100  1.0000
  O   O15       1.0  0.92200  0.55500  0.31600  1.0000
  O   O16       1.0  0.89400  0.76100  0.31600  1.0000
  O   O17       1.0  0.60600  0.42200  0.36700  1.0000
  O   O18       1.0  0.26100  0.94500  0.36700  1.0000
  O   O19       1.0  0.81600  0.26100  0.39400  1.0000
  O   O20       1.0  0.07810  0.13300  0.39400  1.0000
  O   O21       1.0  0.10600  0.36700  0.42200  1.0000
  O   O22       1.0  0.81600  0.05480  0.42200  1.0000
  O   O23       1.0  0.57800  0.68400  0.44500  1.0000
  O   O24       1.0  0.36700  0.76100  0.44500  1.0000
  O   O25       1.0  0.63300  0.23900  0.55500  1.0000
  O   O26       1.0  0.42200  0.31600  0.55500  1.0000
  O   O27       1.0  0.18400  0.94500  0.57800  1.0000
  O   O28       1.0  0.89400  0.63300  0.57800  1.0000
  O   O29       1.0  0.92200  0.86700  0.60600  1.0000
  O   O30       1.0  0.18400  0.73900  0.60600  1.0000
  O   O31       1.0  0.73900  0.05480  0.63300  1.0000
  O   O32       1.0  0.39400  0.57800  0.63300  1.0000
  O   O33       1.0  0.10600  0.23900  0.68400  1.0000
  O   O34       1.0  0.07810  0.44500  0.68400  1.0000
  O   O35       1.0  0.55500  0.13300  0.73900  1.0000
  O   O36       1.0  0.68400  0.60600  0.73900  1.0000
  O   O37       1.0  0.39400  0.31600  0.76100  1.0000
  O   O38       1.0  0.86700  0.44500  0.76100  1.0000
  O   O39       1.0  0.76100  0.89400  0.81600  1.0000
  O   O40       1.0  0.55500  0.92200  0.81600  1.0000
  O   O41       1.0  0.42200  0.60600  0.86700  1.0000
  O   O42       1.0  0.94500  0.26100  0.86700  1.0000
  O   O43       1.0  0.13300  0.07810  0.89400  1.0000
  O   O44       1.0  0.26100  0.81600  0.89400  1.0000
  O   O45       1.0  0.05480  0.81600  0.92200  1.0000
  O   O46       1.0  0.36700  0.10600  0.92200  1.0000
  O   O47       1.0  0.76100  0.36700  0.94500  1.0000
  O   O48       1.0  0.68400  0.57800  0.94500  1.0000
