data_image0
_chemical_formula_structural       O12V4Y4
_chemical_formula_sum              "O12 V4 Y4"
_cell_length_a       5.67239
_cell_length_b       5.25059
_cell_length_c       7.52574
_cell_angle_alpha    90
_cell_angle_beta     90.0323
_cell_angle_gamma    90

_space_group_name_H-M_alt    "P 1"
_space_group_IT_number       1

loop_
  _space_group_symop_operation_xyz
  'x, y, z'

loop_
  _atom_site_type_symbol
  _atom_site_label
  _atom_site_symmetry_multiplicity
  _atom_site_fract_x
  _atom_site_fract_y
  _atom_site_fract_z
  _atom_site_occupancy
  O   O1        1.0  0.69800  0.31800  0.55900  1.0000
  O   O2        1.0  0.80200  0.81800  0.44100  1.0000
  O   O3        1.0  0.30200  0.68200  0.44100  1.0000
  O   O4        1.0  0.19800  0.18200  0.55900  1.0000
  O   O5        1.0  0.31200  0.69000  0.05700  1.0000
  O   O6        1.0  0.18800  0.19000  0.94300  1.0000
  O   O7        1.0  0.68800  0.31000  0.94300  1.0000
  O   O8        1.0  0.81200  0.81000  0.05700  1.0000
  O   O9        1.0  0.45900  0.11600  0.25000  1.0000
  O   O10       1.0  0.04130  0.61600  0.75000  1.0000
  O   O11       1.0  0.54100  0.88400  0.75000  1.0000
  O   O12       1.0  0.95900  0.38400  0.25000  1.0000
  V   V1        1.0  0.50000  0.00000  0.00000  1.0000
  V   V2        1.0  0.00000  0.50000  0.00000  1.0000
  V   V3        1.0  0.00000  0.50000  0.50000  1.0000
  V   V4        1.0  0.50000  0.00000  0.50000  1.0000
  Y   Y1        1.0  0.07360  0.97700  0.25000  1.0000
  Y   Y2        1.0  0.42600  0.47700  0.75000  1.0000
  Y   Y3        1.0  0.92600  0.02270  0.75000  1.0000
  Y   Y4        1.0  0.57400  0.52300  0.25000  1.0000
