data_image0
_chemical_formula_structural       Bi2C2CaO8
_chemical_formula_sum              "Bi2 C2 Ca1 O8"
_cell_length_a       3.30767
_cell_length_b       4.50426
_cell_length_c       11.232
_cell_angle_alpha    101.567
_cell_angle_beta     98.4672
_cell_angle_gamma    90

_space_group_name_H-M_alt    "P 1"
_space_group_IT_number       1

loop_
  _space_group_symop_operation_xyz
  'x, y, z'

loop_
  _atom_site_type_symbol
  _atom_site_label
  _atom_site_symmetry_multiplicity
  _atom_site_fract_x
  _atom_site_fract_y
  _atom_site_fract_z
  _atom_site_occupancy
  Bi  Bi1       1.0  0.68900  0.68900  0.37900  1.0000
  Bi  Bi2       1.0  0.31100  0.31100  0.62100  1.0000
  C   C1        1.0  0.09170  0.09170  0.18300  1.0000
  C   C2        1.0  0.90800  0.90800  0.81700  1.0000
  Ca  Ca1       1.0  0.50000  0.50000  0.00000  1.0000
  O   O1        1.0  0.06360  0.31100  0.12700  1.0000
  O   O2        1.0  0.06360  0.81600  0.12700  1.0000
  O   O3        1.0  0.15200  0.15200  0.30500  1.0000
  O   O4        1.0  0.74600  0.24600  0.49100  1.0000
  O   O5        1.0  0.25400  0.75400  0.50900  1.0000
  O   O6        1.0  0.84800  0.84800  0.69500  1.0000
  O   O7        1.0  0.93600  0.18400  0.87300  1.0000
  O   O8        1.0  0.93600  0.68900  0.87300  1.0000
