data_image0
_chemical_formula_structural       Li12O48V12W8
_chemical_formula_sum              "Li12 O48 V12 W8"
_cell_length_a       10.0606
_cell_length_b       10.0606
_cell_length_c       10.0606
_cell_angle_alpha    109.471
_cell_angle_beta     109.471
_cell_angle_gamma    109.471

_space_group_name_H-M_alt    "P 1"
_space_group_IT_number       1

loop_
  _space_group_symop_operation_xyz
  'x, y, z'

loop_
  _atom_site_type_symbol
  _atom_site_label
  _atom_site_symmetry_multiplicity
  _atom_site_fract_x
  _atom_site_fract_y
  _atom_site_fract_z
  _atom_site_occupancy
  Li  Li1       1.0  0.87500  0.75000  0.12500  1.0000
  Li  Li2       1.0  0.75000  0.37500  0.12500  1.0000
  Li  Li3       1.0  0.12500  0.37500  0.25000  1.0000
  Li  Li4       1.0  0.62500  0.87500  0.25000  1.0000
  Li  Li5       1.0  0.62500  0.25000  0.37500  1.0000
  Li  Li6       1.0  0.25000  0.12500  0.37500  1.0000
  Li  Li7       1.0  0.75000  0.87500  0.62500  1.0000
  Li  Li8       1.0  0.37500  0.75000  0.62500  1.0000
  Li  Li9       1.0  0.37500  0.12500  0.75000  1.0000
  Li  Li10      1.0  0.87500  0.62500  0.75000  1.0000
  Li  Li11      1.0  0.12500  0.25000  0.87500  1.0000
  Li  Li12      1.0  0.25000  0.62500  0.87500  1.0000
  O   O1        1.0  0.32200  0.41500  0.03720  1.0000
  O   O2        1.0  0.21500  0.62200  0.03720  1.0000
  O   O3        1.0  0.96300  0.17800  0.08500  1.0000
  O   O4        1.0  0.62200  0.90700  0.08500  1.0000
  O   O5        1.0  0.71500  0.17800  0.09310  1.0000
  O   O6        1.0  0.87800  0.91500  0.09310  1.0000
  O   O7        1.0  0.58500  0.40700  0.12200  1.0000
  O   O8        1.0  0.03720  0.71500  0.12200  1.0000
  O   O9        1.0  0.21500  0.09310  0.17800  1.0000
  O   O10       1.0  0.46300  0.08500  0.17800  1.0000
  O   O11       1.0  0.12200  0.53700  0.21500  1.0000
  O   O12       1.0  0.59300  0.67800  0.21500  1.0000
  O   O13       1.0  0.32200  0.40700  0.28500  1.0000
  O   O14       1.0  0.46300  0.87800  0.28500  1.0000
  O   O15       1.0  0.90700  0.78500  0.32200  1.0000
  O   O16       1.0  0.91500  0.53700  0.32200  1.0000
  O   O17       1.0  0.28500  0.96300  0.37800  1.0000
  O   O18       1.0  0.59300  0.41500  0.37800  1.0000
  O   O19       1.0  0.08500  0.12200  0.40700  1.0000
  O   O20       1.0  0.82200  0.28500  0.40700  1.0000
  O   O21       1.0  0.82200  0.03720  0.41500  1.0000
  O   O22       1.0  0.09310  0.37800  0.41500  1.0000
  O   O23       1.0  0.37800  0.78500  0.46300  1.0000
  O   O24       1.0  0.58500  0.67800  0.46300  1.0000
  O   O25       1.0  0.41500  0.32200  0.53700  1.0000
  O   O26       1.0  0.62200  0.21500  0.53700  1.0000
  O   O27       1.0  0.90700  0.62200  0.58500  1.0000
  O   O28       1.0  0.17800  0.96300  0.58500  1.0000
  O   O29       1.0  0.17800  0.71500  0.59300  1.0000
  O   O30       1.0  0.91500  0.87800  0.59300  1.0000
  O   O31       1.0  0.71500  0.03720  0.62200  1.0000
  O   O32       1.0  0.40700  0.58500  0.62200  1.0000
  O   O33       1.0  0.08500  0.46300  0.67800  1.0000
  O   O34       1.0  0.09310  0.21500  0.67800  1.0000
  O   O35       1.0  0.53700  0.12200  0.71500  1.0000
  O   O36       1.0  0.67800  0.59300  0.71500  1.0000
  O   O37       1.0  0.40700  0.32200  0.78500  1.0000
  O   O38       1.0  0.87800  0.46300  0.78500  1.0000
  O   O39       1.0  0.53700  0.91500  0.82200  1.0000
  O   O40       1.0  0.78500  0.90700  0.82200  1.0000
  O   O41       1.0  0.41500  0.59300  0.87800  1.0000
  O   O42       1.0  0.96300  0.28500  0.87800  1.0000
  O   O43       1.0  0.12200  0.08500  0.90700  1.0000
  O   O44       1.0  0.28500  0.82200  0.90700  1.0000
  O   O45       1.0  0.37800  0.09310  0.91500  1.0000
  O   O46       1.0  0.03720  0.82200  0.91500  1.0000
  O   O47       1.0  0.67800  0.58500  0.96300  1.0000
  O   O48       1.0  0.78500  0.37800  0.96300  1.0000
  V   V1        1.0  0.25000  0.87500  0.12500  1.0000
  V   V2        1.0  0.37500  0.25000  0.12500  1.0000
  V   V3        1.0  0.87500  0.12500  0.25000  1.0000
  V   V4        1.0  0.37500  0.62500  0.25000  1.0000
  V   V5        1.0  0.12500  0.75000  0.37500  1.0000
  V   V6        1.0  0.75000  0.62500  0.37500  1.0000
  V   V7        1.0  0.87500  0.25000  0.62500  1.0000
  V   V8        1.0  0.25000  0.37500  0.62500  1.0000
  V   V9        1.0  0.12500  0.87500  0.75000  1.0000
  V   V10       1.0  0.62500  0.37500  0.75000  1.0000
  V   V11       1.0  0.62500  0.75000  0.87500  1.0000
  V   V12       1.0  0.75000  0.12500  0.87500  1.0000
  W   W1        1.0  0.00000  0.00000  0.00000  1.0000
  W   W2        1.0  0.50000  0.00000  0.00000  1.0000
  W   W3        1.0  0.50000  0.50000  0.00000  1.0000
  W   W4        1.0  0.00000  0.50000  0.00000  1.0000
  W   W5        1.0  0.50000  0.00000  0.50000  1.0000
  W   W6        1.0  0.00000  0.50000  0.50000  1.0000
  W   W7        1.0  0.00000  0.00000  0.50000  1.0000
  W   W8        1.0  0.50000  0.50000  0.50000  1.0000
