data_image0
_chemical_formula_structural       Li12O48Ta8Ti12
_chemical_formula_sum              "Li12 O48 Ta8 Ti12"
_cell_length_a       10.0107
_cell_length_b       10.0107
_cell_length_c       10.0107
_cell_angle_alpha    109.471
_cell_angle_beta     109.471
_cell_angle_gamma    109.471

_space_group_name_H-M_alt    "P 1"
_space_group_IT_number       1

loop_
  _space_group_symop_operation_xyz
  'x, y, z'

loop_
  _atom_site_type_symbol
  _atom_site_label
  _atom_site_symmetry_multiplicity
  _atom_site_fract_x
  _atom_site_fract_y
  _atom_site_fract_z
  _atom_site_occupancy
  Li  Li1       1.0  0.75000  0.37500  0.12500  1.0000
  Li  Li2       1.0  0.87500  0.75000  0.12500  1.0000
  Li  Li3       1.0  0.12500  0.37500  0.25000  1.0000
  Li  Li4       1.0  0.62500  0.87500  0.25000  1.0000
  Li  Li5       1.0  0.25000  0.12500  0.37500  1.0000
  Li  Li6       1.0  0.62500  0.25000  0.37500  1.0000
  Li  Li7       1.0  0.75000  0.87500  0.62500  1.0000
  Li  Li8       1.0  0.37500  0.75000  0.62500  1.0000
  Li  Li9       1.0  0.37500  0.12500  0.75000  1.0000
  Li  Li10      1.0  0.87500  0.62500  0.75000  1.0000
  Li  Li11      1.0  0.12500  0.25000  0.87500  1.0000
  Li  Li12      1.0  0.25000  0.62500  0.87500  1.0000
  O   O1        1.0  0.31900  0.41500  0.04340  1.0000
  O   O2        1.0  0.22400  0.62900  0.04340  1.0000
  O   O3        1.0  0.62900  0.90500  0.08520  1.0000
  O   O4        1.0  0.95700  0.18100  0.08520  1.0000
  O   O5        1.0  0.87100  0.91500  0.09540  1.0000
  O   O6        1.0  0.72400  0.18100  0.09540  1.0000
  O   O7        1.0  0.04340  0.72400  0.12900  1.0000
  O   O8        1.0  0.58500  0.40500  0.12900  1.0000
  O   O9        1.0  0.22400  0.09540  0.18100  1.0000
  O   O10       1.0  0.45700  0.08520  0.18100  1.0000
  O   O11       1.0  0.59500  0.68100  0.22400  1.0000
  O   O12       1.0  0.12900  0.54300  0.22400  1.0000
  O   O13       1.0  0.31900  0.40500  0.27600  1.0000
  O   O14       1.0  0.45700  0.87100  0.27600  1.0000
  O   O15       1.0  0.91500  0.54300  0.31900  1.0000
  O   O16       1.0  0.90500  0.77600  0.31900  1.0000
  O   O17       1.0  0.59500  0.41500  0.37100  1.0000
  O   O18       1.0  0.27600  0.95700  0.37100  1.0000
  O   O19       1.0  0.08520  0.12900  0.40500  1.0000
  O   O20       1.0  0.81900  0.27600  0.40500  1.0000
  O   O21       1.0  0.09540  0.37100  0.41500  1.0000
  O   O22       1.0  0.81900  0.04340  0.41500  1.0000
  O   O23       1.0  0.37100  0.77600  0.45700  1.0000
  O   O24       1.0  0.58500  0.68100  0.45700  1.0000
  O   O25       1.0  0.62900  0.22400  0.54300  1.0000
  O   O26       1.0  0.41500  0.31900  0.54300  1.0000
  O   O27       1.0  0.90500  0.62900  0.58500  1.0000
  O   O28       1.0  0.18100  0.95700  0.58500  1.0000
  O   O29       1.0  0.18100  0.72400  0.59500  1.0000
  O   O30       1.0  0.91500  0.87100  0.59500  1.0000
  O   O31       1.0  0.40500  0.58500  0.62900  1.0000
  O   O32       1.0  0.72400  0.04340  0.62900  1.0000
  O   O33       1.0  0.09540  0.22400  0.68100  1.0000
  O   O34       1.0  0.08520  0.45700  0.68100  1.0000
  O   O35       1.0  0.68100  0.59500  0.72400  1.0000
  O   O36       1.0  0.54300  0.12900  0.72400  1.0000
  O   O37       1.0  0.40500  0.31900  0.77600  1.0000
  O   O38       1.0  0.87100  0.45700  0.77600  1.0000
  O   O39       1.0  0.77600  0.90500  0.81900  1.0000
  O   O40       1.0  0.54300  0.91500  0.81900  1.0000
  O   O41       1.0  0.95700  0.27600  0.87100  1.0000
  O   O42       1.0  0.41500  0.59500  0.87100  1.0000
  O   O43       1.0  0.12900  0.08520  0.90500  1.0000
  O   O44       1.0  0.27600  0.81900  0.90500  1.0000
  O   O45       1.0  0.37100  0.09540  0.91500  1.0000
  O   O46       1.0  0.04340  0.81900  0.91500  1.0000
  O   O47       1.0  0.68100  0.58500  0.95700  1.0000
  O   O48       1.0  0.77600  0.37100  0.95700  1.0000
  Ta  Ta1       1.0  0.00000  0.00000  0.00000  1.0000
  Ta  Ta2       1.0  0.50000  0.00000  0.00000  1.0000
  Ta  Ta3       1.0  0.00000  0.50000  0.00000  1.0000
  Ta  Ta4       1.0  0.50000  0.50000  0.00000  1.0000
  Ta  Ta5       1.0  0.00000  0.00000  0.50000  1.0000
  Ta  Ta6       1.0  0.50000  0.50000  0.50000  1.0000
  Ta  Ta7       1.0  0.50000  0.00000  0.50000  1.0000
  Ta  Ta8       1.0  0.00000  0.50000  0.50000  1.0000
  Ti  Ti1       1.0  0.37500  0.25000  0.12500  1.0000
  Ti  Ti2       1.0  0.25000  0.87500  0.12500  1.0000
  Ti  Ti3       1.0  0.37500  0.62500  0.25000  1.0000
  Ti  Ti4       1.0  0.87500  0.12500  0.25000  1.0000
  Ti  Ti5       1.0  0.75000  0.62500  0.37500  1.0000
  Ti  Ti6       1.0  0.12500  0.75000  0.37500  1.0000
  Ti  Ti7       1.0  0.25000  0.37500  0.62500  1.0000
  Ti  Ti8       1.0  0.87500  0.25000  0.62500  1.0000
  Ti  Ti9       1.0  0.62500  0.37500  0.75000  1.0000
  Ti  Ti10      1.0  0.12500  0.87500  0.75000  1.0000
  Ti  Ti11      1.0  0.75000  0.12500  0.87500  1.0000
  Ti  Ti12      1.0  0.62500  0.75000  0.87500  1.0000
