data_image0
_chemical_formula_structural       Cr8Li12Nd12O48
_chemical_formula_sum              "Cr8 Li12 Nd12 O48"
_cell_length_a       10.5695
_cell_length_b       10.5695
_cell_length_c       10.5695
_cell_angle_alpha    109.471
_cell_angle_beta     109.471
_cell_angle_gamma    109.471

_space_group_name_H-M_alt    "P 1"
_space_group_IT_number       1

loop_
  _space_group_symop_operation_xyz
  'x, y, z'

loop_
  _atom_site_type_symbol
  _atom_site_label
  _atom_site_symmetry_multiplicity
  _atom_site_fract_x
  _atom_site_fract_y
  _atom_site_fract_z
  _atom_site_occupancy
  Cr  Cr1       1.0  0.00000  0.00000  0.00000  1.0000
  Cr  Cr2       1.0  0.50000  0.00000  0.00000  1.0000
  Cr  Cr3       1.0  0.00000  0.50000  0.00000  1.0000
  Cr  Cr4       1.0  0.50000  0.50000  0.00000  1.0000
  Cr  Cr5       1.0  0.00000  0.00000  0.50000  1.0000
  Cr  Cr6       1.0  0.50000  0.50000  0.50000  1.0000
  Cr  Cr7       1.0  0.50000  0.00000  0.50000  1.0000
  Cr  Cr8       1.0  0.00000  0.50000  0.50000  1.0000
  Li  Li1       1.0  0.75000  0.37500  0.12500  1.0000
  Li  Li2       1.0  0.87500  0.75000  0.12500  1.0000
  Li  Li3       1.0  0.12500  0.37500  0.25000  1.0000
  Li  Li4       1.0  0.62500  0.87500  0.25000  1.0000
  Li  Li5       1.0  0.25000  0.12500  0.37500  1.0000
  Li  Li6       1.0  0.62500  0.25000  0.37500  1.0000
  Li  Li7       1.0  0.75000  0.87500  0.62500  1.0000
  Li  Li8       1.0  0.37500  0.75000  0.62500  1.0000
  Li  Li9       1.0  0.37500  0.12500  0.75000  1.0000
  Li  Li10      1.0  0.87500  0.62500  0.75000  1.0000
  Li  Li11      1.0  0.12500  0.25000  0.87500  1.0000
  Li  Li12      1.0  0.25000  0.62500  0.87500  1.0000
  Nd  Nd1       1.0  0.25000  0.87500  0.12500  1.0000
  Nd  Nd2       1.0  0.37500  0.25000  0.12500  1.0000
  Nd  Nd3       1.0  0.37500  0.62500  0.25000  1.0000
  Nd  Nd4       1.0  0.87500  0.12500  0.25000  1.0000
  Nd  Nd5       1.0  0.75000  0.62500  0.37500  1.0000
  Nd  Nd6       1.0  0.12500  0.75000  0.37500  1.0000
  Nd  Nd7       1.0  0.25000  0.37500  0.62500  1.0000
  Nd  Nd8       1.0  0.87500  0.25000  0.62500  1.0000
  Nd  Nd9       1.0  0.62500  0.37500  0.75000  1.0000
  Nd  Nd10      1.0  0.12500  0.87500  0.75000  1.0000
  Nd  Nd11      1.0  0.75000  0.12500  0.87500  1.0000
  Nd  Nd12      1.0  0.62500  0.75000  0.87500  1.0000
  O   O1        1.0  0.19000  0.60900  0.02050  1.0000
  O   O2        1.0  0.33000  0.41100  0.02050  1.0000
  O   O3        1.0  0.89100  0.91100  0.08120  1.0000
  O   O4        1.0  0.69000  0.17000  0.08120  1.0000
  O   O5        1.0  0.60900  0.91900  0.08860  1.0000
  O   O6        1.0  0.98000  0.17000  0.08860  1.0000
  O   O7        1.0  0.02050  0.69000  0.10900  1.0000
  O   O8        1.0  0.58900  0.41900  0.10900  1.0000
  O   O9        1.0  0.48000  0.08860  0.17000  1.0000
  O   O10       1.0  0.19000  0.08120  0.17000  1.0000
  O   O11       1.0  0.10900  0.52000  0.19000  1.0000
  O   O12       1.0  0.58100  0.67000  0.19000  1.0000
  O   O13       1.0  0.33000  0.41900  0.31000  1.0000
  O   O14       1.0  0.48000  0.89100  0.31000  1.0000
  O   O15       1.0  0.91100  0.52000  0.33000  1.0000
  O   O16       1.0  0.91900  0.81000  0.33000  1.0000
  O   O17       1.0  0.58100  0.41100  0.39100  1.0000
  O   O18       1.0  0.31000  0.98000  0.39100  1.0000
  O   O19       1.0  0.08120  0.39100  0.41100  1.0000
  O   O20       1.0  0.83000  0.02050  0.41100  1.0000
  O   O21       1.0  0.08860  0.10900  0.41900  1.0000
  O   O22       1.0  0.83000  0.31000  0.41900  1.0000
  O   O23       1.0  0.58900  0.67000  0.48000  1.0000
  O   O24       1.0  0.39100  0.81000  0.48000  1.0000
  O   O25       1.0  0.60900  0.19000  0.52000  1.0000
  O   O26       1.0  0.41100  0.33000  0.52000  1.0000
  O   O27       1.0  0.17000  0.69000  0.58100  1.0000
  O   O28       1.0  0.91100  0.89100  0.58100  1.0000
  O   O29       1.0  0.17000  0.98000  0.58900  1.0000
  O   O30       1.0  0.91900  0.60900  0.58900  1.0000
  O   O31       1.0  0.41900  0.58900  0.60900  1.0000
  O   O32       1.0  0.69000  0.02050  0.60900  1.0000
  O   O33       1.0  0.08120  0.19000  0.67000  1.0000
  O   O34       1.0  0.08860  0.48000  0.67000  1.0000
  O   O35       1.0  0.67000  0.58100  0.69000  1.0000
  O   O36       1.0  0.52000  0.10900  0.69000  1.0000
  O   O37       1.0  0.89100  0.48000  0.81000  1.0000
  O   O38       1.0  0.41900  0.33000  0.81000  1.0000
  O   O39       1.0  0.52000  0.91100  0.83000  1.0000
  O   O40       1.0  0.81000  0.91900  0.83000  1.0000
  O   O41       1.0  0.41100  0.58100  0.89100  1.0000
  O   O42       1.0  0.98000  0.31000  0.89100  1.0000
  O   O43       1.0  0.39100  0.08120  0.91100  1.0000
  O   O44       1.0  0.02050  0.83000  0.91100  1.0000
  O   O45       1.0  0.31000  0.83000  0.91900  1.0000
  O   O46       1.0  0.10900  0.08860  0.91900  1.0000
  O   O47       1.0  0.81000  0.39100  0.98000  1.0000
  O   O48       1.0  0.67000  0.58900  0.98000  1.0000
