data_image0
_chemical_formula_structural       Ce8Ru6
_chemical_formula_sum              "Ce8 Ru6"
_cell_length_a       6.20567
_cell_length_b       7.7297
_cell_length_c       8.79977
_cell_angle_alpha    110.421
_cell_angle_beta     103.895
_cell_angle_gamma    104.837

_space_group_name_H-M_alt    "P 1"
_space_group_IT_number       1

loop_
  _space_group_symop_operation_xyz
  'x, y, z'

loop_
  _atom_site_type_symbol
  _atom_site_label
  _atom_site_symmetry_multiplicity
  _atom_site_fract_x
  _atom_site_fract_y
  _atom_site_fract_z
  _atom_site_occupancy
  Ce  Ce1       1.0  0.38000  0.68300  1.00000  1.0000
  Ce  Ce2       1.0  0.62000  0.31700  0.00000  1.0000
  Ce  Ce3       1.0  0.04950  0.88300  0.27900  1.0000
  Ce  Ce4       1.0  0.22900  0.39600  0.27900  1.0000
  Ce  Ce5       1.0  0.67100  0.17100  0.34200  1.0000
  Ce  Ce6       1.0  0.32900  0.82900  0.65800  1.0000
  Ce  Ce7       1.0  0.77100  0.60400  0.72100  1.0000
  Ce  Ce8       1.0  0.95000  0.11700  0.72100  1.0000
  Ru  Ru1       1.0  0.78100  0.99600  1.00000  1.0000
  Ru  Ru2       1.0  0.21900  0.00412  0.00000  1.0000
  Ru  Ru3       1.0  0.57300  0.80400  0.39600  1.0000
  Ru  Ru4       1.0  0.82200  0.59100  0.39600  1.0000
  Ru  Ru5       1.0  0.17800  0.40900  0.60400  1.0000
  Ru  Ru6       1.0  0.42700  0.19600  0.60400  1.0000
