data_image0
_chemical_formula_structural       Cr12Li12Nb8O48
_chemical_formula_sum              "Cr12 Li12 Nb8 O48"
_cell_length_a       10.0519
_cell_length_b       10.0519
_cell_length_c       10.0519
_cell_angle_alpha    109.471
_cell_angle_beta     109.471
_cell_angle_gamma    109.471

_space_group_name_H-M_alt    "P 1"
_space_group_IT_number       1

loop_
  _space_group_symop_operation_xyz
  'x, y, z'

loop_
  _atom_site_type_symbol
  _atom_site_label
  _atom_site_symmetry_multiplicity
  _atom_site_fract_x
  _atom_site_fract_y
  _atom_site_fract_z
  _atom_site_occupancy
  Cr  Cr1       1.0  0.25000  0.87500  0.12500  1.0000
  Cr  Cr2       1.0  0.37500  0.25000  0.12500  1.0000
  Cr  Cr3       1.0  0.87500  0.12500  0.25000  1.0000
  Cr  Cr4       1.0  0.37500  0.62500  0.25000  1.0000
  Cr  Cr5       1.0  0.75000  0.62500  0.37500  1.0000
  Cr  Cr6       1.0  0.12500  0.75000  0.37500  1.0000
  Cr  Cr7       1.0  0.87500  0.25000  0.62500  1.0000
  Cr  Cr8       1.0  0.25000  0.37500  0.62500  1.0000
  Cr  Cr9       1.0  0.62500  0.37500  0.75000  1.0000
  Cr  Cr10      1.0  0.12500  0.87500  0.75000  1.0000
  Cr  Cr11      1.0  0.62500  0.75000  0.87500  1.0000
  Cr  Cr12      1.0  0.75000  0.12500  0.87500  1.0000
  Li  Li1       1.0  0.87500  0.75000  0.12500  1.0000
  Li  Li2       1.0  0.75000  0.37500  0.12500  1.0000
  Li  Li3       1.0  0.12500  0.37500  0.25000  1.0000
  Li  Li4       1.0  0.62500  0.87500  0.25000  1.0000
  Li  Li5       1.0  0.62500  0.25000  0.37500  1.0000
  Li  Li6       1.0  0.25000  0.12500  0.37500  1.0000
  Li  Li7       1.0  0.37500  0.75000  0.62500  1.0000
  Li  Li8       1.0  0.75000  0.87500  0.62500  1.0000
  Li  Li9       1.0  0.37500  0.12500  0.75000  1.0000
  Li  Li10      1.0  0.87500  0.62500  0.75000  1.0000
  Li  Li11      1.0  0.12500  0.25000  0.87500  1.0000
  Li  Li12      1.0  0.25000  0.62500  0.87500  1.0000
  Nb  Nb1       1.0  0.00000  0.00000  0.00000  1.0000
  Nb  Nb2       1.0  0.50000  0.00000  0.00000  1.0000
  Nb  Nb3       1.0  0.50000  0.50000  0.00000  1.0000
  Nb  Nb4       1.0  0.00000  0.50000  0.00000  1.0000
  Nb  Nb5       1.0  0.50000  0.00000  0.50000  1.0000
  Nb  Nb6       1.0  0.00000  0.50000  0.50000  1.0000
  Nb  Nb7       1.0  0.00000  0.00000  0.50000  1.0000
  Nb  Nb8       1.0  0.50000  0.50000  0.50000  1.0000
  O   O1        1.0  0.22600  0.62600  0.04520  1.0000
  O   O2        1.0  0.31900  0.41900  0.04520  1.0000
  O   O3        1.0  0.62600  0.90000  0.08130  1.0000
  O   O4        1.0  0.95500  0.18100  0.08130  1.0000
  O   O5        1.0  0.72600  0.18100  0.09960  1.0000
  O   O6        1.0  0.87400  0.91900  0.09960  1.0000
  O   O7        1.0  0.04520  0.72600  0.12600  1.0000
  O   O8        1.0  0.58100  0.40000  0.12600  1.0000
  O   O9        1.0  0.45500  0.08130  0.18100  1.0000
  O   O10       1.0  0.22600  0.09960  0.18100  1.0000
  O   O11       1.0  0.12600  0.54500  0.22600  1.0000
  O   O12       1.0  0.60000  0.68100  0.22600  1.0000
  O   O13       1.0  0.45500  0.87400  0.27400  1.0000
  O   O14       1.0  0.31900  0.40000  0.27400  1.0000
  O   O15       1.0  0.91900  0.54500  0.31900  1.0000
  O   O16       1.0  0.90000  0.77400  0.31900  1.0000
  O   O17       1.0  0.27400  0.95500  0.37400  1.0000
  O   O18       1.0  0.60000  0.41900  0.37400  1.0000
  O   O19       1.0  0.81900  0.27400  0.40000  1.0000
  O   O20       1.0  0.08130  0.12600  0.40000  1.0000
  O   O21       1.0  0.09960  0.37400  0.41900  1.0000
  O   O22       1.0  0.81900  0.04520  0.41900  1.0000
  O   O23       1.0  0.37400  0.77400  0.45500  1.0000
  O   O24       1.0  0.58100  0.68100  0.45500  1.0000
  O   O25       1.0  0.41900  0.31900  0.54500  1.0000
  O   O26       1.0  0.62600  0.22600  0.54500  1.0000
  O   O27       1.0  0.90000  0.62600  0.58100  1.0000
  O   O28       1.0  0.18100  0.95500  0.58100  1.0000
  O   O29       1.0  0.18100  0.72600  0.60000  1.0000
  O   O30       1.0  0.91900  0.87400  0.60000  1.0000
  O   O31       1.0  0.72600  0.04520  0.62600  1.0000
  O   O32       1.0  0.40000  0.58100  0.62600  1.0000
  O   O33       1.0  0.09960  0.22600  0.68100  1.0000
  O   O34       1.0  0.08130  0.45500  0.68100  1.0000
  O   O35       1.0  0.68100  0.60000  0.72600  1.0000
  O   O36       1.0  0.54500  0.12600  0.72600  1.0000
  O   O37       1.0  0.40000  0.31900  0.77400  1.0000
  O   O38       1.0  0.87400  0.45500  0.77400  1.0000
  O   O39       1.0  0.77400  0.90000  0.81900  1.0000
  O   O40       1.0  0.54500  0.91900  0.81900  1.0000
  O   O41       1.0  0.41900  0.60000  0.87400  1.0000
  O   O42       1.0  0.95500  0.27400  0.87400  1.0000
  O   O43       1.0  0.12600  0.08130  0.90000  1.0000
  O   O44       1.0  0.27400  0.81900  0.90000  1.0000
  O   O45       1.0  0.37400  0.09960  0.91900  1.0000
  O   O46       1.0  0.04520  0.81900  0.91900  1.0000
  O   O47       1.0  0.68100  0.58100  0.95500  1.0000
  O   O48       1.0  0.77400  0.37400  0.95500  1.0000
