data_image0
_chemical_formula_structural       N4Np6
_chemical_formula_sum              "N4 Np6"
_cell_length_a       5.9224
_cell_length_b       5.9224
_cell_length_c       6.57645
_cell_angle_alpha    116.761
_cell_angle_beta     63.2388
_cell_angle_gamma    120

_space_group_name_H-M_alt    "P 1"
_space_group_IT_number       1

loop_
  _space_group_symop_operation_xyz
  'x, y, z'

loop_
  _atom_site_type_symbol
  _atom_site_label
  _atom_site_symmetry_multiplicity
  _atom_site_fract_x
  _atom_site_fract_y
  _atom_site_fract_z
  _atom_site_occupancy
  N   N1        1.0  0.66300  0.33700  0.01080  1.0000
  N   N2        1.0  0.83700  0.16300  0.48900  1.0000
  N   N3        1.0  0.16300  0.83700  0.51100  1.0000
  N   N4        1.0  0.33700  0.66300  0.98900  1.0000
  Np  Np1       1.0  0.25000  0.07650  0.25000  1.0000
  Np  Np2       1.0  0.92400  0.42400  0.25000  1.0000
  Np  Np3       1.0  0.57600  0.75000  0.25000  1.0000
  Np  Np4       1.0  0.42400  0.25000  0.75000  1.0000
  Np  Np5       1.0  0.07650  0.57600  0.75000  1.0000
  Np  Np6       1.0  0.75000  0.92400  0.75000  1.0000
