data_image0
_chemical_formula_structural       Li12Nd12O48Se8
_chemical_formula_sum              "Li12 Nd12 O48 Se8"
_cell_length_a       10.6608
_cell_length_b       10.6608
_cell_length_c       10.6608
_cell_angle_alpha    109.471
_cell_angle_beta     109.471
_cell_angle_gamma    109.471

_space_group_name_H-M_alt    "P 1"
_space_group_IT_number       1

loop_
  _space_group_symop_operation_xyz
  'x, y, z'

loop_
  _atom_site_type_symbol
  _atom_site_label
  _atom_site_symmetry_multiplicity
  _atom_site_fract_x
  _atom_site_fract_y
  _atom_site_fract_z
  _atom_site_occupancy
  Li  Li1       1.0  0.75000  0.37500  0.12500  1.0000
  Li  Li2       1.0  0.87500  0.75000  0.12500  1.0000
  Li  Li3       1.0  0.12500  0.37500  0.25000  1.0000
  Li  Li4       1.0  0.62500  0.87500  0.25000  1.0000
  Li  Li5       1.0  0.25000  0.12500  0.37500  1.0000
  Li  Li6       1.0  0.62500  0.25000  0.37500  1.0000
  Li  Li7       1.0  0.37500  0.75000  0.62500  1.0000
  Li  Li8       1.0  0.75000  0.87500  0.62500  1.0000
  Li  Li9       1.0  0.37500  0.12500  0.75000  1.0000
  Li  Li10      1.0  0.87500  0.62500  0.75000  1.0000
  Li  Li11      1.0  0.25000  0.62500  0.87500  1.0000
  Li  Li12      1.0  0.12500  0.25000  0.87500  1.0000
  Nd  Nd1       1.0  0.37500  0.25000  0.12500  1.0000
  Nd  Nd2       1.0  0.25000  0.87500  0.12500  1.0000
  Nd  Nd3       1.0  0.37500  0.62500  0.25000  1.0000
  Nd  Nd4       1.0  0.87500  0.12500  0.25000  1.0000
  Nd  Nd5       1.0  0.75000  0.62500  0.37500  1.0000
  Nd  Nd6       1.0  0.12500  0.75000  0.37500  1.0000
  Nd  Nd7       1.0  0.87500  0.25000  0.62500  1.0000
  Nd  Nd8       1.0  0.25000  0.37500  0.62500  1.0000
  Nd  Nd9       1.0  0.62500  0.37500  0.75000  1.0000
  Nd  Nd10      1.0  0.12500  0.87500  0.75000  1.0000
  Nd  Nd11      1.0  0.75000  0.12500  0.87500  1.0000
  Nd  Nd12      1.0  0.62500  0.75000  0.87500  1.0000
  O   O1        1.0  0.33300  0.40800  0.01810  1.0000
  O   O2        1.0  0.18500  0.61000  0.01810  1.0000
  O   O3        1.0  0.68500  0.16700  0.07470  1.0000
  O   O4        1.0  0.89000  0.90800  0.07470  1.0000
  O   O5        1.0  0.98200  0.16700  0.09200  1.0000
  O   O6        1.0  0.61000  0.92500  0.09200  1.0000
  O   O7        1.0  0.59200  0.42500  0.11000  1.0000
  O   O8        1.0  0.01810  0.68500  0.11000  1.0000
  O   O9        1.0  0.18500  0.07470  0.16700  1.0000
  O   O10       1.0  0.48200  0.09200  0.16700  1.0000
  O   O11       1.0  0.11000  0.51800  0.18500  1.0000
  O   O12       1.0  0.57500  0.66700  0.18500  1.0000
  O   O13       1.0  0.33300  0.42500  0.31500  1.0000
  O   O14       1.0  0.48200  0.89000  0.31500  1.0000
  O   O15       1.0  0.90800  0.51800  0.33300  1.0000
  O   O16       1.0  0.92500  0.81500  0.33300  1.0000
  O   O17       1.0  0.57500  0.40800  0.39000  1.0000
  O   O18       1.0  0.31500  0.98200  0.39000  1.0000
  O   O19       1.0  0.83300  0.01810  0.40800  1.0000
  O   O20       1.0  0.07470  0.39000  0.40800  1.0000
  O   O21       1.0  0.83300  0.31500  0.42500  1.0000
  O   O22       1.0  0.09200  0.11000  0.42500  1.0000
  O   O23       1.0  0.59200  0.66700  0.48200  1.0000
  O   O24       1.0  0.39000  0.81500  0.48200  1.0000
  O   O25       1.0  0.40800  0.33300  0.51800  1.0000
  O   O26       1.0  0.61000  0.18500  0.51800  1.0000
  O   O27       1.0  0.90800  0.89000  0.57500  1.0000
  O   O28       1.0  0.16700  0.68500  0.57500  1.0000
  O   O29       1.0  0.92500  0.61000  0.59200  1.0000
  O   O30       1.0  0.16700  0.98200  0.59200  1.0000
  O   O31       1.0  0.68500  0.01810  0.61000  1.0000
  O   O32       1.0  0.42500  0.59200  0.61000  1.0000
  O   O33       1.0  0.09200  0.48200  0.66700  1.0000
  O   O34       1.0  0.07470  0.18500  0.66700  1.0000
  O   O35       1.0  0.51800  0.11000  0.68500  1.0000
  O   O36       1.0  0.66700  0.57500  0.68500  1.0000
  O   O37       1.0  0.42500  0.33300  0.81500  1.0000
  O   O38       1.0  0.89000  0.48200  0.81500  1.0000
  O   O39       1.0  0.51800  0.90800  0.83300  1.0000
  O   O40       1.0  0.81500  0.92500  0.83300  1.0000
  O   O41       1.0  0.98200  0.31500  0.89000  1.0000
  O   O42       1.0  0.40800  0.57500  0.89000  1.0000
  O   O43       1.0  0.39000  0.07470  0.90800  1.0000
  O   O44       1.0  0.01810  0.83300  0.90800  1.0000
  O   O45       1.0  0.11000  0.09200  0.92500  1.0000
  O   O46       1.0  0.31500  0.83300  0.92500  1.0000
  O   O47       1.0  0.66700  0.59200  0.98200  1.0000
  O   O48       1.0  0.81500  0.39000  0.98200  1.0000
  Se  Se1       1.0  0.00000  0.00000  0.00000  1.0000
  Se  Se2       1.0  0.50000  0.00000  0.00000  1.0000
  Se  Se3       1.0  0.00000  0.50000  0.00000  1.0000
  Se  Se4       1.0  0.50000  0.50000  0.00000  1.0000
  Se  Se5       1.0  0.00000  0.00000  0.50000  1.0000
  Se  Se6       1.0  0.50000  0.50000  0.50000  1.0000
  Se  Se7       1.0  0.50000  0.00000  0.50000  1.0000
  Se  Se8       1.0  0.00000  0.50000  0.50000  1.0000
