data_image0
_chemical_formula_structural       In12Li12Nb8O48
_chemical_formula_sum              "In12 Li12 Nb8 O48"
_cell_length_a       10.4934
_cell_length_b       10.4934
_cell_length_c       10.4934
_cell_angle_alpha    109.471
_cell_angle_beta     109.471
_cell_angle_gamma    109.471

_space_group_name_H-M_alt    "P 1"
_space_group_IT_number       1

loop_
  _space_group_symop_operation_xyz
  'x, y, z'

loop_
  _atom_site_type_symbol
  _atom_site_label
  _atom_site_symmetry_multiplicity
  _atom_site_fract_x
  _atom_site_fract_y
  _atom_site_fract_z
  _atom_site_occupancy
  In  In1       1.0  0.25000  0.87500  0.12500  1.0000
  In  In2       1.0  0.37500  0.25000  0.12500  1.0000
  In  In3       1.0  0.87500  0.12500  0.25000  1.0000
  In  In4       1.0  0.37500  0.62500  0.25000  1.0000
  In  In5       1.0  0.75000  0.62500  0.37500  1.0000
  In  In6       1.0  0.12500  0.75000  0.37500  1.0000
  In  In7       1.0  0.87500  0.25000  0.62500  1.0000
  In  In8       1.0  0.25000  0.37500  0.62500  1.0000
  In  In9       1.0  0.62500  0.37500  0.75000  1.0000
  In  In10      1.0  0.12500  0.87500  0.75000  1.0000
  In  In11      1.0  0.62500  0.75000  0.87500  1.0000
  In  In12      1.0  0.75000  0.12500  0.87500  1.0000
  Li  Li1       1.0  0.75000  0.37500  0.12500  1.0000
  Li  Li2       1.0  0.87500  0.75000  0.12500  1.0000
  Li  Li3       1.0  0.12500  0.37500  0.25000  1.0000
  Li  Li4       1.0  0.62500  0.87500  0.25000  1.0000
  Li  Li5       1.0  0.62500  0.25000  0.37500  1.0000
  Li  Li6       1.0  0.25000  0.12500  0.37500  1.0000
  Li  Li7       1.0  0.37500  0.75000  0.62500  1.0000
  Li  Li8       1.0  0.75000  0.87500  0.62500  1.0000
  Li  Li9       1.0  0.37500  0.12500  0.75000  1.0000
  Li  Li10      1.0  0.87500  0.62500  0.75000  1.0000
  Li  Li11      1.0  0.25000  0.62500  0.87500  1.0000
  Li  Li12      1.0  0.12500  0.25000  0.87500  1.0000
  Nb  Nb1       1.0  0.00000  0.00000  0.00000  1.0000
  Nb  Nb2       1.0  0.50000  0.00000  0.00000  1.0000
  Nb  Nb3       1.0  0.00000  0.50000  0.00000  1.0000
  Nb  Nb4       1.0  0.50000  0.50000  0.00000  1.0000
  Nb  Nb5       1.0  0.00000  0.00000  0.50000  1.0000
  Nb  Nb6       1.0  0.50000  0.00000  0.50000  1.0000
  Nb  Nb7       1.0  0.00000  0.50000  0.50000  1.0000
  Nb  Nb8       1.0  0.50000  0.50000  0.50000  1.0000
  O   O1        1.0  0.32100  0.41200  0.03500  1.0000
  O   O2        1.0  0.21400  0.62200  0.03500  1.0000
  O   O3        1.0  0.96500  0.17900  0.08750  1.0000
  O   O4        1.0  0.62200  0.90900  0.08750  1.0000
  O   O5        1.0  0.87800  0.91200  0.09150  1.0000
  O   O6        1.0  0.71400  0.17900  0.09150  1.0000
  O   O7        1.0  0.03500  0.71400  0.12200  1.0000
  O   O8        1.0  0.58800  0.40900  0.12200  1.0000
  O   O9        1.0  0.21400  0.09150  0.17900  1.0000
  O   O10       1.0  0.46500  0.08750  0.17900  1.0000
  O   O11       1.0  0.12200  0.53500  0.21400  1.0000
  O   O12       1.0  0.59100  0.67900  0.21400  1.0000
  O   O13       1.0  0.32100  0.40900  0.28600  1.0000
  O   O14       1.0  0.46500  0.87800  0.28600  1.0000
  O   O15       1.0  0.90900  0.78600  0.32100  1.0000
  O   O16       1.0  0.91200  0.53500  0.32100  1.0000
  O   O17       1.0  0.28600  0.96500  0.37800  1.0000
  O   O18       1.0  0.59100  0.41200  0.37800  1.0000
  O   O19       1.0  0.08750  0.12200  0.40900  1.0000
  O   O20       1.0  0.82100  0.28600  0.40900  1.0000
  O   O21       1.0  0.82100  0.03500  0.41200  1.0000
  O   O22       1.0  0.09150  0.37800  0.41200  1.0000
  O   O23       1.0  0.58800  0.67900  0.46500  1.0000
  O   O24       1.0  0.37800  0.78600  0.46500  1.0000
  O   O25       1.0  0.62200  0.21400  0.53500  1.0000
  O   O26       1.0  0.41200  0.32100  0.53500  1.0000
  O   O27       1.0  0.90900  0.62200  0.58800  1.0000
  O   O28       1.0  0.17900  0.96500  0.58800  1.0000
  O   O29       1.0  0.17900  0.71400  0.59100  1.0000
  O   O30       1.0  0.91200  0.87800  0.59100  1.0000
  O   O31       1.0  0.71400  0.03500  0.62200  1.0000
  O   O32       1.0  0.40900  0.58800  0.62200  1.0000
  O   O33       1.0  0.08750  0.46500  0.67900  1.0000
  O   O34       1.0  0.09150  0.21400  0.67900  1.0000
  O   O35       1.0  0.53500  0.12200  0.71400  1.0000
  O   O36       1.0  0.67900  0.59100  0.71400  1.0000
  O   O37       1.0  0.87800  0.46500  0.78600  1.0000
  O   O38       1.0  0.40900  0.32100  0.78600  1.0000
  O   O39       1.0  0.53500  0.91200  0.82100  1.0000
  O   O40       1.0  0.78600  0.90900  0.82100  1.0000
  O   O41       1.0  0.96500  0.28600  0.87800  1.0000
  O   O42       1.0  0.41200  0.59100  0.87800  1.0000
  O   O43       1.0  0.28600  0.82100  0.90900  1.0000
  O   O44       1.0  0.12200  0.08750  0.90900  1.0000
  O   O45       1.0  0.37800  0.09150  0.91200  1.0000
  O   O46       1.0  0.03500  0.82100  0.91200  1.0000
  O   O47       1.0  0.78600  0.37800  0.96500  1.0000
  O   O48       1.0  0.67900  0.58800  0.96500  1.0000
