data_image0
_chemical_formula_structural       Br4Cs6
_chemical_formula_sum              "Br4 Cs6"
_cell_length_a       8.93038
_cell_length_b       8.93038
_cell_length_c       10.1719
_cell_angle_alpha    116.038
_cell_angle_beta     63.9616
_cell_angle_gamma    120

_space_group_name_H-M_alt    "P 1"
_space_group_IT_number       1

loop_
  _space_group_symop_operation_xyz
  'x, y, z'

loop_
  _atom_site_type_symbol
  _atom_site_label
  _atom_site_symmetry_multiplicity
  _atom_site_fract_x
  _atom_site_fract_y
  _atom_site_fract_z
  _atom_site_occupancy
  Br  Br1       1.0  0.66300  0.33700  0.01160  1.0000
  Br  Br2       1.0  0.83700  0.16300  0.48800  1.0000
  Br  Br3       1.0  0.16300  0.83700  0.51200  1.0000
  Br  Br4       1.0  0.33700  0.66300  0.98800  1.0000
  Cs  Cs1       1.0  0.57500  0.75000  0.25000  1.0000
  Cs  Cs2       1.0  0.92500  0.42500  0.25000  1.0000
  Cs  Cs3       1.0  0.25000  0.07490  0.25000  1.0000
  Cs  Cs4       1.0  0.75000  0.92500  0.75000  1.0000
  Cs  Cs5       1.0  0.07490  0.57500  0.75000  1.0000
  Cs  Cs6       1.0  0.42500  0.25000  0.75000  1.0000
