data_image0
_chemical_formula_structural       Gd12Li12O48Te8
_chemical_formula_sum              "Gd12 Li12 O48 Te8"
_cell_length_a       10.7094
_cell_length_b       10.7094
_cell_length_c       10.7094
_cell_angle_alpha    109.471
_cell_angle_beta     109.471
_cell_angle_gamma    109.471

_space_group_name_H-M_alt    "P 1"
_space_group_IT_number       1

loop_
  _space_group_symop_operation_xyz
  'x, y, z'

loop_
  _atom_site_type_symbol
  _atom_site_label
  _atom_site_symmetry_multiplicity
  _atom_site_fract_x
  _atom_site_fract_y
  _atom_site_fract_z
  _atom_site_occupancy
  Gd  Gd1       1.0  0.37500  0.25000  0.12500  1.0000
  Gd  Gd2       1.0  0.25000  0.87500  0.12500  1.0000
  Gd  Gd3       1.0  0.37500  0.62500  0.25000  1.0000
  Gd  Gd4       1.0  0.87500  0.12500  0.25000  1.0000
  Gd  Gd5       1.0  0.12500  0.75000  0.37500  1.0000
  Gd  Gd6       1.0  0.75000  0.62500  0.37500  1.0000
  Gd  Gd7       1.0  0.87500  0.25000  0.62500  1.0000
  Gd  Gd8       1.0  0.25000  0.37500  0.62500  1.0000
  Gd  Gd9       1.0  0.62500  0.37500  0.75000  1.0000
  Gd  Gd10      1.0  0.12500  0.87500  0.75000  1.0000
  Gd  Gd11      1.0  0.75000  0.12500  0.87500  1.0000
  Gd  Gd12      1.0  0.62500  0.75000  0.87500  1.0000
  Li  Li1       1.0  0.75000  0.37500  0.12500  1.0000
  Li  Li2       1.0  0.87500  0.75000  0.12500  1.0000
  Li  Li3       1.0  0.12500  0.37500  0.25000  1.0000
  Li  Li4       1.0  0.62500  0.87500  0.25000  1.0000
  Li  Li5       1.0  0.25000  0.12500  0.37500  1.0000
  Li  Li6       1.0  0.62500  0.25000  0.37500  1.0000
  Li  Li7       1.0  0.75000  0.87500  0.62500  1.0000
  Li  Li8       1.0  0.37500  0.75000  0.62500  1.0000
  Li  Li9       1.0  0.37500  0.12500  0.75000  1.0000
  Li  Li10      1.0  0.87500  0.62500  0.75000  1.0000
  Li  Li11      1.0  0.25000  0.62500  0.87500  1.0000
  Li  Li12      1.0  0.12500  0.25000  0.87500  1.0000
  O   O1        1.0  0.19900  0.61900  0.02600  1.0000
  O   O2        1.0  0.32700  0.40700  0.02600  1.0000
  O   O3        1.0  0.88100  0.90700  0.07990  1.0000
  O   O4        1.0  0.69900  0.17300  0.07990  1.0000
  O   O5        1.0  0.61900  0.92000  0.09280  1.0000
  O   O6        1.0  0.97400  0.17300  0.09280  1.0000
  O   O7        1.0  0.02600  0.69900  0.11900  1.0000
  O   O8        1.0  0.59300  0.42000  0.11900  1.0000
  O   O9        1.0  0.19900  0.07990  0.17300  1.0000
  O   O10       1.0  0.47400  0.09280  0.17300  1.0000
  O   O11       1.0  0.11900  0.52600  0.19900  1.0000
  O   O12       1.0  0.58000  0.67300  0.19900  1.0000
  O   O13       1.0  0.47400  0.88100  0.30100  1.0000
  O   O14       1.0  0.32700  0.42000  0.30100  1.0000
  O   O15       1.0  0.92000  0.80100  0.32700  1.0000
  O   O16       1.0  0.90700  0.52600  0.32700  1.0000
  O   O17       1.0  0.58000  0.40700  0.38100  1.0000
  O   O18       1.0  0.30100  0.97400  0.38100  1.0000
  O   O19       1.0  0.82700  0.02600  0.40700  1.0000
  O   O20       1.0  0.07990  0.38100  0.40700  1.0000
  O   O21       1.0  0.09280  0.11900  0.42000  1.0000
  O   O22       1.0  0.82700  0.30100  0.42000  1.0000
  O   O23       1.0  0.59300  0.67300  0.47400  1.0000
  O   O24       1.0  0.38100  0.80100  0.47400  1.0000
  O   O25       1.0  0.40700  0.32700  0.52600  1.0000
  O   O26       1.0  0.61900  0.19900  0.52600  1.0000
  O   O27       1.0  0.17300  0.69900  0.58000  1.0000
  O   O28       1.0  0.90700  0.88100  0.58000  1.0000
  O   O29       1.0  0.92000  0.61900  0.59300  1.0000
  O   O30       1.0  0.17300  0.97400  0.59300  1.0000
  O   O31       1.0  0.42000  0.59300  0.61900  1.0000
  O   O32       1.0  0.69900  0.02600  0.61900  1.0000
  O   O33       1.0  0.07990  0.19900  0.67300  1.0000
  O   O34       1.0  0.09280  0.47400  0.67300  1.0000
  O   O35       1.0  0.52600  0.11900  0.69900  1.0000
  O   O36       1.0  0.67300  0.58000  0.69900  1.0000
  O   O37       1.0  0.88100  0.47400  0.80100  1.0000
  O   O38       1.0  0.42000  0.32700  0.80100  1.0000
  O   O39       1.0  0.52600  0.90700  0.82700  1.0000
  O   O40       1.0  0.80100  0.92000  0.82700  1.0000
  O   O41       1.0  0.97400  0.30100  0.88100  1.0000
  O   O42       1.0  0.40700  0.58000  0.88100  1.0000
  O   O43       1.0  0.38100  0.07990  0.90700  1.0000
  O   O44       1.0  0.02600  0.82700  0.90700  1.0000
  O   O45       1.0  0.30100  0.82700  0.92000  1.0000
  O   O46       1.0  0.11900  0.09280  0.92000  1.0000
  O   O47       1.0  0.80100  0.38100  0.97400  1.0000
  O   O48       1.0  0.67300  0.59300  0.97400  1.0000
  Te  Te1       1.0  0.00000  0.00000  0.00000  1.0000
  Te  Te2       1.0  0.50000  0.00000  0.00000  1.0000
  Te  Te3       1.0  0.00000  0.50000  0.00000  1.0000
  Te  Te4       1.0  0.50000  0.50000  0.00000  1.0000
  Te  Te5       1.0  0.00000  0.00000  0.50000  1.0000
  Te  Te6       1.0  0.50000  0.50000  0.50000  1.0000
  Te  Te7       1.0  0.50000  0.00000  0.50000  1.0000
  Te  Te8       1.0  0.00000  0.50000  0.50000  1.0000
