data_image0
_chemical_formula_structural       Ce8Cr12Li12O48
_chemical_formula_sum              "Ce8 Cr12 Li12 O48"
_cell_length_a       10.4995
_cell_length_b       10.4995
_cell_length_c       10.4995
_cell_angle_alpha    109.471
_cell_angle_beta     109.471
_cell_angle_gamma    109.471

_space_group_name_H-M_alt    "P 1"
_space_group_IT_number       1

loop_
  _space_group_symop_operation_xyz
  'x, y, z'

loop_
  _atom_site_type_symbol
  _atom_site_label
  _atom_site_symmetry_multiplicity
  _atom_site_fract_x
  _atom_site_fract_y
  _atom_site_fract_z
  _atom_site_occupancy
  Ce  Ce1       1.0  0.00000  0.00000  0.00000  1.0000
  Ce  Ce2       1.0  0.50000  0.00000  0.00000  1.0000
  Ce  Ce3       1.0  0.00000  0.50000  0.00000  1.0000
  Ce  Ce4       1.0  0.50000  0.50000  0.00000  1.0000
  Ce  Ce5       1.0  0.00000  0.00000  0.50000  1.0000
  Ce  Ce6       1.0  0.50000  0.00000  0.50000  1.0000
  Ce  Ce7       1.0  0.00000  0.50000  0.50000  1.0000
  Ce  Ce8       1.0  0.50000  0.50000  0.50000  1.0000
  Cr  Cr1       1.0  0.25000  0.87500  0.12500  1.0000
  Cr  Cr2       1.0  0.37500  0.25000  0.12500  1.0000
  Cr  Cr3       1.0  0.87500  0.12500  0.25000  1.0000
  Cr  Cr4       1.0  0.37500  0.62500  0.25000  1.0000
  Cr  Cr5       1.0  0.75000  0.62500  0.37500  1.0000
  Cr  Cr6       1.0  0.12500  0.75000  0.37500  1.0000
  Cr  Cr7       1.0  0.87500  0.25000  0.62500  1.0000
  Cr  Cr8       1.0  0.25000  0.37500  0.62500  1.0000
  Cr  Cr9       1.0  0.12500  0.87500  0.75000  1.0000
  Cr  Cr10      1.0  0.62500  0.37500  0.75000  1.0000
  Cr  Cr11      1.0  0.75000  0.12500  0.87500  1.0000
  Cr  Cr12      1.0  0.62500  0.75000  0.87500  1.0000
  Li  Li1       1.0  0.75000  0.37500  0.12500  1.0000
  Li  Li2       1.0  0.87500  0.75000  0.12500  1.0000
  Li  Li3       1.0  0.12500  0.37500  0.25000  1.0000
  Li  Li4       1.0  0.62500  0.87500  0.25000  1.0000
  Li  Li5       1.0  0.62500  0.25000  0.37500  1.0000
  Li  Li6       1.0  0.25000  0.12500  0.37500  1.0000
  Li  Li7       1.0  0.75000  0.87500  0.62500  1.0000
  Li  Li8       1.0  0.37500  0.75000  0.62500  1.0000
  Li  Li9       1.0  0.37500  0.12500  0.75000  1.0000
  Li  Li10      1.0  0.87500  0.62500  0.75000  1.0000
  Li  Li11      1.0  0.12500  0.25000  0.87500  1.0000
  Li  Li12      1.0  0.25000  0.62500  0.87500  1.0000
  O   O1        1.0  0.25700  0.63700  0.06120  1.0000
  O   O2        1.0  0.30400  0.42400  0.06120  1.0000
  O   O3        1.0  0.63700  0.88000  0.07570  1.0000
  O   O4        1.0  0.93900  0.19600  0.07570  1.0000
  O   O5        1.0  0.75700  0.19600  0.12000  1.0000
  O   O6        1.0  0.86300  0.92400  0.12000  1.0000
  O   O7        1.0  0.57600  0.38000  0.13700  1.0000
  O   O8        1.0  0.06120  0.75700  0.13700  1.0000
  O   O9        1.0  0.25700  0.12000  0.19600  1.0000
  O   O10       1.0  0.43900  0.07570  0.19600  1.0000
  O   O11       1.0  0.43900  0.86300  0.24300  1.0000
  O   O12       1.0  0.30400  0.38000  0.24300  1.0000
  O   O13       1.0  0.13700  0.56100  0.25700  1.0000
  O   O14       1.0  0.62000  0.69600  0.25700  1.0000
  O   O15       1.0  0.92400  0.56100  0.30400  1.0000
  O   O16       1.0  0.88000  0.74300  0.30400  1.0000
  O   O17       1.0  0.62000  0.42400  0.36300  1.0000
  O   O18       1.0  0.24300  0.93900  0.36300  1.0000
  O   O19       1.0  0.07570  0.13700  0.38000  1.0000
  O   O20       1.0  0.80400  0.24300  0.38000  1.0000
  O   O21       1.0  0.80400  0.06120  0.42400  1.0000
  O   O22       1.0  0.12000  0.36300  0.42400  1.0000
  O   O23       1.0  0.36300  0.74300  0.43900  1.0000
  O   O24       1.0  0.57600  0.69600  0.43900  1.0000
  O   O25       1.0  0.42400  0.30400  0.56100  1.0000
  O   O26       1.0  0.63700  0.25700  0.56100  1.0000
  O   O27       1.0  0.88000  0.63700  0.57600  1.0000
  O   O28       1.0  0.19600  0.93900  0.57600  1.0000
  O   O29       1.0  0.19600  0.75700  0.62000  1.0000
  O   O30       1.0  0.92400  0.86300  0.62000  1.0000
  O   O31       1.0  0.75700  0.06120  0.63700  1.0000
  O   O32       1.0  0.38000  0.57600  0.63700  1.0000
  O   O33       1.0  0.07570  0.43900  0.69600  1.0000
  O   O34       1.0  0.12000  0.25700  0.69600  1.0000
  O   O35       1.0  0.38000  0.30400  0.74300  1.0000
  O   O36       1.0  0.86300  0.43900  0.74300  1.0000
  O   O37       1.0  0.56100  0.13700  0.75700  1.0000
  O   O38       1.0  0.69600  0.62000  0.75700  1.0000
  O   O39       1.0  0.74300  0.88000  0.80400  1.0000
  O   O40       1.0  0.56100  0.92400  0.80400  1.0000
  O   O41       1.0  0.93900  0.24300  0.86300  1.0000
  O   O42       1.0  0.42400  0.62000  0.86300  1.0000
  O   O43       1.0  0.13700  0.07570  0.88000  1.0000
  O   O44       1.0  0.24300  0.80400  0.88000  1.0000
  O   O45       1.0  0.36300  0.12000  0.92400  1.0000
  O   O46       1.0  0.06120  0.80400  0.92400  1.0000
  O   O47       1.0  0.74300  0.36300  0.93900  1.0000
  O   O48       1.0  0.69600  0.57600  0.93900  1.0000
