data_image0
_chemical_formula_structural       Cr12Li12O48Ta8
_chemical_formula_sum              "Cr12 Li12 O48 Ta8"
_cell_length_a       10.0344
_cell_length_b       10.0344
_cell_length_c       10.0344
_cell_angle_alpha    109.471
_cell_angle_beta     109.471
_cell_angle_gamma    109.471

_space_group_name_H-M_alt    "P 1"
_space_group_IT_number       1

loop_
  _space_group_symop_operation_xyz
  'x, y, z'

loop_
  _atom_site_type_symbol
  _atom_site_label
  _atom_site_symmetry_multiplicity
  _atom_site_fract_x
  _atom_site_fract_y
  _atom_site_fract_z
  _atom_site_occupancy
  Cr  Cr1       1.0  0.25000  0.87500  0.12500  1.0000
  Cr  Cr2       1.0  0.37500  0.25000  0.12500  1.0000
  Cr  Cr3       1.0  0.87500  0.12500  0.25000  1.0000
  Cr  Cr4       1.0  0.37500  0.62500  0.25000  1.0000
  Cr  Cr5       1.0  0.12500  0.75000  0.37500  1.0000
  Cr  Cr6       1.0  0.75000  0.62500  0.37500  1.0000
  Cr  Cr7       1.0  0.87500  0.25000  0.62500  1.0000
  Cr  Cr8       1.0  0.25000  0.37500  0.62500  1.0000
  Cr  Cr9       1.0  0.62500  0.37500  0.75000  1.0000
  Cr  Cr10      1.0  0.12500  0.87500  0.75000  1.0000
  Cr  Cr11      1.0  0.62500  0.75000  0.87500  1.0000
  Cr  Cr12      1.0  0.75000  0.12500  0.87500  1.0000
  Li  Li1       1.0  0.75000  0.37500  0.12500  1.0000
  Li  Li2       1.0  0.87500  0.75000  0.12500  1.0000
  Li  Li3       1.0  0.12500  0.37500  0.25000  1.0000
  Li  Li4       1.0  0.62500  0.87500  0.25000  1.0000
  Li  Li5       1.0  0.62500  0.25000  0.37500  1.0000
  Li  Li6       1.0  0.25000  0.12500  0.37500  1.0000
  Li  Li7       1.0  0.37500  0.75000  0.62500  1.0000
  Li  Li8       1.0  0.75000  0.87500  0.62500  1.0000
  Li  Li9       1.0  0.37500  0.12500  0.75000  1.0000
  Li  Li10      1.0  0.87500  0.62500  0.75000  1.0000
  Li  Li11      1.0  0.12500  0.25000  0.87500  1.0000
  Li  Li12      1.0  0.25000  0.62500  0.87500  1.0000
  O   O1        1.0  0.22500  0.62600  0.04440  1.0000
  O   O2        1.0  0.32000  0.41800  0.04440  1.0000
  O   O3        1.0  0.62600  0.90100  0.08190  1.0000
  O   O4        1.0  0.95600  0.18000  0.08190  1.0000
  O   O5        1.0  0.72500  0.18000  0.09850  1.0000
  O   O6        1.0  0.87400  0.91800  0.09850  1.0000
  O   O7        1.0  0.58200  0.40100  0.12600  1.0000
  O   O8        1.0  0.04440  0.72500  0.12600  1.0000
  O   O9        1.0  0.45600  0.08190  0.18000  1.0000
  O   O10       1.0  0.22500  0.09850  0.18000  1.0000
  O   O11       1.0  0.12600  0.54400  0.22500  1.0000
  O   O12       1.0  0.59900  0.68000  0.22500  1.0000
  O   O13       1.0  0.45600  0.87400  0.27500  1.0000
  O   O14       1.0  0.32000  0.40100  0.27500  1.0000
  O   O15       1.0  0.91800  0.54400  0.32000  1.0000
  O   O16       1.0  0.90100  0.77500  0.32000  1.0000
  O   O17       1.0  0.59900  0.41800  0.37400  1.0000
  O   O18       1.0  0.27500  0.95600  0.37400  1.0000
  O   O19       1.0  0.08190  0.12600  0.40100  1.0000
  O   O20       1.0  0.82000  0.27500  0.40100  1.0000
  O   O21       1.0  0.82000  0.04440  0.41800  1.0000
  O   O22       1.0  0.09850  0.37400  0.41800  1.0000
  O   O23       1.0  0.58200  0.68000  0.45600  1.0000
  O   O24       1.0  0.37400  0.77500  0.45600  1.0000
  O   O25       1.0  0.41800  0.32000  0.54400  1.0000
  O   O26       1.0  0.62600  0.22500  0.54400  1.0000
  O   O27       1.0  0.18000  0.95600  0.58200  1.0000
  O   O28       1.0  0.90100  0.62600  0.58200  1.0000
  O   O29       1.0  0.91800  0.87400  0.59900  1.0000
  O   O30       1.0  0.18000  0.72500  0.59900  1.0000
  O   O31       1.0  0.72500  0.04440  0.62600  1.0000
  O   O32       1.0  0.40100  0.58200  0.62600  1.0000
  O   O33       1.0  0.09850  0.22500  0.68000  1.0000
  O   O34       1.0  0.08190  0.45600  0.68000  1.0000
  O   O35       1.0  0.68000  0.59900  0.72500  1.0000
  O   O36       1.0  0.54400  0.12600  0.72500  1.0000
  O   O37       1.0  0.87400  0.45600  0.77500  1.0000
  O   O38       1.0  0.40100  0.32000  0.77500  1.0000
  O   O39       1.0  0.54400  0.91800  0.82000  1.0000
  O   O40       1.0  0.77500  0.90100  0.82000  1.0000
  O   O41       1.0  0.41800  0.59900  0.87400  1.0000
  O   O42       1.0  0.95600  0.27500  0.87400  1.0000
  O   O43       1.0  0.27500  0.82000  0.90100  1.0000
  O   O44       1.0  0.12600  0.08190  0.90100  1.0000
  O   O45       1.0  0.37400  0.09850  0.91800  1.0000
  O   O46       1.0  0.04440  0.82000  0.91800  1.0000
  O   O47       1.0  0.77500  0.37400  0.95600  1.0000
  O   O48       1.0  0.68000  0.58200  0.95600  1.0000
  Ta  Ta1       1.0  0.00000  0.00000  0.00000  1.0000
  Ta  Ta2       1.0  0.50000  0.00000  0.00000  1.0000
  Ta  Ta3       1.0  0.50000  0.50000  0.00000  1.0000
  Ta  Ta4       1.0  0.00000  0.50000  0.00000  1.0000
  Ta  Ta5       1.0  0.50000  0.00000  0.50000  1.0000
  Ta  Ta6       1.0  1.00000  0.50000  0.50000  1.0000
  Ta  Ta7       1.0  0.00000  0.00000  0.50000  1.0000
  Ta  Ta8       1.0  0.50000  0.50000  0.50000  1.0000
