data_image0
_chemical_formula_structural       Li12Mn12Nb8O48
_chemical_formula_sum              "Li12 Mn12 Nb8 O48"
_cell_length_a       10.1636
_cell_length_b       10.1636
_cell_length_c       10.1636
_cell_angle_alpha    109.471
_cell_angle_beta     109.471
_cell_angle_gamma    109.471

_space_group_name_H-M_alt    "P 1"
_space_group_IT_number       1

loop_
  _space_group_symop_operation_xyz
  'x, y, z'

loop_
  _atom_site_type_symbol
  _atom_site_label
  _atom_site_symmetry_multiplicity
  _atom_site_fract_x
  _atom_site_fract_y
  _atom_site_fract_z
  _atom_site_occupancy
  Li  Li1       1.0  0.75000  0.37500  0.12500  1.0000
  Li  Li2       1.0  0.87500  0.75000  0.12500  1.0000
  Li  Li3       1.0  0.12500  0.37500  0.25000  1.0000
  Li  Li4       1.0  0.62500  0.87500  0.25000  1.0000
  Li  Li5       1.0  0.25000  0.12500  0.37500  1.0000
  Li  Li6       1.0  0.62500  0.25000  0.37500  1.0000
  Li  Li7       1.0  0.37500  0.75000  0.62500  1.0000
  Li  Li8       1.0  0.75000  0.87500  0.62500  1.0000
  Li  Li9       1.0  0.37500  0.12500  0.75000  1.0000
  Li  Li10      1.0  0.87500  0.62500  0.75000  1.0000
  Li  Li11      1.0  0.25000  0.62500  0.87500  1.0000
  Li  Li12      1.0  0.12500  0.25000  0.87500  1.0000
  Mn  Mn1       1.0  0.37500  0.25000  0.12500  1.0000
  Mn  Mn2       1.0  0.25000  0.87500  0.12500  1.0000
  Mn  Mn3       1.0  0.87500  0.12500  0.25000  1.0000
  Mn  Mn4       1.0  0.37500  0.62500  0.25000  1.0000
  Mn  Mn5       1.0  0.75000  0.62500  0.37500  1.0000
  Mn  Mn6       1.0  0.12500  0.75000  0.37500  1.0000
  Mn  Mn7       1.0  0.87500  0.25000  0.62500  1.0000
  Mn  Mn8       1.0  0.25000  0.37500  0.62500  1.0000
  Mn  Mn9       1.0  0.62500  0.37500  0.75000  1.0000
  Mn  Mn10      1.0  0.12500  0.87500  0.75000  1.0000
  Mn  Mn11      1.0  0.75000  0.12500  0.87500  1.0000
  Mn  Mn12      1.0  0.62500  0.75000  0.87500  1.0000
  Nb  Nb1       1.0  0.00000  0.00000  0.00000  1.0000
  Nb  Nb2       1.0  0.50000  0.00000  0.00000  1.0000
  Nb  Nb3       1.0  0.00000  0.50000  0.00000  1.0000
  Nb  Nb4       1.0  0.50000  0.50000  0.00000  1.0000
  Nb  Nb5       1.0  0.00000  0.00000  0.50000  1.0000
  Nb  Nb6       1.0  0.50000  0.00000  0.50000  1.0000
  Nb  Nb7       1.0  0.00000  0.50000  0.50000  1.0000
  Nb  Nb8       1.0  0.50000  0.50000  0.50000  1.0000
  O   O1        1.0  0.31900  0.42700  0.04460  1.0000
  O   O2        1.0  0.22500  0.61800  0.04460  1.0000
  O   O3        1.0  0.95500  0.18100  0.07350  1.0000
  O   O4        1.0  0.61800  0.89300  0.07350  1.0000
  O   O5        1.0  0.72500  0.18100  0.10700  1.0000
  O   O6        1.0  0.88200  0.92700  0.10700  1.0000
  O   O7        1.0  0.57300  0.39300  0.11800  1.0000
  O   O8        1.0  0.04460  0.72500  0.11800  1.0000
  O   O9        1.0  0.22500  0.10700  0.18100  1.0000
  O   O10       1.0  0.45500  0.07350  0.18100  1.0000
  O   O11       1.0  0.60700  0.68100  0.22500  1.0000
  O   O12       1.0  0.11800  0.54500  0.22500  1.0000
  O   O13       1.0  0.31900  0.39300  0.27500  1.0000
  O   O14       1.0  0.45500  0.88200  0.27500  1.0000
  O   O15       1.0  0.89300  0.77500  0.31900  1.0000
  O   O16       1.0  0.92700  0.54500  0.31900  1.0000
  O   O17       1.0  0.60700  0.42700  0.38200  1.0000
  O   O18       1.0  0.27500  0.95500  0.38200  1.0000
  O   O19       1.0  0.81900  0.27500  0.39300  1.0000
  O   O20       1.0  0.07350  0.11800  0.39300  1.0000
  O   O21       1.0  0.81900  0.04460  0.42700  1.0000
  O   O22       1.0  0.10700  0.38200  0.42700  1.0000
  O   O23       1.0  0.57300  0.68100  0.45500  1.0000
  O   O24       1.0  0.38200  0.77500  0.45500  1.0000
  O   O25       1.0  0.61800  0.22500  0.54500  1.0000
  O   O26       1.0  0.42700  0.31900  0.54500  1.0000
  O   O27       1.0  0.89300  0.61800  0.57300  1.0000
  O   O28       1.0  0.18100  0.95500  0.57300  1.0000
  O   O29       1.0  0.18100  0.72500  0.60700  1.0000
  O   O30       1.0  0.92700  0.88200  0.60700  1.0000
  O   O31       1.0  0.72500  0.04460  0.61800  1.0000
  O   O32       1.0  0.39300  0.57300  0.61800  1.0000
  O   O33       1.0  0.07350  0.45500  0.68100  1.0000
  O   O34       1.0  0.10700  0.22500  0.68100  1.0000
  O   O35       1.0  0.54500  0.11800  0.72500  1.0000
  O   O36       1.0  0.68100  0.60700  0.72500  1.0000
  O   O37       1.0  0.88200  0.45500  0.77500  1.0000
  O   O38       1.0  0.39300  0.31900  0.77500  1.0000
  O   O39       1.0  0.77500  0.89300  0.81900  1.0000
  O   O40       1.0  0.54500  0.92700  0.81900  1.0000
  O   O41       1.0  0.95500  0.27500  0.88200  1.0000
  O   O42       1.0  0.42700  0.60700  0.88200  1.0000
  O   O43       1.0  0.11800  0.07350  0.89300  1.0000
  O   O44       1.0  0.27500  0.81900  0.89300  1.0000
  O   O45       1.0  0.38200  0.10700  0.92700  1.0000
  O   O46       1.0  0.04460  0.81900  0.92700  1.0000
  O   O47       1.0  0.77500  0.38200  0.95500  1.0000
  O   O48       1.0  0.68100  0.57300  0.95500  1.0000
