data_image0
_chemical_formula_structural       Cr12Hf8Li12O48
_chemical_formula_sum              "Cr12 Hf8 Li12 O48"
_cell_length_a       10.0624
_cell_length_b       10.0624
_cell_length_c       10.0624
_cell_angle_alpha    109.471
_cell_angle_beta     109.471
_cell_angle_gamma    109.471

_space_group_name_H-M_alt    "P 1"
_space_group_IT_number       1

loop_
  _space_group_symop_operation_xyz
  'x, y, z'

loop_
  _atom_site_type_symbol
  _atom_site_label
  _atom_site_symmetry_multiplicity
  _atom_site_fract_x
  _atom_site_fract_y
  _atom_site_fract_z
  _atom_site_occupancy
  Cr  Cr1       1.0  0.37500  0.25000  0.12500  1.0000
  Cr  Cr2       1.0  0.25000  0.87500  0.12500  1.0000
  Cr  Cr3       1.0  0.37500  0.62500  0.25000  1.0000
  Cr  Cr4       1.0  0.87500  0.12500  0.25000  1.0000
  Cr  Cr5       1.0  0.75000  0.62500  0.37500  1.0000
  Cr  Cr6       1.0  0.12500  0.75000  0.37500  1.0000
  Cr  Cr7       1.0  0.25000  0.37500  0.62500  1.0000
  Cr  Cr8       1.0  0.87500  0.25000  0.62500  1.0000
  Cr  Cr9       1.0  0.12500  0.87500  0.75000  1.0000
  Cr  Cr10      1.0  0.62500  0.37500  0.75000  1.0000
  Cr  Cr11      1.0  0.75000  0.12500  0.87500  1.0000
  Cr  Cr12      1.0  0.62500  0.75000  0.87500  1.0000
  Hf  Hf1       1.0  0.00000  0.00000  0.00000  1.0000
  Hf  Hf2       1.0  0.00000  0.50000  0.00000  1.0000
  Hf  Hf3       1.0  0.50000  0.50000  0.00000  1.0000
  Hf  Hf4       1.0  0.50000  0.00000  0.00000  1.0000
  Hf  Hf5       1.0  0.00000  0.00000  0.50000  1.0000
  Hf  Hf6       1.0  0.50000  0.50000  0.50000  1.0000
  Hf  Hf7       1.0  0.00000  0.50000  0.50000  1.0000
  Hf  Hf8       1.0  0.50000  0.00000  0.50000  1.0000
  Li  Li1       1.0  0.87500  0.75000  0.12500  1.0000
  Li  Li2       1.0  0.75000  0.37500  0.12500  1.0000
  Li  Li3       1.0  0.12500  0.37500  0.25000  1.0000
  Li  Li4       1.0  0.62500  0.87500  0.25000  1.0000
  Li  Li5       1.0  0.25000  0.12500  0.37500  1.0000
  Li  Li6       1.0  0.62500  0.25000  0.37500  1.0000
  Li  Li7       1.0  0.37500  0.75000  0.62500  1.0000
  Li  Li8       1.0  0.75000  0.87500  0.62500  1.0000
  Li  Li9       1.0  0.37500  0.12500  0.75000  1.0000
  Li  Li10      1.0  0.87500  0.62500  0.75000  1.0000
  Li  Li11      1.0  0.25000  0.62500  0.87500  1.0000
  Li  Li12      1.0  0.12500  0.25000  0.87500  1.0000
  O   O1        1.0  0.31700  0.41700  0.04880  1.0000
  O   O2        1.0  0.23200  0.63200  0.04880  1.0000
  O   O3        1.0  0.63200  0.89900  0.08280  1.0000
  O   O4        1.0  0.95100  0.18300  0.08280  1.0000
  O   O5        1.0  0.86800  0.91700  0.10100  1.0000
  O   O6        1.0  0.73200  0.18300  0.10100  1.0000
  O   O7        1.0  0.58300  0.39900  0.13200  1.0000
  O   O8        1.0  0.04880  0.73200  0.13200  1.0000
  O   O9        1.0  0.23200  0.10100  0.18300  1.0000
  O   O10       1.0  0.45100  0.08280  0.18300  1.0000
  O   O11       1.0  0.60100  0.68300  0.23200  1.0000
  O   O12       1.0  0.13200  0.54900  0.23200  1.0000
  O   O13       1.0  0.31700  0.39900  0.26800  1.0000
  O   O14       1.0  0.45100  0.86800  0.26800  1.0000
  O   O15       1.0  0.91700  0.54900  0.31700  1.0000
  O   O16       1.0  0.89900  0.76800  0.31700  1.0000
  O   O17       1.0  0.26800  0.95100  0.36800  1.0000
  O   O18       1.0  0.60100  0.41700  0.36800  1.0000
  O   O19       1.0  0.08280  0.13200  0.39900  1.0000
  O   O20       1.0  0.81700  0.26800  0.39900  1.0000
  O   O21       1.0  0.10100  0.36800  0.41700  1.0000
  O   O22       1.0  0.81700  0.04880  0.41700  1.0000
  O   O23       1.0  0.36800  0.76800  0.45100  1.0000
  O   O24       1.0  0.58300  0.68300  0.45100  1.0000
  O   O25       1.0  0.63200  0.23200  0.54900  1.0000
  O   O26       1.0  0.41700  0.31700  0.54900  1.0000
  O   O27       1.0  0.89900  0.63200  0.58300  1.0000
  O   O28       1.0  0.18300  0.95100  0.58300  1.0000
  O   O29       1.0  0.18300  0.73200  0.60100  1.0000
  O   O30       1.0  0.91700  0.86800  0.60100  1.0000
  O   O31       1.0  0.39900  0.58300  0.63200  1.0000
  O   O32       1.0  0.73200  0.04880  0.63200  1.0000
  O   O33       1.0  0.08280  0.45100  0.68300  1.0000
  O   O34       1.0  0.10100  0.23200  0.68300  1.0000
  O   O35       1.0  0.54900  0.13200  0.73200  1.0000
  O   O36       1.0  0.68300  0.60100  0.73200  1.0000
  O   O37       1.0  0.39900  0.31700  0.76800  1.0000
  O   O38       1.0  0.86800  0.45100  0.76800  1.0000
  O   O39       1.0  0.76800  0.89900  0.81700  1.0000
  O   O40       1.0  0.54900  0.91700  0.81700  1.0000
  O   O41       1.0  0.41700  0.60100  0.86800  1.0000
  O   O42       1.0  0.95100  0.26800  0.86800  1.0000
  O   O43       1.0  0.13200  0.08280  0.89900  1.0000
  O   O44       1.0  0.26800  0.81700  0.89900  1.0000
  O   O45       1.0  0.04880  0.81700  0.91700  1.0000
  O   O46       1.0  0.36800  0.10100  0.91700  1.0000
  O   O47       1.0  0.68300  0.58300  0.95100  1.0000
  O   O48       1.0  0.76800  0.36800  0.95100  1.0000
