data_image0
_chemical_formula_structural       I4In6
_chemical_formula_sum              "I4 In6"
_cell_length_a       6.62622
_cell_length_b       6.62622
_cell_length_c       10.143
_cell_angle_alpha    109.065
_cell_angle_beta     70.935
_cell_angle_gamma    120

_space_group_name_H-M_alt    "P 1"
_space_group_IT_number       1

loop_
  _space_group_symop_operation_xyz
  'x, y, z'

loop_
  _atom_site_type_symbol
  _atom_site_label
  _atom_site_symmetry_multiplicity
  _atom_site_fract_x
  _atom_site_fract_y
  _atom_site_fract_z
  _atom_site_occupancy
  I   I1        1.0  0.31600  0.68400  0.05260  1.0000
  I   I2        1.0  0.18400  0.81600  0.44700  1.0000
  I   I3        1.0  0.81600  0.18400  0.55300  1.0000
  I   I4        1.0  0.68400  0.31600  0.94700  1.0000
  In  In1       1.0  0.25000  0.19000  0.25000  1.0000
  In  In2       1.0  0.81000  0.31000  0.25000  1.0000
  In  In3       1.0  0.69000  0.75000  0.25000  1.0000
  In  In4       1.0  0.31000  0.25000  0.75000  1.0000
  In  In5       1.0  0.19000  0.69000  0.75000  1.0000
  In  In6       1.0  0.75000  0.81000  0.75000  1.0000
