data_image0
_chemical_formula_structural       Ce8Li12Nb12O48
_chemical_formula_sum              "Ce8 Li12 Nb12 O48"
_cell_length_a       10.6519
_cell_length_b       10.6519
_cell_length_c       10.6519
_cell_angle_alpha    109.471
_cell_angle_beta     109.471
_cell_angle_gamma    109.471

_space_group_name_H-M_alt    "P 1"
_space_group_IT_number       1

loop_
  _space_group_symop_operation_xyz
  'x, y, z'

loop_
  _atom_site_type_symbol
  _atom_site_label
  _atom_site_symmetry_multiplicity
  _atom_site_fract_x
  _atom_site_fract_y
  _atom_site_fract_z
  _atom_site_occupancy
  Ce  Ce1       1.0  0.00000  0.00000  0.00000  1.0000
  Ce  Ce2       1.0  0.50000  0.00000  0.00000  1.0000
  Ce  Ce3       1.0  0.00000  0.50000  0.00000  1.0000
  Ce  Ce4       1.0  0.50000  0.50000  0.00000  1.0000
  Ce  Ce5       1.0  0.00000  0.00000  0.50000  1.0000
  Ce  Ce6       1.0  0.50000  0.50000  0.50000  1.0000
  Ce  Ce7       1.0  0.50000  0.00000  0.50000  1.0000
  Ce  Ce8       1.0  0.00000  0.50000  0.50000  1.0000
  Li  Li1       1.0  0.75000  0.37500  0.12500  1.0000
  Li  Li2       1.0  0.87500  0.75000  0.12500  1.0000
  Li  Li3       1.0  0.12500  0.37500  0.25000  1.0000
  Li  Li4       1.0  0.62500  0.87500  0.25000  1.0000
  Li  Li5       1.0  0.25000  0.12500  0.37500  1.0000
  Li  Li6       1.0  0.62500  0.25000  0.37500  1.0000
  Li  Li7       1.0  0.75000  0.87500  0.62500  1.0000
  Li  Li8       1.0  0.37500  0.75000  0.62500  1.0000
  Li  Li9       1.0  0.37500  0.12500  0.75000  1.0000
  Li  Li10      1.0  0.87500  0.62500  0.75000  1.0000
  Li  Li11      1.0  0.25000  0.62500  0.87500  1.0000
  Li  Li12      1.0  0.12500  0.25000  0.87500  1.0000
  Nb  Nb1       1.0  0.37500  0.25000  0.12500  1.0000
  Nb  Nb2       1.0  0.25000  0.87500  0.12500  1.0000
  Nb  Nb3       1.0  0.37500  0.62500  0.25000  1.0000
  Nb  Nb4       1.0  0.87500  0.12500  0.25000  1.0000
  Nb  Nb5       1.0  0.75000  0.62500  0.37500  1.0000
  Nb  Nb6       1.0  0.12500  0.75000  0.37500  1.0000
  Nb  Nb7       1.0  0.87500  0.25000  0.62500  1.0000
  Nb  Nb8       1.0  0.25000  0.37500  0.62500  1.0000
  Nb  Nb9       1.0  0.62500  0.37500  0.75000  1.0000
  Nb  Nb10      1.0  0.12500  0.87500  0.75000  1.0000
  Nb  Nb11      1.0  0.75000  0.12500  0.87500  1.0000
  Nb  Nb12      1.0  0.62500  0.75000  0.87500  1.0000
  O   O1        1.0  0.30800  0.42300  0.05710  1.0000
  O   O2        1.0  0.24900  0.63400  0.05710  1.0000
  O   O3        1.0  0.63400  0.88500  0.07740  1.0000
  O   O4        1.0  0.94300  0.19200  0.07740  1.0000
  O   O5        1.0  0.86600  0.92300  0.11500  1.0000
  O   O6        1.0  0.74900  0.19200  0.11500  1.0000
  O   O7        1.0  0.57700  0.38500  0.13400  1.0000
  O   O8        1.0  0.05710  0.74900  0.13400  1.0000
  O   O9        1.0  0.24900  0.11500  0.19200  1.0000
  O   O10       1.0  0.44300  0.07740  0.19200  1.0000
  O   O11       1.0  0.13400  0.55700  0.24900  1.0000
  O   O12       1.0  0.61500  0.69200  0.24900  1.0000
  O   O13       1.0  0.30800  0.38500  0.25100  1.0000
  O   O14       1.0  0.44300  0.86600  0.25100  1.0000
  O   O15       1.0  0.92300  0.55700  0.30800  1.0000
  O   O16       1.0  0.88500  0.75100  0.30800  1.0000
  O   O17       1.0  0.61500  0.42300  0.36600  1.0000
  O   O18       1.0  0.25100  0.94300  0.36600  1.0000
  O   O19       1.0  0.07740  0.13400  0.38500  1.0000
  O   O20       1.0  0.80800  0.25100  0.38500  1.0000
  O   O21       1.0  0.11500  0.36600  0.42300  1.0000
  O   O22       1.0  0.80800  0.05710  0.42300  1.0000
  O   O23       1.0  0.57700  0.69200  0.44300  1.0000
  O   O24       1.0  0.36600  0.75100  0.44300  1.0000
  O   O25       1.0  0.63400  0.24900  0.55700  1.0000
  O   O26       1.0  0.42300  0.30800  0.55700  1.0000
  O   O27       1.0  0.88500  0.63400  0.57700  1.0000
  O   O28       1.0  0.19200  0.94300  0.57700  1.0000
  O   O29       1.0  0.92300  0.86600  0.61500  1.0000
  O   O30       1.0  0.19200  0.74900  0.61500  1.0000
  O   O31       1.0  0.74900  0.05710  0.63400  1.0000
  O   O32       1.0  0.38500  0.57700  0.63400  1.0000
  O   O33       1.0  0.07740  0.44300  0.69200  1.0000
  O   O34       1.0  0.11500  0.24900  0.69200  1.0000
  O   O35       1.0  0.55700  0.13400  0.74900  1.0000
  O   O36       1.0  0.69200  0.61500  0.74900  1.0000
  O   O37       1.0  0.38500  0.30800  0.75100  1.0000
  O   O38       1.0  0.86600  0.44300  0.75100  1.0000
  O   O39       1.0  0.75100  0.88500  0.80800  1.0000
  O   O40       1.0  0.55700  0.92300  0.80800  1.0000
  O   O41       1.0  0.94300  0.25100  0.86600  1.0000
  O   O42       1.0  0.42300  0.61500  0.86600  1.0000
  O   O43       1.0  0.13400  0.07740  0.88500  1.0000
  O   O44       1.0  0.25100  0.80800  0.88500  1.0000
  O   O45       1.0  0.36600  0.11500  0.92300  1.0000
  O   O46       1.0  0.05710  0.80800  0.92300  1.0000
  O   O47       1.0  0.69200  0.57700  0.94300  1.0000
  O   O48       1.0  0.75100  0.36600  0.94300  1.0000
