data_image0
_chemical_formula_structural       Fe6Ga6Ho
_chemical_formula_sum              "Fe6 Ga6 Ho1"
_cell_length_a       5.02192
_cell_length_b       6.54426
_cell_length_c       6.54426
_cell_angle_alpha    99.3349
_cell_angle_beta     112.562
_cell_angle_gamma    67.4376

_space_group_name_H-M_alt    "P 1"
_space_group_IT_number       1

loop_
  _space_group_symop_operation_xyz
  'x, y, z'

loop_
  _atom_site_type_symbol
  _atom_site_label
  _atom_site_symmetry_multiplicity
  _atom_site_fract_x
  _atom_site_fract_y
  _atom_site_fract_z
  _atom_site_occupancy
  Fe  Fe1       1.0  0.00000  0.50000  0.00000  1.0000
  Fe  Fe2       1.0  0.50000  0.50000  0.00000  1.0000
  Fe  Fe3       1.0  0.50000  0.24400  0.24400  1.0000
  Fe  Fe4       1.0  0.00000  0.00000  0.50000  1.0000
  Fe  Fe5       1.0  0.50000  0.00000  0.50000  1.0000
  Fe  Fe6       1.0  0.50000  0.75600  0.75600  1.0000
  Ga  Ga1       1.0  0.68200  0.81800  0.18200  1.0000
  Ga  Ga2       1.0  0.00000  0.33400  0.33400  1.0000
  Ga  Ga3       1.0  0.34300  0.65700  0.34300  1.0000
  Ga  Ga4       1.0  0.65700  0.34300  0.65700  1.0000
  Ga  Ga5       1.0  0.00000  0.66600  0.66600  1.0000
  Ga  Ga6       1.0  0.31800  0.18200  0.81800  1.0000
  Ho  Ho1       1.0  0.00000  0.00000  0.00000  1.0000
