data_image0
_chemical_formula_structural       Cr2Li2O8Rb2
_chemical_formula_sum              "Cr2 Li2 O8 Rb2"
_cell_length_a       5.34287
_cell_length_b       5.3429
_cell_length_c       9.10312
_cell_angle_alpha    90
_cell_angle_beta     90
_cell_angle_gamma    120

_space_group_name_H-M_alt    "P 1"
_space_group_IT_number       1

loop_
  _space_group_symop_operation_xyz
  'x, y, z'

loop_
  _atom_site_type_symbol
  _atom_site_label
  _atom_site_symmetry_multiplicity
  _atom_site_fract_x
  _atom_site_fract_y
  _atom_site_fract_z
  _atom_site_occupancy
  Cr  Cr1       1.0  0.66700  0.33300  0.29100  1.0000
  Cr  Cr2       1.0  0.33300  0.66700  0.79100  1.0000
  Li  Li1       1.0  0.33300  0.66700  0.18400  1.0000
  Li  Li2       1.0  0.66700  0.33300  0.68400  1.0000
  O   O1        1.0  0.37400  0.33700  0.23400  1.0000
  O   O2        1.0  0.66300  0.03700  0.23400  1.0000
  O   O3        1.0  0.96300  0.62600  0.23400  1.0000
  O   O4        1.0  0.66700  0.33300  0.47300  1.0000
  O   O5        1.0  0.62600  0.66300  0.73400  1.0000
  O   O6        1.0  0.33700  0.96300  0.73400  1.0000
  O   O7        1.0  0.03700  0.37400  0.73400  1.0000
  O   O8        1.0  0.33300  0.66700  0.97300  1.0000
  Rb  Rb1       1.0  0.99999  1.00000  0.49500  1.0000
  Rb  Rb2       1.0  0.00001  0.00000  0.99500  1.0000
