data_image0
_chemical_formula_structural       CsF10Lu3
_chemical_formula_sum              "Cs1 F10 Lu3"
_cell_length_a       4.16674
_cell_length_b       7.72465
_cell_length_c       7.72465
_cell_angle_alpha    60.0264
_cell_angle_beta     90.0315
_cell_angle_gamma    90.0315

_space_group_name_H-M_alt    "P 1"
_space_group_IT_number       1

loop_
  _space_group_symop_operation_xyz
  'x, y, z'

loop_
  _atom_site_type_symbol
  _atom_site_label
  _atom_site_symmetry_multiplicity
  _atom_site_fract_x
  _atom_site_fract_y
  _atom_site_fract_z
  _atom_site_occupancy
  Cs  Cs1       1.0  0.46600  0.50500  0.50500  1.0000
  F   F1        1.0  0.52300  0.50700  0.00214  1.0000
  F   F2        1.0  0.52500  0.00306  0.00306  1.0000
  F   F3        1.0  0.04590  0.71700  0.07810  1.0000
  F   F4        1.0  0.17900  0.17100  0.17100  1.0000
  F   F5        1.0  0.94300  0.33900  0.33900  1.0000
  F   F6        1.0  0.94600  0.83500  0.33900  1.0000
  F   F7        1.0  0.52300  0.00214  0.50700  1.0000
  F   F8        1.0  0.04590  0.07810  0.71700  1.0000
  F   F9        1.0  0.04410  0.71800  0.71800  1.0000
  F   F10       1.0  0.94600  0.33900  0.83500  1.0000
  Lu  Lu1       1.0  0.02280  0.01510  0.01510  1.0000
  Lu  Lu2       1.0  0.02170  0.48300  0.01530  1.0000
  Lu  Lu3       1.0  0.02170  0.01530  0.48300  1.0000
