data_image0
_chemical_formula_structural       La10Sn6
_chemical_formula_sum              "La10 Sn6"
_cell_length_a       9.50312
_cell_length_b       9.50312
_cell_length_c       6.98931
_cell_angle_alpha    90
_cell_angle_beta     90
_cell_angle_gamma    120.004

_space_group_name_H-M_alt    "P 1"
_space_group_IT_number       1

loop_
  _space_group_symop_operation_xyz
  'x, y, z'

loop_
  _atom_site_type_symbol
  _atom_site_label
  _atom_site_symmetry_multiplicity
  _atom_site_fract_x
  _atom_site_fract_y
  _atom_site_fract_z
  _atom_site_occupancy
  La  La1       1.0  0.66700  0.33300  0.00000  1.0000
  La  La2       1.0  0.33300  0.66700  0.00000  1.0000
  La  La3       1.0  0.24500  0.00000  0.25000  1.0000
  La  La4       1.0  0.00000  0.24500  0.25000  1.0000
  La  La5       1.0  0.75500  0.75500  0.25000  1.0000
  La  La6       1.0  0.66700  0.33300  0.50000  1.0000
  La  La7       1.0  0.33300  0.66700  0.50000  1.0000
  La  La8       1.0  0.75500  0.00000  0.75000  1.0000
  La  La9       1.0  0.00000  0.75500  0.75000  1.0000
  La  La10      1.0  0.24500  0.24500  0.75000  1.0000
  Sn  Sn1       1.0  0.39200  0.39200  0.25000  1.0000
  Sn  Sn2       1.0  0.60800  0.00000  0.25000  1.0000
  Sn  Sn3       1.0  0.00000  0.60800  0.25000  1.0000
  Sn  Sn4       1.0  0.60800  0.60800  0.75000  1.0000
  Sn  Sn5       1.0  0.39200  0.00001  0.75000  1.0000
  Sn  Sn6       1.0  0.00001  0.39200  0.75000  1.0000
