data_image0
_chemical_formula_structural       C6Cd2FeN6
_chemical_formula_sum              "C6 Cd2 Fe1 N6"
_cell_length_a       6.28667
_cell_length_b       6.28684
_cell_length_c       6.32141
_cell_angle_alpha    89.9986
_cell_angle_beta     90.0033
_cell_angle_gamma    119.999

_space_group_name_H-M_alt    "P 1"
_space_group_IT_number       1

loop_
  _space_group_symop_operation_xyz
  'x, y, z'

loop_
  _atom_site_type_symbol
  _atom_site_label
  _atom_site_symmetry_multiplicity
  _atom_site_fract_x
  _atom_site_fract_y
  _atom_site_fract_z
  _atom_site_occupancy
  C   C1        1.0  0.76000  0.76700  0.17500  1.0000
  C   C2        1.0  0.00702  0.24000  0.17500  1.0000
  C   C3        1.0  0.23300  0.99300  0.17500  1.0000
  C   C4        1.0  0.76700  0.00702  0.82500  1.0000
  C   C5        1.0  0.99300  0.76000  0.82500  1.0000
  C   C6        1.0  0.24000  0.23300  0.82500  1.0000
  Cd  Cd1       1.0  0.66700  0.33300  0.48800  1.0000
  Cd  Cd2       1.0  0.33300  0.66700  0.51200  1.0000
  Fe  Fe1       1.0  0.00000  0.00000  0.00000  1.0000
  N   N1        1.0  0.37600  0.99200  0.29600  1.0000
  N   N2        1.0  0.00758  0.38400  0.29600  1.0000
  N   N3        1.0  0.61600  0.62400  0.29600  1.0000
  N   N4        1.0  0.38400  0.37600  0.70400  1.0000
  N   N5        1.0  0.99200  0.61600  0.70400  1.0000
  N   N6        1.0  0.62400  0.00758  0.70400  1.0000
