data_image0
_chemical_formula_structural       CrPr2Se4
_chemical_formula_sum              "Cr1 Pr2 Se4"
_cell_length_a       4.17068
_cell_length_b       7.51258
_cell_length_c       7.33759
_cell_angle_alpha    118.58
_cell_angle_beta     73.489
_cell_angle_gamma    90

_space_group_name_H-M_alt    "P 1"
_space_group_IT_number       1

loop_
  _space_group_symop_operation_xyz
  'x, y, z'

loop_
  _atom_site_type_symbol
  _atom_site_label
  _atom_site_symmetry_multiplicity
  _atom_site_fract_x
  _atom_site_fract_y
  _atom_site_fract_z
  _atom_site_occupancy
  Cr  Cr1       1.0  0.00000  0.00000  0.00000  1.0000
  Pr  Pr1       1.0  0.28600  0.70700  0.42800  1.0000
  Pr  Pr2       1.0  0.71400  0.29300  0.57200  1.0000
  Se  Se1       1.0  0.89600  0.39500  0.20800  1.0000
  Se  Se2       1.0  0.37100  0.00247  0.25900  1.0000
  Se  Se3       1.0  0.62900  0.99800  0.74100  1.0000
  Se  Se4       1.0  0.10400  0.60500  0.79200  1.0000
