data_image0
_chemical_formula_structural       Ca4Ge4Ni6
_chemical_formula_sum              "Ca4 Ge4 Ni6"
_cell_length_a       9.05808
_cell_length_b       4.01034
_cell_length_c       7.02122
_cell_angle_alpha    90
_cell_angle_beta     90
_cell_angle_gamma    90

_space_group_name_H-M_alt    "P 1"
_space_group_IT_number       1

loop_
  _space_group_symop_operation_xyz
  'x, y, z'

loop_
  _atom_site_type_symbol
  _atom_site_label
  _atom_site_symmetry_multiplicity
  _atom_site_fract_x
  _atom_site_fract_y
  _atom_site_fract_z
  _atom_site_occupancy
  Ca  Ca1       1.0  0.75000  0.00000  0.17000  1.0000
  Ca  Ca2       1.0  0.00000  0.50000  0.50000  1.0000
  Ca  Ca3       1.0  0.50000  0.50000  0.50000  1.0000
  Ca  Ca4       1.0  0.25000  0.00000  0.83000  1.0000
  Ge  Ge1       1.0  0.00000  0.50000  0.00000  1.0000
  Ge  Ge2       1.0  0.50000  0.50000  0.00000  1.0000
  Ge  Ge3       1.0  0.25000  0.00000  0.40000  1.0000
  Ge  Ge4       1.0  0.75000  0.00000  0.60000  1.0000
  Ni  Ni1       1.0  0.07350  0.00000  0.15500  1.0000
  Ni  Ni2       1.0  0.42700  0.00000  0.15500  1.0000
  Ni  Ni3       1.0  0.25000  0.50000  0.18500  1.0000
  Ni  Ni4       1.0  0.75000  0.50000  0.81500  1.0000
  Ni  Ni5       1.0  0.57300  0.00000  0.84500  1.0000
  Ni  Ni6       1.0  0.92700  0.00000  0.84500  1.0000
