data_image0
_chemical_formula_structural       Eu4Ge2S8
_chemical_formula_sum              "Eu4 Ge2 S8"
_cell_length_a       6.60533
_cell_length_b       7.95766
_cell_length_c       6.71023
_cell_angle_alpha    90
_cell_angle_beta     90
_cell_angle_gamma    107.764

_space_group_name_H-M_alt    "P 1"
_space_group_IT_number       1

loop_
  _space_group_symop_operation_xyz
  'x, y, z'

loop_
  _atom_site_type_symbol
  _atom_site_label
  _atom_site_symmetry_multiplicity
  _atom_site_fract_x
  _atom_site_fract_y
  _atom_site_fract_z
  _atom_site_occupancy
  Eu  Eu1       1.0  0.75500  0.56400  0.22700  1.0000
  Eu  Eu2       1.0  0.72000  0.05400  0.23800  1.0000
  Eu  Eu3       1.0  0.24500  0.43600  0.72700  1.0000
  Eu  Eu4       1.0  0.28000  0.94600  0.73800  1.0000
  Ge  Ge1       1.0  0.26600  0.19500  0.26800  1.0000
  Ge  Ge2       1.0  0.73400  0.80500  0.76800  1.0000
  S   S1        1.0  0.47200  0.25100  0.99800  1.0000
  S   S2        1.0  0.48500  0.73700  0.00552  1.0000
  S   S3        1.0  0.07090  0.37600  0.30200  1.0000
  S   S4        1.0  0.08190  0.91400  0.31300  1.0000
  S   S5        1.0  0.52800  0.74900  0.49800  1.0000
  S   S6        1.0  0.51500  0.26300  0.50600  1.0000
  S   S7        1.0  0.92900  0.62400  0.80200  1.0000
  S   S8        1.0  0.91800  0.08620  0.81300  1.0000
