data_image0
_chemical_formula_structural       C6FeN6Sn2
_chemical_formula_sum              "C6 Fe1 N6 Sn2"
_cell_length_a       5.34557
_cell_length_b       7.14452
_cell_length_c       7.14379
_cell_angle_alpha    120.006
_cell_angle_beta     90.0115
_cell_angle_gamma    89.9943

_space_group_name_H-M_alt    "P 1"
_space_group_IT_number       1

loop_
  _space_group_symop_operation_xyz
  'x, y, z'

loop_
  _atom_site_type_symbol
  _atom_site_label
  _atom_site_symmetry_multiplicity
  _atom_site_fract_x
  _atom_site_fract_y
  _atom_site_fract_z
  _atom_site_occupancy
  C   C1        1.0  0.80400  0.83900  0.08320  1.0000
  C   C2        1.0  0.80400  0.24500  0.16100  1.0000
  C   C3        1.0  0.19600  0.08330  0.24500  1.0000
  C   C4        1.0  0.80400  0.91700  0.75500  1.0000
  C   C5        1.0  0.19600  0.75500  0.83900  1.0000
  C   C6        1.0  0.19600  0.16100  0.91700  1.0000
  Fe  Fe1       1.0  0.00000  0.00000  0.00000  1.0000
  N   N1        1.0  0.68700  0.72800  0.13100  1.0000
  N   N2        1.0  0.68700  0.40200  0.27200  1.0000
  N   N3        1.0  0.31200  0.13100  0.40200  1.0000
  N   N4        1.0  0.68800  0.86900  0.59800  1.0000
  N   N5        1.0  0.31300  0.59800  0.72800  1.0000
  N   N6        1.0  0.31300  0.27200  0.86900  1.0000
  Sn  Sn1       1.0  0.41700  0.66700  0.33300  1.0000
  Sn  Sn2       1.0  0.58300  0.33300  0.66700  1.0000
