data_image0
_chemical_formula_structural       Ag6K2Te4
_chemical_formula_sum              "Ag6 K2 Te4"
_cell_length_a       3.19877
_cell_length_b       18.2311
_cell_length_c       7.39122
_cell_angle_alpha    126.963
_cell_angle_beta     90
_cell_angle_gamma    95.0329

_space_group_name_H-M_alt    "P 1"
_space_group_IT_number       1

loop_
  _space_group_symop_operation_xyz
  'x, y, z'

loop_
  _atom_site_type_symbol
  _atom_site_label
  _atom_site_symmetry_multiplicity
  _atom_site_fract_x
  _atom_site_fract_y
  _atom_site_fract_z
  _atom_site_occupancy
  Ag  Ag1       1.0  0.69400  0.38900  0.09670  1.0000
  Ag  Ag2       1.0  0.39400  0.78800  0.32900  1.0000
  Ag  Ag3       1.0  0.27500  0.54900  0.44700  1.0000
  Ag  Ag4       1.0  0.72500  0.45100  0.55300  1.0000
  Ag  Ag5       1.0  0.60600  0.21200  0.67100  1.0000
  Ag  Ag6       1.0  0.30600  0.61100  0.90300  1.0000
  K   K1        1.0  0.59900  0.19800  0.15200  1.0000
  K   K2        1.0  0.40100  0.80200  0.84800  1.0000
  Te  Te1       1.0  0.51700  0.03470  0.29100  1.0000
  Te  Te2       1.0  0.81900  0.63800  0.29400  1.0000
  Te  Te3       1.0  0.18100  0.36200  0.70600  1.0000
  Te  Te4       1.0  0.48300  0.96500  0.70900  1.0000
