data_image0
_chemical_formula_structural       Pt10Ti6
_chemical_formula_sum              "Pt10 Ti6"
_cell_length_a       5.47107
_cell_length_b       7.39259
_cell_length_c       7.39259
_cell_angle_alpha    96.3922
_cell_angle_beta     111.718
_cell_angle_gamma    111.718

_space_group_name_H-M_alt    "P 1"
_space_group_IT_number       1

loop_
  _space_group_symop_operation_xyz
  'x, y, z'

loop_
  _atom_site_type_symbol
  _atom_site_label
  _atom_site_symmetry_multiplicity
  _atom_site_fract_x
  _atom_site_fract_y
  _atom_site_fract_z
  _atom_site_occupancy
  Pt  Pt1       1.0  0.25000  0.49300  0.00664  1.0000
  Pt  Pt2       1.0  0.78600  0.89500  0.10500  1.0000
  Pt  Pt3       1.0  0.75000  0.25000  0.25000  1.0000
  Pt  Pt4       1.0  0.28600  0.60500  0.39500  1.0000
  Pt  Pt5       1.0  0.25000  0.00664  0.49300  1.0000
  Pt  Pt6       1.0  0.75000  0.99300  0.50700  1.0000
  Pt  Pt7       1.0  0.71400  0.39500  0.60500  1.0000
  Pt  Pt8       1.0  0.25000  0.75000  0.75000  1.0000
  Pt  Pt9       1.0  0.21400  0.10500  0.89500  1.0000
  Pt  Pt10      1.0  0.75000  0.50700  0.99300  1.0000
  Ti  Ti1       1.0  0.29000  0.85600  0.14400  1.0000
  Ti  Ti2       1.0  0.25000  0.25000  0.25000  1.0000
  Ti  Ti3       1.0  0.79000  0.64400  0.35600  1.0000
  Ti  Ti4       1.0  0.21000  0.35600  0.64400  1.0000
  Ti  Ti5       1.0  0.75000  0.75000  0.75000  1.0000
  Ti  Ti6       1.0  0.71000  0.14400  0.85600  1.0000
