data_image0
_chemical_formula_structural       Fe2U12
_chemical_formula_sum              "Fe2 U12"
_cell_length_a       5.22757
_cell_length_b       7.62247
_cell_length_c       7.62247
_cell_angle_alpha    96.7527
_cell_angle_beta     69.946
_cell_angle_gamma    110.054

_space_group_name_H-M_alt    "P 1"
_space_group_IT_number       1

loop_
  _space_group_symop_operation_xyz
  'x, y, z'

loop_
  _atom_site_type_symbol
  _atom_site_label
  _atom_site_symmetry_multiplicity
  _atom_site_fract_x
  _atom_site_fract_y
  _atom_site_fract_z
  _atom_site_occupancy
  Fe  Fe1       1.0  0.25000  0.00000  0.00000  1.0000
  Fe  Fe2       1.0  0.75000  0.00000  0.00000  1.0000
  U   U1        1.0  0.28300  0.68200  0.11600  1.0000
  U   U2        1.0  0.10100  0.31800  0.11600  1.0000
  U   U3        1.0  0.59400  0.50000  0.31100  1.0000
  U   U4        1.0  0.39900  0.11600  0.31800  1.0000
  U   U5        1.0  0.78300  0.88400  0.31800  1.0000
  U   U6        1.0  0.90600  0.31100  0.50000  1.0000
  U   U7        1.0  0.09440  0.68900  0.50000  1.0000
  U   U8        1.0  0.21700  0.11600  0.68200  1.0000
  U   U9        1.0  0.60100  0.88400  0.68200  1.0000
  U   U10       1.0  0.40600  0.50000  0.68900  1.0000
  U   U11       1.0  0.89900  0.68200  0.88400  1.0000
  U   U12       1.0  0.71700  0.31800  0.88400  1.0000
