data_image0
_chemical_formula_structural       CeCl6Cs2
_chemical_formula_sum              "Ce1 Cl6 Cs2"
_cell_length_a       9.6728
_cell_length_b       9.67292
_cell_length_c       5.90189
_cell_angle_alpha    90
_cell_angle_beta     90.0107
_cell_angle_gamma    120

_space_group_name_H-M_alt    "P 1"
_space_group_IT_number       1

loop_
  _space_group_symop_operation_xyz
  'x, y, z'

loop_
  _atom_site_type_symbol
  _atom_site_label
  _atom_site_symmetry_multiplicity
  _atom_site_fract_x
  _atom_site_fract_y
  _atom_site_fract_z
  _atom_site_occupancy
  Ce  Ce1       1.0  0.00000  0.00000  0.00000  1.0000
  Cl  Cl1       1.0  0.14000  0.27900  0.25900  1.0000
  Cl  Cl2       1.0  0.14000  0.86000  0.25900  1.0000
  Cl  Cl3       1.0  0.72100  0.86000  0.25900  1.0000
  Cl  Cl4       1.0  0.27900  0.14000  0.74100  1.0000
  Cl  Cl5       1.0  0.86000  0.14000  0.74100  1.0000
  Cl  Cl6       1.0  0.86000  0.72100  0.74100  1.0000
  Cs  Cs1       1.0  0.33300  0.66700  0.23200  1.0000
  Cs  Cs2       1.0  0.66700  0.33300  0.76800  1.0000
