data_image0
_chemical_formula_structural       As2Ga4Rh10
_chemical_formula_sum              "As2 Ga4 Rh10"
_cell_length_a       5.50213
_cell_length_b       10.289
_cell_length_c       4.05503
_cell_angle_alpha    90
_cell_angle_beta     90
_cell_angle_gamma    90

_space_group_name_H-M_alt    "P 1"
_space_group_IT_number       1

loop_
  _space_group_symop_operation_xyz
  'x, y, z'

loop_
  _atom_site_type_symbol
  _atom_site_label
  _atom_site_symmetry_multiplicity
  _atom_site_fract_x
  _atom_site_fract_y
  _atom_site_fract_z
  _atom_site_occupancy
  As  As1       1.0  0.50000  0.00000  0.00000  1.0000
  As  As2       1.0  0.00000  0.50000  0.00000  1.0000
  Ga  Ga1       1.0  0.88600  0.15000  0.50000  1.0000
  Ga  Ga2       1.0  0.38600  0.35000  0.50000  1.0000
  Ga  Ga3       1.0  0.61400  0.65000  0.50000  1.0000
  Ga  Ga4       1.0  0.11400  0.85000  0.50000  1.0000
  Rh  Rh1       1.0  0.00000  0.00000  0.00000  1.0000
  Rh  Rh2       1.0  0.63600  0.22500  0.00000  1.0000
  Rh  Rh3       1.0  0.13600  0.27500  0.00000  1.0000
  Rh  Rh4       1.0  0.50000  0.50000  0.00000  1.0000
  Rh  Rh5       1.0  0.86400  0.72500  0.00000  1.0000
  Rh  Rh6       1.0  0.36400  0.77500  0.00000  1.0000
  Rh  Rh7       1.0  0.33200  0.10300  0.50000  1.0000
  Rh  Rh8       1.0  0.83200  0.39700  0.50000  1.0000
  Rh  Rh9       1.0  0.16800  0.60300  0.50000  1.0000
  Rh  Rh10      1.0  0.66800  0.89700  0.50000  1.0000
