data_image0
_chemical_formula_structural       Ba6Ca2O18Ru4
_chemical_formula_sum              "Ba6 Ca2 O18 Ru4"
_cell_length_a       5.84249
_cell_length_b       5.84259
_cell_length_c       14.3148
_cell_angle_alpha    89.995
_cell_angle_beta     90.0004
_cell_angle_gamma    120.012

_space_group_name_H-M_alt    "P 1"
_space_group_IT_number       1

loop_
  _space_group_symop_operation_xyz
  'x, y, z'

loop_
  _atom_site_type_symbol
  _atom_site_label
  _atom_site_symmetry_multiplicity
  _atom_site_fract_x
  _atom_site_fract_y
  _atom_site_fract_z
  _atom_site_occupancy
  Ba  Ba1       1.0  0.33300  0.66700  0.09160  1.0000
  Ba  Ba2       1.0  0.66700  0.33300  0.59200  1.0000
  Ba  Ba3       1.0  0.66700  0.33300  0.90800  1.0000
  Ba  Ba4       1.0  0.33300  0.66700  0.40800  1.0000
  Ba  Ba5       1.0  0.00000  0.00000  0.25000  1.0000
  Ba  Ba6       1.0  0.00001  0.00004  0.75000  1.0000
  Ca  Ca1       1.0  0.00003  0.00000  0.00000  1.0000
  Ca  Ca2       1.0  0.00001  0.00000  0.50000  1.0000
  O   O1        1.0  0.82300  0.17700  0.09000  1.0000
  O   O2        1.0  0.17700  0.82300  0.59000  1.0000
  O   O3        1.0  0.82300  0.64500  0.09000  1.0000
  O   O4        1.0  0.35500  0.17700  0.09000  1.0000
  O   O5        1.0  0.64500  0.82300  0.59000  1.0000
  O   O6        1.0  0.17700  0.35500  0.59000  1.0000
  O   O7        1.0  0.64500  0.82300  0.91000  1.0000
  O   O8        1.0  0.17700  0.35500  0.91000  1.0000
  O   O9        1.0  0.17700  0.82300  0.91000  1.0000
  O   O10       1.0  0.82300  0.17700  0.41000  1.0000
  O   O11       1.0  0.82300  0.64500  0.41000  1.0000
  O   O12       1.0  0.35500  0.17700  0.41000  1.0000
  O   O13       1.0  0.50500  0.49500  0.25000  1.0000
  O   O14       1.0  0.49500  0.50500  0.75000  1.0000
  O   O15       1.0  0.50500  0.00947  0.25000  1.0000
  O   O16       1.0  0.99100  0.49500  0.25000  1.0000
  O   O17       1.0  0.00949  0.50500  0.75000  1.0000
  O   O18       1.0  0.49500  0.99100  0.75000  1.0000
  Ru  Ru1       1.0  0.33300  0.66700  0.83600  1.0000
  Ru  Ru2       1.0  0.66700  0.33300  0.33600  1.0000
  Ru  Ru3       1.0  0.66700  0.33300  0.16400  1.0000
  Ru  Ru4       1.0  0.33300  0.66700  0.66500  1.0000
