data_image0
_chemical_formula_structural       Pr10Tl6
_chemical_formula_sum              "Pr10 Tl6"
_cell_length_a       6.25812
_cell_length_b       9.48419
_cell_length_c       9.48419
_cell_angle_alpha    96.249
_cell_angle_beta     70.7358
_cell_angle_gamma    109.264

_space_group_name_H-M_alt    "P 1"
_space_group_IT_number       1

loop_
  _space_group_symop_operation_xyz
  'x, y, z'

loop_
  _atom_site_type_symbol
  _atom_site_label
  _atom_site_symmetry_multiplicity
  _atom_site_fract_x
  _atom_site_fract_y
  _atom_site_fract_z
  _atom_site_occupancy
  Pr  Pr1       1.0  0.78000  0.69400  0.13400  1.0000
  Pr  Pr2       1.0  0.58600  0.30600  0.13400  1.0000
  Pr  Pr3       1.0  0.28000  0.86600  0.30600  1.0000
  Pr  Pr4       1.0  0.91400  0.13400  0.30600  1.0000
  Pr  Pr5       1.0  0.25000  0.50000  0.50000  1.0000
  Pr  Pr6       1.0  0.75000  0.50000  0.50000  1.0000
  Pr  Pr7       1.0  0.72000  0.13400  0.69400  1.0000
  Pr  Pr8       1.0  0.08590  0.86600  0.69400  1.0000
  Pr  Pr9       1.0  0.22000  0.30600  0.86600  1.0000
  Pr  Pr10      1.0  0.41400  0.69400  0.86600  1.0000
  Tl  Tl1       1.0  0.25000  0.00000  0.00000  1.0000
  Tl  Tl2       1.0  0.75000  0.00000  0.00000  1.0000
  Tl  Tl3       1.0  0.16100  0.50000  0.17800  1.0000
  Tl  Tl4       1.0  0.33900  0.17800  0.50000  1.0000
  Tl  Tl5       1.0  0.66100  0.82200  0.50000  1.0000
  Tl  Tl6       1.0  0.83900  0.50000  0.82200  1.0000
