data_image0
_chemical_formula_structural       C6FeN6Pb2
_chemical_formula_sum              "C6 Fe1 N6 Pb2"
_cell_length_a       7.07841
_cell_length_b       7.07845
_cell_length_c       5.42223
_cell_angle_alpha    90.0095
_cell_angle_beta     89.9916
_cell_angle_gamma    119.997

_space_group_name_H-M_alt    "P 1"
_space_group_IT_number       1

loop_
  _space_group_symop_operation_xyz
  'x, y, z'

loop_
  _atom_site_type_symbol
  _atom_site_label
  _atom_site_symmetry_multiplicity
  _atom_site_fract_x
  _atom_site_fract_y
  _atom_site_fract_z
  _atom_site_occupancy
  C   C1        1.0  0.17900  0.93800  0.19200  1.0000
  C   C2        1.0  0.75800  0.82000  0.19200  1.0000
  C   C3        1.0  0.06250  0.24200  0.19200  1.0000
  C   C4        1.0  0.93700  0.75800  0.80800  1.0000
  C   C5        1.0  0.24200  0.18000  0.80800  1.0000
  C   C6        1.0  0.82100  0.06250  0.80800  1.0000
  Fe  Fe1       1.0  0.00000  0.00000  0.00000  1.0000
  N   N1        1.0  0.09330  0.39700  0.30600  1.0000
  N   N2        1.0  0.60300  0.69600  0.30600  1.0000
  N   N3        1.0  0.30400  0.90700  0.30700  1.0000
  N   N4        1.0  0.69600  0.09330  0.69300  1.0000
  N   N5        1.0  0.39700  0.30400  0.69400  1.0000
  N   N6        1.0  0.90700  0.60300  0.69400  1.0000
  Pb  Pb1       1.0  0.66700  0.33300  0.39500  1.0000
  Pb  Pb2       1.0  0.33300  0.66700  0.60500  1.0000
