data_image0
_chemical_formula_structural       Mg2O8W2
_chemical_formula_sum              "Mg2 O8 W2"
_cell_length_a       4.66763
_cell_length_b       5.66941
_cell_length_c       4.92461
_cell_angle_alpha    90
_cell_angle_beta     90.3521
_cell_angle_gamma    90

_space_group_name_H-M_alt    "P 1"
_space_group_IT_number       1

loop_
  _space_group_symop_operation_xyz
  'x, y, z'

loop_
  _atom_site_type_symbol
  _atom_site_label
  _atom_site_symmetry_multiplicity
  _atom_site_fract_x
  _atom_site_fract_y
  _atom_site_fract_z
  _atom_site_occupancy
  Mg  Mg1       1.0  0.50000  0.67000  0.25000  1.0000
  Mg  Mg2       1.0  0.50000  0.33000  0.75000  1.0000
  O   O1        1.0  0.78100  0.89200  0.06590  1.0000
  O   O2        1.0  0.74100  0.38000  0.09720  1.0000
  O   O3        1.0  0.25900  0.38000  0.40300  1.0000
  O   O4        1.0  0.21900  0.89200  0.43400  1.0000
  O   O5        1.0  0.78100  0.10800  0.56600  1.0000
  O   O6        1.0  0.74100  0.62000  0.59700  1.0000
  O   O7        1.0  0.25900  0.62000  0.90300  1.0000
  O   O8        1.0  0.21900  0.10800  0.93400  1.0000
  W   W1        1.0  0.00000  0.18300  0.25000  1.0000
  W   W2        1.0  0.00000  0.81700  0.75000  1.0000
