data_image0
_chemical_formula_structural       Mn2U12
_chemical_formula_sum              "Mn2 U12"
_cell_length_a       5.27048
_cell_length_b       7.63475
_cell_length_c       7.63475
_cell_angle_alpha    96.8424
_cell_angle_beta     69.8082
_cell_angle_gamma    110.192

_space_group_name_H-M_alt    "P 1"
_space_group_IT_number       1

loop_
  _space_group_symop_operation_xyz
  'x, y, z'

loop_
  _atom_site_type_symbol
  _atom_site_label
  _atom_site_symmetry_multiplicity
  _atom_site_fract_x
  _atom_site_fract_y
  _atom_site_fract_z
  _atom_site_occupancy
  Mn  Mn1       1.0  0.25000  0.00000  0.00000  1.0000
  Mn  Mn2       1.0  0.75000  0.00000  0.00000  1.0000
  U   U1        1.0  0.09860  0.31700  0.11900  1.0000
  U   U2        1.0  0.28200  0.68300  0.11900  1.0000
  U   U3        1.0  0.59400  0.50000  0.31300  1.0000
  U   U4        1.0  0.40100  0.11900  0.31700  1.0000
  U   U5        1.0  0.78200  0.88100  0.31700  1.0000
  U   U6        1.0  0.09350  0.68700  0.50000  1.0000
  U   U7        1.0  0.90600  0.31300  0.50000  1.0000
  U   U8        1.0  0.21800  0.11900  0.68300  1.0000
  U   U9        1.0  0.59900  0.88100  0.68300  1.0000
  U   U10       1.0  0.40600  0.50000  0.68700  1.0000
  U   U11       1.0  0.71800  0.31700  0.88100  1.0000
  U   U12       1.0  0.90100  0.68300  0.88100  1.0000
