data_image0
_chemical_formula_structural       O8Sr4Zn4
_chemical_formula_sum              "O8 Sr4 Zn4"
_cell_length_a       3.34185
_cell_length_b       5.82453
_cell_length_c       11.3429
_cell_angle_alpha    90
_cell_angle_beta     90
_cell_angle_gamma    90

_space_group_name_H-M_alt    "P 1"
_space_group_IT_number       1

loop_
  _space_group_symop_operation_xyz
  'x, y, z'

loop_
  _atom_site_type_symbol
  _atom_site_label
  _atom_site_symmetry_multiplicity
  _atom_site_fract_x
  _atom_site_fract_y
  _atom_site_fract_z
  _atom_site_occupancy
  O   O1        1.0  0.25000  0.76200  0.03810  1.0000
  O   O2        1.0  0.75000  0.44600  0.24100  1.0000
  O   O3        1.0  0.75000  0.94600  0.25900  1.0000
  O   O4        1.0  0.25000  0.26200  0.46200  1.0000
  O   O5        1.0  0.75000  0.73800  0.53800  1.0000
  O   O6        1.0  0.25000  0.05380  0.74100  1.0000
  O   O7        1.0  0.25000  0.55400  0.75900  1.0000
  O   O8        1.0  0.75000  0.23800  0.96200  1.0000
  Sr  Sr1       1.0  0.25000  0.18700  0.13300  1.0000
  Sr  Sr2       1.0  0.25000  0.68700  0.36700  1.0000
  Sr  Sr3       1.0  0.75000  0.31300  0.63300  1.0000
  Sr  Sr4       1.0  0.75000  0.81300  0.86700  1.0000
  Zn  Zn1       1.0  0.75000  0.70000  0.12900  1.0000
  Zn  Zn2       1.0  0.75000  0.20000  0.37100  1.0000
  Zn  Zn3       1.0  0.25000  0.80000  0.62900  1.0000
  Zn  Zn4       1.0  0.25000  0.30000  0.87100  1.0000
