data_image0
_chemical_formula_structural       Cu4Li5P6
_chemical_formula_sum              "Cu4 Li5 P6"
_cell_length_a       3.84317
_cell_length_b       7.8708
_cell_length_c       7.8708
_cell_angle_alpha    105.58
_cell_angle_beta     104.131
_cell_angle_gamma    104.131

_space_group_name_H-M_alt    "P 1"
_space_group_IT_number       1

loop_
  _space_group_symop_operation_xyz
  'x, y, z'

loop_
  _atom_site_type_symbol
  _atom_site_label
  _atom_site_symmetry_multiplicity
  _atom_site_fract_x
  _atom_site_fract_y
  _atom_site_fract_z
  _atom_site_occupancy
  Cu  Cu1       1.0  0.26700  0.44000  0.09430  1.0000
  Cu  Cu2       1.0  0.26700  0.09430  0.44000  1.0000
  Cu  Cu3       1.0  0.73300  0.90600  0.56000  1.0000
  Cu  Cu4       1.0  0.73300  0.56000  0.90600  1.0000
  Li  Li1       1.0  0.00000  0.00000  0.00000  1.0000
  Li  Li2       1.0  0.00000  0.72400  0.27600  1.0000
  Li  Li3       1.0  0.82900  0.32900  0.32900  1.0000
  Li  Li4       1.0  0.17100  0.67100  0.67100  1.0000
  Li  Li5       1.0  0.00000  0.27600  0.72400  1.0000
  P   P1        1.0  0.37600  0.72900  0.02250  1.0000
  P   P2        1.0  0.62400  0.97700  0.27100  1.0000
  P   P3        1.0  0.50000  0.58600  0.41400  1.0000
  P   P4        1.0  0.50000  0.41400  0.58600  1.0000
  P   P5        1.0  0.37600  0.02250  0.72900  1.0000
  P   P6        1.0  0.62400  0.27100  0.97700  1.0000
