data_image0
_chemical_formula_structural       C8K2N6
_chemical_formula_sum              "C8 K2 N6"
_cell_length_a       8.65851
_cell_length_b       8.82841
_cell_length_c       3.78613
_cell_angle_alpha    87.111
_cell_angle_beta     90.4159
_cell_angle_gamma    105.655

_space_group_name_H-M_alt    "P 1"
_space_group_IT_number       1

loop_
  _space_group_symop_operation_xyz
  'x, y, z'

loop_
  _atom_site_type_symbol
  _atom_site_label
  _atom_site_symmetry_multiplicity
  _atom_site_fract_x
  _atom_site_fract_y
  _atom_site_fract_z
  _atom_site_occupancy
  C   C1        1.0  0.46800  0.79800  0.30400  1.0000
  C   C2        1.0  0.18900  0.80500  0.32200  1.0000
  C   C3        1.0  0.30700  0.72700  0.39000  1.0000
  C   C4        1.0  0.73600  0.42400  0.44300  1.0000
  C   C5        1.0  0.26400  0.57600  0.55700  1.0000
  C   C6        1.0  0.69300  0.27300  0.61000  1.0000
  C   C7        1.0  0.81100  0.19500  0.67800  1.0000
  C   C8        1.0  0.53200  0.20200  0.69600  1.0000
  K   K1        1.0  0.17100  0.20100  0.21800  1.0000
  K   K2        1.0  0.82900  0.79900  0.78200  1.0000
  N   N1        1.0  0.60500  0.85100  0.23800  1.0000
  N   N2        1.0  0.08570  0.86700  0.27000  1.0000
  N   N3        1.0  0.77200  0.55000  0.30100  1.0000
  N   N4        1.0  0.22800  0.45000  0.69900  1.0000
  N   N5        1.0  0.91400  0.13300  0.73000  1.0000
  N   N6        1.0  0.39500  0.14900  0.76200  1.0000
