data_image0
_chemical_formula_structural       Ba2C2F4O6Zn2
_chemical_formula_sum              "Ba2 C2 F4 O6 Zn2"
_cell_length_a       4.82291
_cell_length_b       4.8237
_cell_length_c       9.70767
_cell_angle_alpha    90
_cell_angle_beta     90
_cell_angle_gamma    119.996

_space_group_name_H-M_alt    "P 1"
_space_group_IT_number       1

loop_
  _space_group_symop_operation_xyz
  'x, y, z'

loop_
  _atom_site_type_symbol
  _atom_site_label
  _atom_site_symmetry_multiplicity
  _atom_site_fract_x
  _atom_site_fract_y
  _atom_site_fract_z
  _atom_site_occupancy
  Ba  Ba1       1.0  0.00000  0.00000  0.00000  1.0000
  Ba  Ba2       1.0  0.00000  0.00000  0.50000  1.0000
  C   C1        1.0  0.66600  0.33300  0.25000  1.0000
  C   C2        1.0  0.33400  0.66700  0.75000  1.0000
  F   F1        1.0  0.33300  0.66700  0.04140  1.0000
  F   F2        1.0  0.33300  0.66700  0.45900  1.0000
  F   F3        1.0  0.66700  0.33300  0.54100  1.0000
  F   F4        1.0  0.66700  0.33300  0.95900  1.0000
  O   O1        1.0  0.73300  0.10500  0.25000  1.0000
  O   O2        1.0  0.37200  0.26700  0.25000  1.0000
  O   O3        1.0  0.89500  0.62800  0.25000  1.0000
  O   O4        1.0  0.10500  0.37200  0.75000  1.0000
  O   O5        1.0  0.62800  0.73300  0.75000  1.0000
  O   O6        1.0  0.26700  0.89500  0.75000  1.0000
  Zn  Zn1       1.0  0.33300  0.66700  0.25000  1.0000
  Zn  Zn2       1.0  0.66700  0.33300  0.75000  1.0000
