data_image0
_chemical_formula_structural       H4Nd4Ni4Sn4
_chemical_formula_sum              "H4 Nd4 Ni4 Sn4"
_cell_length_a       7.2534
_cell_length_b       8.4513
_cell_length_c       4.38255
_cell_angle_alpha    90
_cell_angle_beta     90
_cell_angle_gamma    90

_space_group_name_H-M_alt    "P 1"
_space_group_IT_number       1

loop_
  _space_group_symop_operation_xyz
  'x, y, z'

loop_
  _atom_site_type_symbol
  _atom_site_label
  _atom_site_symmetry_multiplicity
  _atom_site_fract_x
  _atom_site_fract_y
  _atom_site_fract_z
  _atom_site_occupancy
  H   H1        1.0  0.05770  0.58100  0.24300  1.0000
  H   H2        1.0  0.55800  0.91900  0.24300  1.0000
  H   H3        1.0  0.44200  0.08090  0.74300  1.0000
  H   H4        1.0  0.94200  0.41900  0.74300  1.0000
  Nd  Nd1       1.0  0.51300  0.19000  0.24300  1.0000
  Nd  Nd2       1.0  0.01290  0.31000  0.24300  1.0000
  Nd  Nd3       1.0  0.98700  0.69000  0.74300  1.0000
  Nd  Nd4       1.0  0.48700  0.81000  0.74300  1.0000
  Ni  Ni1       1.0  0.28000  0.59900  0.24300  1.0000
  Ni  Ni2       1.0  0.78000  0.90100  0.24300  1.0000
  Ni  Ni3       1.0  0.22000  0.09880  0.74300  1.0000
  Ni  Ni4       1.0  0.72000  0.40100  0.74300  1.0000
  Sn  Sn1       1.0  0.65900  0.57000  0.24300  1.0000
  Sn  Sn2       1.0  0.15900  0.93000  0.24300  1.0000
  Sn  Sn3       1.0  0.84100  0.06990  0.74300  1.0000
  Sn  Sn4       1.0  0.34100  0.43000  0.74300  1.0000
