data_image0
_chemical_formula_structural       Cr8Gd12Li12O48
_chemical_formula_sum              "Cr8 Gd12 Li12 O48"
_cell_length_a       10.3989
_cell_length_b       10.3989
_cell_length_c       10.3989
_cell_angle_alpha    109.471
_cell_angle_beta     109.471
_cell_angle_gamma    109.471

_space_group_name_H-M_alt    "P 1"
_space_group_IT_number       1

loop_
  _space_group_symop_operation_xyz
  'x, y, z'

loop_
  _atom_site_type_symbol
  _atom_site_label
  _atom_site_symmetry_multiplicity
  _atom_site_fract_x
  _atom_site_fract_y
  _atom_site_fract_z
  _atom_site_occupancy
  Cr  Cr1       1.0  0.00000  0.00000  0.00000  1.0000
  Cr  Cr2       1.0  0.50000  0.00000  0.00000  1.0000
  Cr  Cr3       1.0  0.00000  0.50000  0.00000  1.0000
  Cr  Cr4       1.0  0.50000  0.50000  0.00000  1.0000
  Cr  Cr5       1.0  0.00000  0.00000  0.50000  1.0000
  Cr  Cr6       1.0  0.50000  0.50000  0.50000  1.0000
  Cr  Cr7       1.0  0.50000  0.00000  0.50000  1.0000
  Cr  Cr8       1.0  0.00000  0.50000  0.50000  1.0000
  Gd  Gd1       1.0  0.37500  0.25000  0.12500  1.0000
  Gd  Gd2       1.0  0.25000  0.87500  0.12500  1.0000
  Gd  Gd3       1.0  0.37500  0.62500  0.25000  1.0000
  Gd  Gd4       1.0  0.87500  0.12500  0.25000  1.0000
  Gd  Gd5       1.0  0.75000  0.62500  0.37500  1.0000
  Gd  Gd6       1.0  0.12500  0.75000  0.37500  1.0000
  Gd  Gd7       1.0  0.25000  0.37500  0.62500  1.0000
  Gd  Gd8       1.0  0.87500  0.25000  0.62500  1.0000
  Gd  Gd9       1.0  0.62500  0.37500  0.75000  1.0000
  Gd  Gd10      1.0  0.12500  0.87500  0.75000  1.0000
  Gd  Gd11      1.0  0.75000  0.12500  0.87500  1.0000
  Gd  Gd12      1.0  0.62500  0.75000  0.87500  1.0000
  Li  Li1       1.0  0.75000  0.37500  0.12500  1.0000
  Li  Li2       1.0  0.87500  0.75000  0.12500  1.0000
  Li  Li3       1.0  0.12500  0.37500  0.25000  1.0000
  Li  Li4       1.0  0.62500  0.87500  0.25000  1.0000
  Li  Li5       1.0  0.25000  0.12500  0.37500  1.0000
  Li  Li6       1.0  0.62500  0.25000  0.37500  1.0000
  Li  Li7       1.0  0.75000  0.87500  0.62500  1.0000
  Li  Li8       1.0  0.37500  0.75000  0.62500  1.0000
  Li  Li9       1.0  0.37500  0.12500  0.75000  1.0000
  Li  Li10      1.0  0.87500  0.62500  0.75000  1.0000
  Li  Li11      1.0  0.12500  0.25000  0.87500  1.0000
  Li  Li12      1.0  0.25000  0.62500  0.87500  1.0000
  O   O1        1.0  0.32900  0.41200  0.02350  1.0000
  O   O2        1.0  0.19400  0.61200  0.02350  1.0000
  O   O3        1.0  0.88800  0.91200  0.08270  1.0000
  O   O4        1.0  0.69400  0.17100  0.08270  1.0000
  O   O5        1.0  0.61200  0.91700  0.08820  1.0000
  O   O6        1.0  0.97700  0.17100  0.08820  1.0000
  O   O7        1.0  0.58800  0.41700  0.11200  1.0000
  O   O8        1.0  0.02350  0.69400  0.11200  1.0000
  O   O9        1.0  0.47700  0.08820  0.17100  1.0000
  O   O10       1.0  0.19400  0.08270  0.17100  1.0000
  O   O11       1.0  0.11200  0.52300  0.19400  1.0000
  O   O12       1.0  0.58300  0.67100  0.19400  1.0000
  O   O13       1.0  0.32900  0.41700  0.30600  1.0000
  O   O14       1.0  0.47700  0.88800  0.30600  1.0000
  O   O15       1.0  0.91200  0.52300  0.32900  1.0000
  O   O16       1.0  0.91700  0.80600  0.32900  1.0000
  O   O17       1.0  0.58300  0.41200  0.38800  1.0000
  O   O18       1.0  0.30600  0.97700  0.38800  1.0000
  O   O19       1.0  0.08270  0.38800  0.41200  1.0000
  O   O20       1.0  0.82900  0.02350  0.41200  1.0000
  O   O21       1.0  0.08820  0.11200  0.41700  1.0000
  O   O22       1.0  0.82900  0.30600  0.41700  1.0000
  O   O23       1.0  0.58800  0.67100  0.47700  1.0000
  O   O24       1.0  0.38800  0.80600  0.47700  1.0000
  O   O25       1.0  0.61200  0.19400  0.52300  1.0000
  O   O26       1.0  0.41200  0.32900  0.52300  1.0000
  O   O27       1.0  0.17100  0.69400  0.58300  1.0000
  O   O28       1.0  0.91200  0.88800  0.58300  1.0000
  O   O29       1.0  0.17100  0.97700  0.58800  1.0000
  O   O30       1.0  0.91700  0.61200  0.58800  1.0000
  O   O31       1.0  0.69400  0.02350  0.61200  1.0000
  O   O32       1.0  0.41700  0.58800  0.61200  1.0000
  O   O33       1.0  0.08270  0.19400  0.67100  1.0000
  O   O34       1.0  0.08820  0.47700  0.67100  1.0000
  O   O35       1.0  0.52300  0.11200  0.69400  1.0000
  O   O36       1.0  0.67100  0.58300  0.69400  1.0000
  O   O37       1.0  0.41700  0.32900  0.80600  1.0000
  O   O38       1.0  0.88800  0.47700  0.80600  1.0000
  O   O39       1.0  0.52300  0.91200  0.82900  1.0000
  O   O40       1.0  0.80600  0.91700  0.82900  1.0000
  O   O41       1.0  0.97700  0.30600  0.88800  1.0000
  O   O42       1.0  0.41200  0.58300  0.88800  1.0000
  O   O43       1.0  0.02350  0.82900  0.91200  1.0000
  O   O44       1.0  0.38800  0.08270  0.91200  1.0000
  O   O45       1.0  0.30600  0.82900  0.91700  1.0000
  O   O46       1.0  0.11200  0.08820  0.91700  1.0000
  O   O47       1.0  0.80600  0.38800  0.97700  1.0000
  O   O48       1.0  0.67100  0.58800  0.97700  1.0000
