data_image0
_chemical_formula_structural       Ge10Nd6
_chemical_formula_sum              "Ge10 Nd6"
_cell_length_a       5.94628
_cell_length_b       7.67508
_cell_length_c       9.3903
_cell_angle_alpha    97.0451
_cell_angle_beta     71.5415
_cell_angle_gamma    112.791

_space_group_name_H-M_alt    "P 1"
_space_group_IT_number       1

loop_
  _space_group_symop_operation_xyz
  'x, y, z'

loop_
  _atom_site_type_symbol
  _atom_site_label
  _atom_site_symmetry_multiplicity
  _atom_site_fract_x
  _atom_site_fract_y
  _atom_site_fract_z
  _atom_site_occupancy
  Ge  Ge1       1.0  0.44100  0.88100  0.00000  1.0000
  Ge  Ge2       1.0  0.79600  0.30800  0.14200  1.0000
  Ge  Ge3       1.0  0.00932  0.66400  0.17600  1.0000
  Ge  Ge4       1.0  0.93500  0.16400  0.32400  1.0000
  Ge  Ge5       1.0  0.68800  0.80800  0.35800  1.0000
  Ge  Ge6       1.0  0.19100  0.38100  0.50000  1.0000
  Ge  Ge7       1.0  0.12000  0.80800  0.64200  1.0000
  Ge  Ge8       1.0  0.22900  0.16400  0.67600  1.0000
  Ge  Ge9       1.0  0.65500  0.66400  0.82400  1.0000
  Ge  Ge10      1.0  0.51200  0.30800  0.85800  1.0000
  Nd  Nd1       1.0  0.99400  0.98800  0.00000  1.0000
  Nd  Nd2       1.0  0.41900  0.50500  0.16300  1.0000
  Nd  Nd3       1.0  0.33200  0.00458  0.33700  1.0000
  Nd  Nd4       1.0  0.74400  0.48800  0.50000  1.0000
  Nd  Nd5       1.0  0.67300  0.00458  0.66300  1.0000
  Nd  Nd6       1.0  0.08600  0.50500  0.83700  1.0000
