data_image0
_chemical_formula_structural       Ba4Cd4S8
_chemical_formula_sum              "Ba4 Cd4 S8"
_cell_length_a       7.32031
_cell_length_b       4.21451
_cell_length_c       14.0806
_cell_angle_alpha    90
_cell_angle_beta     90
_cell_angle_gamma    90

_space_group_name_H-M_alt    "P 1"
_space_group_IT_number       1

loop_
  _space_group_symop_operation_xyz
  'x, y, z'

loop_
  _atom_site_type_symbol
  _atom_site_label
  _atom_site_symmetry_multiplicity
  _atom_site_fract_x
  _atom_site_fract_y
  _atom_site_fract_z
  _atom_site_occupancy
  Ba  Ba1       1.0  0.63400  0.75000  0.14300  1.0000
  Ba  Ba2       1.0  0.13400  0.75000  0.35700  1.0000
  Ba  Ba3       1.0  0.86600  0.25000  0.64300  1.0000
  Ba  Ba4       1.0  0.36600  0.25000  0.85700  1.0000
  Cd  Cd1       1.0  0.12300  0.25000  0.10900  1.0000
  Cd  Cd2       1.0  0.62300  0.25000  0.39100  1.0000
  Cd  Cd3       1.0  0.37700  0.75000  0.60900  1.0000
  Cd  Cd4       1.0  0.87700  0.75000  0.89100  1.0000
  S   S1        1.0  0.24100  0.75000  0.02460  1.0000
  S   S2        1.0  0.89700  0.25000  0.24300  1.0000
  S   S3        1.0  0.39700  0.25000  0.25700  1.0000
  S   S4        1.0  0.74100  0.75000  0.47500  1.0000
  S   S5        1.0  0.25900  0.25000  0.52500  1.0000
  S   S6        1.0  0.60300  0.75000  0.74300  1.0000
  S   S7        1.0  0.10300  0.75000  0.75700  1.0000
  S   S8        1.0  0.75900  0.25000  0.97500  1.0000
