data_image0
_chemical_formula_structural       Pb2S4Ta2
_chemical_formula_sum              "Pb2 S4 Ta2"
_cell_length_a       3.37005
_cell_length_b       3.36955
_cell_length_c       18.0198
_cell_angle_alpha    90
_cell_angle_beta     90
_cell_angle_gamma    120.005

_space_group_name_H-M_alt    "P 1"
_space_group_IT_number       1

loop_
  _space_group_symop_operation_xyz
  'x, y, z'

loop_
  _atom_site_type_symbol
  _atom_site_label
  _atom_site_symmetry_multiplicity
  _atom_site_fract_x
  _atom_site_fract_y
  _atom_site_fract_z
  _atom_site_occupancy
  Pb  Pb1       1.0  0.00000  0.00000  0.00000  1.0000
  Pb  Pb2       1.0  0.00000  0.00000  0.50000  1.0000
  S   S1        1.0  0.00004  0.00008  0.16400  1.0000
  S   S2        1.0  0.00004  0.00008  0.33600  1.0000
  S   S3        1.0  0.99996  0.99993  0.66400  1.0000
  S   S4        1.0  0.99996  0.99993  0.83600  1.0000
  Ta  Ta1       1.0  0.33300  0.66700  0.25000  1.0000
  Ta  Ta2       1.0  0.66700  0.33300  0.75000  1.0000
