data_image0
_chemical_formula_structural       Cr5CsSe8
_chemical_formula_sum              "Cr5 Cs1 Se8"
_cell_length_a       3.68802
_cell_length_b       9.15636
_cell_length_c       9.65725
_cell_angle_alpha    104.3
_cell_angle_beta     101.008
_cell_angle_gamma    90

_space_group_name_H-M_alt    "P 1"
_space_group_IT_number       1

loop_
  _space_group_symop_operation_xyz
  'x, y, z'

loop_
  _atom_site_type_symbol
  _atom_site_label
  _atom_site_symmetry_multiplicity
  _atom_site_fract_x
  _atom_site_fract_y
  _atom_site_fract_z
  _atom_site_occupancy
  Cr  Cr1       1.0  0.00000  0.00000  0.00000  1.0000
  Cr  Cr2       1.0  0.66000  0.98300  0.31900  1.0000
  Cr  Cr3       1.0  0.70400  0.33400  0.40900  1.0000
  Cr  Cr4       1.0  0.29600  0.66600  0.59100  1.0000
  Cr  Cr5       1.0  0.34000  0.01750  0.68100  1.0000
  Cs  Cs1       1.0  0.50000  0.50000  0.00000  1.0000
  Se  Se1       1.0  0.57500  0.15400  0.15000  1.0000
  Se  Se2       1.0  0.08890  0.83500  0.17800  1.0000
  Se  Se3       1.0  0.17200  0.48900  0.34400  1.0000
  Se  Se4       1.0  0.23900  0.15900  0.47900  1.0000
  Se  Se5       1.0  0.76100  0.84100  0.52100  1.0000
  Se  Se6       1.0  0.82800  0.51100  0.65600  1.0000
  Se  Se7       1.0  0.91100  0.16500  0.82200  1.0000
  Se  Se8       1.0  0.42500  0.84600  0.85000  1.0000
