data_image0
_chemical_formula_structural       Bi4Br2In2Se8
_chemical_formula_sum              "Bi4 Br2 In2 Se8"
_cell_length_a       4.15243
_cell_length_b       10.7244
_cell_length_c       11.8402
_cell_angle_alpha    64.8142
_cell_angle_beta     100.099
_cell_angle_gamma    101.163

_space_group_name_H-M_alt    "P 1"
_space_group_IT_number       1

loop_
  _space_group_symop_operation_xyz
  'x, y, z'

loop_
  _atom_site_type_symbol
  _atom_site_label
  _atom_site_symmetry_multiplicity
  _atom_site_fract_x
  _atom_site_fract_y
  _atom_site_fract_z
  _atom_site_occupancy
  Bi  Bi1       1.0  0.20200  0.30500  0.09980  1.0000
  Bi  Bi2       1.0  0.45100  0.67100  0.23100  1.0000
  Bi  Bi3       1.0  0.54900  0.32900  0.76900  1.0000
  Bi  Bi4       1.0  0.79800  0.69500  0.90000  1.0000
  Br  Br1       1.0  0.39800  0.32800  0.46800  1.0000
  Br  Br2       1.0  0.60200  0.67200  0.53200  1.0000
  In  In1       1.0  0.16300  0.88800  0.43700  1.0000
  In  In2       1.0  0.83700  0.11200  0.56300  1.0000
  Se  Se1       1.0  0.59500  0.16700  0.02390  1.0000
  Se  Se2       1.0  0.82200  0.49900  0.14500  1.0000
  Se  Se3       1.0  0.03960  0.85900  0.22000  1.0000
  Se  Se4       1.0  0.71500  0.08430  0.34600  1.0000
  Se  Se5       1.0  0.28500  0.91600  0.65400  1.0000
  Se  Se6       1.0  0.96000  0.14100  0.78000  1.0000
  Se  Se7       1.0  0.17800  0.50100  0.85500  1.0000
  Se  Se8       1.0  0.40500  0.83300  0.97600  1.0000
