data_image0
_chemical_formula_structural       Cl2In2S8Sb4
_chemical_formula_sum              "Cl2 In2 S8 Sb4"
_cell_length_a       3.88487
_cell_length_b       10.2653
_cell_length_c       11.3818
_cell_angle_alpha    65.3637
_cell_angle_beta     99.8263
_cell_angle_gamma    100.908

_space_group_name_H-M_alt    "P 1"
_space_group_IT_number       1

loop_
  _space_group_symop_operation_xyz
  'x, y, z'

loop_
  _atom_site_type_symbol
  _atom_site_label
  _atom_site_symmetry_multiplicity
  _atom_site_fract_x
  _atom_site_fract_y
  _atom_site_fract_z
  _atom_site_occupancy
  Cl  Cl1       1.0  0.39600  0.31700  0.47500  1.0000
  Cl  Cl2       1.0  0.60400  0.68300  0.52500  1.0000
  In  In1       1.0  0.16300  0.88800  0.43800  1.0000
  In  In2       1.0  0.83700  0.11200  0.56200  1.0000
  S   S1        1.0  0.59900  0.17900  0.01940  1.0000
  S   S2        1.0  0.81800  0.50300  0.13400  1.0000
  S   S3        1.0  0.03550  0.85100  0.22000  1.0000
  S   S4        1.0  0.71300  0.07780  0.34800  1.0000
  S   S5        1.0  0.28700  0.92200  0.65200  1.0000
  S   S6        1.0  0.96500  0.14900  0.78000  1.0000
  S   S7        1.0  0.18200  0.49700  0.86600  1.0000
  S   S8        1.0  0.40100  0.82100  0.98100  1.0000
  Sb  Sb1       1.0  0.20400  0.31100  0.09590  1.0000
  Sb  Sb2       1.0  0.45000  0.67800  0.22200  1.0000
  Sb  Sb3       1.0  0.55000  0.32200  0.77800  1.0000
  Sb  Sb4       1.0  0.79600  0.68900  0.90400  1.0000
