data_image0
_chemical_formula_structural       Cu2K4Nb2Se8
_chemical_formula_sum              "Cu2 K4 Nb2 Se8"
_cell_length_a       5.76878
_cell_length_b       7.39564
_cell_length_c       12.4277
_cell_angle_alpha    95.1935
_cell_angle_beta     103.42
_cell_angle_gamma    67.0447

_space_group_name_H-M_alt    "P 1"
_space_group_IT_number       1

loop_
  _space_group_symop_operation_xyz
  'x, y, z'

loop_
  _atom_site_type_symbol
  _atom_site_label
  _atom_site_symmetry_multiplicity
  _atom_site_fract_x
  _atom_site_fract_y
  _atom_site_fract_z
  _atom_site_occupancy
  Cu  Cu1       1.0  0.37500  0.75000  0.25000  1.0000
  Cu  Cu2       1.0  0.62500  0.25000  0.75000  1.0000
  K   K1        1.0  0.30500  0.25000  0.10900  1.0000
  K   K2        1.0  0.94500  0.25000  0.39100  1.0000
  K   K3        1.0  0.05450  0.75000  0.60900  1.0000
  K   K4        1.0  0.69500  0.75000  0.89100  1.0000
  Nb  Nb1       1.0  0.87500  0.75000  0.25000  1.0000
  Nb  Nb2       1.0  0.12500  0.25000  0.75000  1.0000
  Se  Se1       1.0  0.67600  0.54300  0.13500  1.0000
  Se  Se2       1.0  0.95900  0.95700  0.13500  1.0000
  Se  Se3       1.0  0.28100  0.54300  0.36500  1.0000
  Se  Se4       1.0  0.58400  0.95700  0.36500  1.0000
  Se  Se5       1.0  0.41600  0.04300  0.63500  1.0000
  Se  Se6       1.0  0.71900  0.45700  0.63500  1.0000
  Se  Se7       1.0  0.04060  0.04300  0.86500  1.0000
  Se  Se8       1.0  0.32400  0.45700  0.86500  1.0000
