data_image0
_chemical_formula_structural       C4K4N4S4
_chemical_formula_sum              "C4 K4 N4 S4"
_cell_length_a       6.35669
_cell_length_b       10.9408
_cell_length_c       6.32004
_cell_angle_alpha    90
_cell_angle_beta     90
_cell_angle_gamma    90

_space_group_name_H-M_alt    "P 1"
_space_group_IT_number       1

loop_
  _space_group_symop_operation_xyz
  'x, y, z'

loop_
  _atom_site_type_symbol
  _atom_site_label
  _atom_site_symmetry_multiplicity
  _atom_site_fract_x
  _atom_site_fract_y
  _atom_site_fract_z
  _atom_site_occupancy
  C   C1        1.0  0.75300  0.48500  0.25000  1.0000
  C   C2        1.0  0.24700  0.98500  0.25000  1.0000
  C   C3        1.0  0.75300  0.01530  0.75000  1.0000
  C   C4        1.0  0.24700  0.51500  0.75000  1.0000
  K   K1        1.0  0.27300  0.38700  0.25000  1.0000
  K   K2        1.0  0.72700  0.88700  0.25000  1.0000
  K   K3        1.0  0.27300  0.11300  0.75000  1.0000
  K   K4        1.0  0.72700  0.61300  0.75000  1.0000
  N   N1        1.0  0.85500  0.39400  0.25000  1.0000
  N   N2        1.0  0.14500  0.89400  0.25000  1.0000
  N   N3        1.0  0.85500  0.10600  0.75000  1.0000
  N   N4        1.0  0.14500  0.60600  0.75000  1.0000
  S   S1        1.0  0.40200  0.10500  0.25000  1.0000
  S   S2        1.0  0.59800  0.60500  0.25000  1.0000
  S   S3        1.0  0.40200  0.39500  0.75000  1.0000
  S   S4        1.0  0.59800  0.89500  0.75000  1.0000
