data_image0
_chemical_formula_structural       Bi4Cs2Cu2S8
_chemical_formula_sum              "Bi4 Cs2 Cu2 S8"
_cell_length_a       4.08595
_cell_length_b       7.44181
_cell_length_c       14.7376
_cell_angle_alpha    90
_cell_angle_beta     90
_cell_angle_gamma    74.0662

_space_group_name_H-M_alt    "P 1"
_space_group_IT_number       1

loop_
  _space_group_symop_operation_xyz
  'x, y, z'

loop_
  _atom_site_type_symbol
  _atom_site_label
  _atom_site_symmetry_multiplicity
  _atom_site_fract_x
  _atom_site_fract_y
  _atom_site_fract_z
  _atom_site_occupancy
  Bi  Bi1       1.0  0.64400  0.71100  0.20300  1.0000
  Bi  Bi2       1.0  0.37600  0.24800  0.31200  1.0000
  Bi  Bi3       1.0  0.35600  0.28900  0.70300  1.0000
  Bi  Bi4       1.0  0.62400  0.75200  0.81200  1.0000
  Cs  Cs1       1.0  0.10700  0.78600  0.49900  1.0000
  Cs  Cs2       1.0  0.89300  0.21400  0.99900  1.0000
  Cu  Cu1       1.0  0.15400  0.69100  0.01250  1.0000
  Cu  Cu2       1.0  0.84600  0.30900  0.51300  1.0000
  S   S1        1.0  0.25400  0.49100  0.13900  1.0000
  S   S2        1.0  0.00649  0.98700  0.26300  1.0000
  S   S3        1.0  0.74500  0.51000  0.35600  1.0000
  S   S4        1.0  0.41200  0.17700  0.49000  1.0000
  S   S5        1.0  0.74600  0.50900  0.63900  1.0000
  S   S6        1.0  0.99400  0.01300  0.76300  1.0000
  S   S7        1.0  0.25500  0.49000  0.85600  1.0000
  S   S8        1.0  0.58800  0.82300  0.99000  1.0000
