data_image0
_chemical_formula_structural       Dy5Sn11
_chemical_formula_sum              "Dy5 Sn11"
_cell_length_a       4.37254
_cell_length_b       4.4413
_cell_length_c       21.5932
_cell_angle_alpha    95.9027
_cell_angle_beta     95.811
_cell_angle_gamma    90

_space_group_name_H-M_alt    "P 1"
_space_group_IT_number       1

loop_
  _space_group_symop_operation_xyz
  'x, y, z'

loop_
  _atom_site_type_symbol
  _atom_site_label
  _atom_site_symmetry_multiplicity
  _atom_site_fract_x
  _atom_site_fract_y
  _atom_site_fract_z
  _atom_site_occupancy
  Dy  Dy1       1.0  0.00000  0.00000  0.00000  1.0000
  Dy  Dy2       1.0  0.61700  0.61700  0.23500  1.0000
  Dy  Dy3       1.0  0.19200  0.69200  0.38500  1.0000
  Dy  Dy4       1.0  0.80800  0.30800  0.61500  1.0000
  Dy  Dy5       1.0  0.38300  0.38300  0.76500  1.0000
  Sn  Sn1       1.0  0.50000  0.50000  0.00000  1.0000
  Sn  Sn2       1.0  0.06000  0.56000  0.12000  1.0000
  Sn  Sn3       1.0  0.56000  0.06030  0.12100  1.0000
  Sn  Sn4       1.0  0.13200  0.13200  0.26300  1.0000
  Sn  Sn5       1.0  0.68000  0.18000  0.36000  1.0000
  Sn  Sn6       1.0  0.25000  0.25000  0.49900  1.0000
  Sn  Sn7       1.0  0.75000  0.75000  0.50100  1.0000
  Sn  Sn8       1.0  0.32000  0.82000  0.64000  1.0000
  Sn  Sn9       1.0  0.86800  0.86800  0.73700  1.0000
  Sn  Sn10      1.0  0.44000  0.94000  0.87900  1.0000
  Sn  Sn11      1.0  0.94000  0.44000  0.88000  1.0000
