data_image0
_chemical_formula_structural       Al2N6V8
_chemical_formula_sum              "Al2 N6 V8"
_cell_length_a       2.78557
_cell_length_b       2.78558
_cell_length_c       23.6906
_cell_angle_alpha    90
_cell_angle_beta     90
_cell_angle_gamma    120

_space_group_name_H-M_alt    "P 1"
_space_group_IT_number       1

loop_
  _space_group_symop_operation_xyz
  'x, y, z'

loop_
  _atom_site_type_symbol
  _atom_site_label
  _atom_site_symmetry_multiplicity
  _atom_site_fract_x
  _atom_site_fract_y
  _atom_site_fract_z
  _atom_site_occupancy
  Al  Al1       1.0  0.33300  0.66700  0.25000  1.0000
  Al  Al2       1.0  0.66700  0.33300  0.75000  1.0000
  N   N1        1.0  0.00000  0.00000  0.00000  1.0000
  N   N2        1.0  0.00000  0.00000  0.10800  1.0000
  N   N3        1.0  0.00000  0.00000  0.39200  1.0000
  N   N4        1.0  0.00000  0.00000  0.50000  1.0000
  N   N5        1.0  0.00000  0.00000  0.60800  1.0000
  N   N6        1.0  0.00000  0.00000  0.89200  1.0000
  V   V1        1.0  0.33300  0.66700  0.05430  1.0000
  V   V2        1.0  0.66700  0.33300  0.15900  1.0000
  V   V3        1.0  0.66700  0.33300  0.34100  1.0000
  V   V4        1.0  0.33300  0.66700  0.44600  1.0000
  V   V5        1.0  0.66700  0.33300  0.55400  1.0000
  V   V6        1.0  0.33300  0.66700  0.65900  1.0000
  V   V7        1.0  0.33300  0.66700  0.84100  1.0000
  V   V8        1.0  0.66700  0.33300  0.94600  1.0000
