data_image0
_chemical_formula_structural       C2K2O10Pu2
_chemical_formula_sum              "C2 K2 O10 Pu2"
_cell_length_a       5.09267
_cell_length_b       5.09411
_cell_length_c       9.57061
_cell_angle_alpha    90
_cell_angle_beta     90
_cell_angle_gamma    119.991

_space_group_name_H-M_alt    "P 1"
_space_group_IT_number       1

loop_
  _space_group_symop_operation_xyz
  'x, y, z'

loop_
  _atom_site_type_symbol
  _atom_site_label
  _atom_site_symmetry_multiplicity
  _atom_site_fract_x
  _atom_site_fract_y
  _atom_site_fract_z
  _atom_site_occupancy
  C   C1        1.0  0.66700  0.33300  0.25000  1.0000
  C   C2        1.0  0.33300  0.66700  0.75000  1.0000
  K   K1        1.0  0.00000  0.00000  0.00000  1.0000
  K   K2        1.0  0.00000  0.00000  0.50000  1.0000
  O   O1        1.0  0.33300  0.66700  0.06170  1.0000
  O   O2        1.0  0.37400  0.18700  0.25000  1.0000
  O   O3        1.0  0.81300  0.18700  0.25000  1.0000
  O   O4        1.0  0.81300  0.62600  0.25000  1.0000
  O   O5        1.0  0.33300  0.66700  0.43800  1.0000
  O   O6        1.0  0.66700  0.33300  0.56200  1.0000
  O   O7        1.0  0.18700  0.37400  0.75000  1.0000
  O   O8        1.0  0.18700  0.81300  0.75000  1.0000
  O   O9        1.0  0.62600  0.81300  0.75000  1.0000
  O   O10       1.0  0.66700  0.33300  0.93800  1.0000
  Pu  Pu1       1.0  0.33300  0.66700  0.25000  1.0000
  Pu  Pu2       1.0  0.66700  0.33300  0.75000  1.0000
