data_image0
_chemical_formula_structural       Ba4Mn4S8
_chemical_formula_sum              "Ba4 Mn4 S8"
_cell_length_a       7.10015
_cell_length_b       4.15056
_cell_length_c       14.0154
_cell_angle_alpha    90
_cell_angle_beta     90
_cell_angle_gamma    90

_space_group_name_H-M_alt    "P 1"
_space_group_IT_number       1

loop_
  _space_group_symop_operation_xyz
  'x, y, z'

loop_
  _atom_site_type_symbol
  _atom_site_label
  _atom_site_symmetry_multiplicity
  _atom_site_fract_x
  _atom_site_fract_y
  _atom_site_fract_z
  _atom_site_occupancy
  Ba  Ba1       1.0  0.21300  0.25000  0.12800  1.0000
  Ba  Ba2       1.0  0.71300  0.25000  0.37200  1.0000
  Ba  Ba3       1.0  0.28700  0.75000  0.62800  1.0000
  Ba  Ba4       1.0  0.78700  0.75000  0.87200  1.0000
  Mn  Mn1       1.0  0.72900  0.75000  0.13500  1.0000
  Mn  Mn2       1.0  0.22900  0.75000  0.36500  1.0000
  Mn  Mn3       1.0  0.77100  0.25000  0.63500  1.0000
  Mn  Mn4       1.0  0.27100  0.25000  0.86500  1.0000
  S   S1        1.0  0.75600  0.25000  0.04750  1.0000
  S   S2        1.0  0.47100  0.75000  0.24400  1.0000
  S   S3        1.0  0.97100  0.75000  0.25600  1.0000
  S   S4        1.0  0.25600  0.25000  0.45300  1.0000
  S   S5        1.0  0.74400  0.75000  0.54700  1.0000
  S   S6        1.0  0.02930  0.25000  0.74400  1.0000
  S   S7        1.0  0.52900  0.25000  0.75600  1.0000
  S   S8        1.0  0.24400  0.75000  0.95300  1.0000
