data_image0
_chemical_formula_structural       Pb2Te6Tl8
_chemical_formula_sum              "Pb2 Te6 Tl8"
_cell_length_a       8.90664
_cell_length_b       8.90664
_cell_length_c       9.1142
_cell_angle_alpha    119.249
_cell_angle_beta     119.249
_cell_angle_gamma    90

_space_group_name_H-M_alt    "P 1"
_space_group_IT_number       1

loop_
  _space_group_symop_operation_xyz
  'x, y, z'

loop_
  _atom_site_type_symbol
  _atom_site_label
  _atom_site_symmetry_multiplicity
  _atom_site_fract_x
  _atom_site_fract_y
  _atom_site_fract_z
  _atom_site_occupancy
  Pb  Pb1       1.0  0.00000  0.00000  0.00000  1.0000
  Pb  Pb2       1.0  0.50000  0.50000  0.00000  1.0000
  Te  Te1       1.0  0.33800  0.16200  0.00000  1.0000
  Te  Te2       1.0  0.83800  0.33800  0.00000  1.0000
  Te  Te3       1.0  0.16200  0.66200  0.00000  1.0000
  Te  Te4       1.0  0.66200  0.83800  0.00000  1.0000
  Te  Te5       1.0  0.25000  0.25000  0.50000  1.0000
  Te  Te6       1.0  0.75000  0.75000  0.50000  1.0000
  Tl  Tl1       1.0  0.51300  0.01350  0.31900  1.0000
  Tl  Tl2       1.0  0.80600  0.30600  0.31900  1.0000
  Tl  Tl3       1.0  0.30600  0.51300  0.31900  1.0000
  Tl  Tl4       1.0  0.01350  0.80600  0.31900  1.0000
  Tl  Tl5       1.0  0.98700  0.19400  0.68100  1.0000
  Tl  Tl6       1.0  0.69400  0.48700  0.68100  1.0000
  Tl  Tl7       1.0  0.19400  0.69400  0.68100  1.0000
  Tl  Tl8       1.0  0.48700  0.98700  0.68100  1.0000
