data_image0
_chemical_formula_structural       BF4H2N3S3
_chemical_formula_sum              "B1 F4 H2 N3 S3"
_cell_length_a       5.00442
_cell_length_b       6.58146
_cell_length_c       5.65562
_cell_angle_alpha    65.5499
_cell_angle_beta     74.1759
_cell_angle_gamma    79.126

_space_group_name_H-M_alt    "P 1"
_space_group_IT_number       1

loop_
  _space_group_symop_operation_xyz
  'x, y, z'

loop_
  _atom_site_type_symbol
  _atom_site_label
  _atom_site_symmetry_multiplicity
  _atom_site_fract_x
  _atom_site_fract_y
  _atom_site_fract_z
  _atom_site_occupancy
  B   B1        1.0  0.52200  0.75500  0.29700  1.0000
  F   F1        1.0  0.69200  0.93000  0.12200  1.0000
  F   F2        1.0  0.32000  0.75100  0.16800  1.0000
  F   F3        1.0  0.69600  0.54800  0.35100  1.0000
  F   F4        1.0  0.40300  0.77800  0.53900  1.0000
  H   H1        1.0  0.79800  0.54600  0.00885  1.0000
  H   H2        1.0  0.76800  0.43700  0.78400  1.0000
  N   N1        1.0  0.29700  0.31000  0.12700  1.0000
  N   N2        1.0  0.99600  0.14500  0.59300  1.0000
  N   N3        1.0  0.88500  0.44800  0.90000  1.0000
  S   S1        1.0  0.07500  0.22300  0.03770  1.0000
  S   S2        1.0  0.24500  0.29100  0.42500  1.0000
  S   S3        1.0  0.85100  0.03490  0.46100  1.0000
