data_image0
_chemical_formula_structural       H4La4Ni4Sn4
_chemical_formula_sum              "H4 La4 Ni4 Sn4"
_cell_length_a       7.28121
_cell_length_b       8.64511
_cell_length_c       4.45285
_cell_angle_alpha    90
_cell_angle_beta     90
_cell_angle_gamma    90

_space_group_name_H-M_alt    "P 1"
_space_group_IT_number       1

loop_
  _space_group_symop_operation_xyz
  'x, y, z'

loop_
  _atom_site_type_symbol
  _atom_site_label
  _atom_site_symmetry_multiplicity
  _atom_site_fract_x
  _atom_site_fract_y
  _atom_site_fract_z
  _atom_site_occupancy
  H   H1        1.0  0.06130  0.58100  0.24300  1.0000
  H   H2        1.0  0.56100  0.91900  0.24300  1.0000
  H   H3        1.0  0.43900  0.08100  0.74300  1.0000
  H   H4        1.0  0.93900  0.41900  0.74300  1.0000
  La  La1       1.0  0.51300  0.19000  0.24300  1.0000
  La  La2       1.0  0.01310  0.31000  0.24300  1.0000
  La  La3       1.0  0.98700  0.69000  0.74300  1.0000
  La  La4       1.0  0.48700  0.81000  0.74300  1.0000
  Ni  Ni1       1.0  0.28100  0.59700  0.24300  1.0000
  Ni  Ni2       1.0  0.78100  0.90300  0.24300  1.0000
  Ni  Ni3       1.0  0.21900  0.09740  0.74300  1.0000
  Ni  Ni4       1.0  0.71900  0.40300  0.74300  1.0000
  Sn  Sn1       1.0  0.65600  0.56700  0.24300  1.0000
  Sn  Sn2       1.0  0.15600  0.93300  0.24300  1.0000
  Sn  Sn3       1.0  0.84400  0.06680  0.74300  1.0000
  Sn  Sn4       1.0  0.34400  0.43300  0.74300  1.0000
