data_image0
_chemical_formula_structural       Ga6Ti10
_chemical_formula_sum              "Ga6 Ti10"
_cell_length_a       7.59581
_cell_length_b       7.59581
_cell_length_c       5.27164
_cell_angle_alpha    90
_cell_angle_beta     90
_cell_angle_gamma    119.996

_space_group_name_H-M_alt    "P 1"
_space_group_IT_number       1

loop_
  _space_group_symop_operation_xyz
  'x, y, z'

loop_
  _atom_site_type_symbol
  _atom_site_label
  _atom_site_symmetry_multiplicity
  _atom_site_fract_x
  _atom_site_fract_y
  _atom_site_fract_z
  _atom_site_occupancy
  Ga  Ga1       1.0  0.60600  1.00000  0.25000  1.0000
  Ga  Ga2       1.0  1.00000  0.60600  0.25000  1.0000
  Ga  Ga3       1.0  0.39400  0.39400  0.25000  1.0000
  Ga  Ga4       1.0  0.39400  0.00000  0.75000  1.0000
  Ga  Ga5       1.0  0.00000  0.39400  0.75000  1.0000
  Ga  Ga6       1.0  0.60600  0.60600  0.75000  1.0000
  Ti  Ti1       1.0  0.66700  0.33300  0.00000  1.0000
  Ti  Ti2       1.0  0.33300  0.66700  0.00000  1.0000
  Ti  Ti3       1.0  0.23700  1.00000  0.25000  1.0000
  Ti  Ti4       1.0  1.00000  0.23700  0.25000  1.0000
  Ti  Ti5       1.0  0.76300  0.76300  0.25000  1.0000
  Ti  Ti6       1.0  0.66700  0.33300  0.50000  1.0000
  Ti  Ti7       1.0  0.33300  0.66700  0.50000  1.0000
  Ti  Ti8       1.0  0.76300  0.00000  0.75000  1.0000
  Ti  Ti9       1.0  0.00000  0.76300  0.75000  1.0000
  Ti  Ti10      1.0  0.23700  0.23700  0.75000  1.0000
