data_image0
_chemical_formula_structural       Cl12Fe2Hf2
_chemical_formula_sum              "Cl12 Fe2 Hf2"
_cell_length_a       6.27628
_cell_length_b       6.26948
_cell_length_c       11.9043
_cell_angle_alpha    89.8377
_cell_angle_beta     90.0811
_cell_angle_gamma    119.964

_space_group_name_H-M_alt    "P 1"
_space_group_IT_number       1

loop_
  _space_group_symop_operation_xyz
  'x, y, z'

loop_
  _atom_site_type_symbol
  _atom_site_label
  _atom_site_symmetry_multiplicity
  _atom_site_fract_x
  _atom_site_fract_y
  _atom_site_fract_z
  _atom_site_occupancy
  Cl  Cl1       1.0  0.02450  0.68900  0.13100  1.0000
  Cl  Cl2       1.0  0.31100  0.33500  0.13100  1.0000
  Cl  Cl3       1.0  0.66500  0.97500  0.13100  1.0000
  Cl  Cl4       1.0  0.66500  0.69000  0.36900  1.0000
  Cl  Cl5       1.0  0.31100  0.97600  0.36900  1.0000
  Cl  Cl6       1.0  0.02450  0.33500  0.36900  1.0000
  Cl  Cl7       1.0  0.97500  0.66500  0.63100  1.0000
  Cl  Cl8       1.0  0.68900  0.02400  0.63100  1.0000
  Cl  Cl9       1.0  0.33500  0.31000  0.63100  1.0000
  Cl  Cl10      1.0  0.33500  0.02490  0.86900  1.0000
  Cl  Cl11      1.0  0.68900  0.66500  0.86900  1.0000
  Cl  Cl12      1.0  0.97500  0.31100  0.86900  1.0000
  Fe  Fe1       1.0  0.00132  0.00066  0.25000  1.0000
  Fe  Fe2       1.0  0.99900  0.99900  0.75000  1.0000
  Hf  Hf1       1.0  0.33200  0.66600  0.25000  1.0000
  Hf  Hf2       1.0  0.66800  0.33400  0.75000  1.0000
