data_image0
_chemical_formula_structural       Ni12Pu3
_chemical_formula_sum              "Ni12 Pu3"
_cell_length_a       4.85212
_cell_length_b       4.85951
_cell_length_c       10.1314
_cell_angle_alpha    94.629
_cell_angle_beta     99.3028
_cell_angle_gamma    60.0503

_space_group_name_H-M_alt    "P 1"
_space_group_IT_number       1

loop_
  _space_group_symop_operation_xyz
  'x, y, z'

loop_
  _atom_site_type_symbol
  _atom_site_label
  _atom_site_symmetry_multiplicity
  _atom_site_fract_x
  _atom_site_fract_y
  _atom_site_fract_z
  _atom_site_occupancy
  Ni  Ni1       1.0  0.33400  0.33200  0.00000  1.0000
  Ni  Ni2       1.0  0.66600  0.66800  0.00000  1.0000
  Ni  Ni3       1.0  0.06790  0.50200  0.19900  1.0000
  Ni  Ni4       1.0  0.57000  0.49800  0.19900  1.0000
  Ni  Ni5       1.0  0.56800  1.00000  0.20000  1.0000
  Ni  Ni6       1.0  0.46400  0.34200  0.40500  1.0000
  Ni  Ni7       1.0  0.80600  0.65800  0.40500  1.0000
  Ni  Ni8       1.0  0.19400  0.34200  0.59500  1.0000
  Ni  Ni9       1.0  0.53600  0.65800  0.59500  1.0000
  Ni  Ni10      1.0  0.43200  0.00000  0.80000  1.0000
  Ni  Ni11      1.0  0.43000  0.50200  0.80100  1.0000
  Ni  Ni12      1.0  0.93200  0.49800  0.80100  1.0000
  Pu  Pu1       1.0  0.00000  0.00000  0.00000  1.0000
  Pu  Pu2       1.0  0.12700  0.00000  0.35600  1.0000
  Pu  Pu3       1.0  0.87300  0.00000  0.64400  1.0000
