data_image0
_chemical_formula_structural       Rh10Zr6
_chemical_formula_sum              "Rh10 Zr6"
_cell_length_a       5.60816
_cell_length_b       5.60816
_cell_length_c       8.68729
_cell_angle_alpha    90
_cell_angle_beta     90
_cell_angle_gamma    102.235

_space_group_name_H-M_alt    "P 1"
_space_group_IT_number       1

loop_
  _space_group_symop_operation_xyz
  'x, y, z'

loop_
  _atom_site_type_symbol
  _atom_site_label
  _atom_site_symmetry_multiplicity
  _atom_site_fract_x
  _atom_site_fract_y
  _atom_site_fract_z
  _atom_site_occupancy
  Rh  Rh1       1.0  0.71200  0.71200  0.02440  1.0000
  Rh  Rh2       1.0  0.01200  0.01200  0.25000  1.0000
  Rh  Rh3       1.0  0.97700  0.50500  0.25000  1.0000
  Rh  Rh4       1.0  0.50500  0.97700  0.25000  1.0000
  Rh  Rh5       1.0  0.71200  0.71200  0.47600  1.0000
  Rh  Rh6       1.0  0.28800  0.28800  0.52400  1.0000
  Rh  Rh7       1.0  0.49500  0.02320  0.75000  1.0000
  Rh  Rh8       1.0  0.02320  0.49500  0.75000  1.0000
  Rh  Rh9       1.0  0.98800  0.98800  0.75000  1.0000
  Rh  Rh10      1.0  0.28800  0.28800  0.97600  1.0000
  Zr  Zr1       1.0  0.79100  0.20900  0.00000  1.0000
  Zr  Zr2       1.0  0.20900  0.79100  0.00000  1.0000
  Zr  Zr3       1.0  0.44000  0.44000  0.25000  1.0000
  Zr  Zr4       1.0  0.79100  0.20900  0.50000  1.0000
  Zr  Zr5       1.0  0.20900  0.79100  0.50000  1.0000
  Zr  Zr6       1.0  0.56000  0.56000  0.75000  1.0000
