data_image0
_chemical_formula_structural       Cu12Li12O48W8
_chemical_formula_sum              "Cu12 Li12 O48 W8"
_cell_length_a       10.5156
_cell_length_b       10.5156
_cell_length_c       10.5156
_cell_angle_alpha    109.471
_cell_angle_beta     109.471
_cell_angle_gamma    109.471

_space_group_name_H-M_alt    "P 1"
_space_group_IT_number       1

loop_
  _space_group_symop_operation_xyz
  'x, y, z'

loop_
  _atom_site_type_symbol
  _atom_site_label
  _atom_site_symmetry_multiplicity
  _atom_site_fract_x
  _atom_site_fract_y
  _atom_site_fract_z
  _atom_site_occupancy
  Cu  Cu1       1.0  0.25000  0.87500  0.12500  1.0000
  Cu  Cu2       1.0  0.37500  0.25000  0.12500  1.0000
  Cu  Cu3       1.0  0.87500  0.12500  0.25000  1.0000
  Cu  Cu4       1.0  0.37500  0.62500  0.25000  1.0000
  Cu  Cu5       1.0  0.12500  0.75000  0.37500  1.0000
  Cu  Cu6       1.0  0.75000  0.62500  0.37500  1.0000
  Cu  Cu7       1.0  0.87500  0.25000  0.62500  1.0000
  Cu  Cu8       1.0  0.25000  0.37500  0.62500  1.0000
  Cu  Cu9       1.0  0.62500  0.37500  0.75000  1.0000
  Cu  Cu10      1.0  0.12500  0.87500  0.75000  1.0000
  Cu  Cu11      1.0  0.62500  0.75000  0.87500  1.0000
  Cu  Cu12      1.0  0.75000  0.12500  0.87500  1.0000
  Li  Li1       1.0  0.75000  0.37500  0.12500  1.0000
  Li  Li2       1.0  0.87500  0.75000  0.12500  1.0000
  Li  Li3       1.0  0.12500  0.37500  0.25000  1.0000
  Li  Li4       1.0  0.62500  0.87500  0.25000  1.0000
  Li  Li5       1.0  0.62500  0.25000  0.37500  1.0000
  Li  Li6       1.0  0.25000  0.12500  0.37500  1.0000
  Li  Li7       1.0  0.37500  0.75000  0.62500  1.0000
  Li  Li8       1.0  0.75000  0.87500  0.62500  1.0000
  Li  Li9       1.0  0.37500  0.12500  0.75000  1.0000
  Li  Li10      1.0  0.87500  0.62500  0.75000  1.0000
  Li  Li11      1.0  0.12500  0.25000  0.87500  1.0000
  Li  Li12      1.0  0.25000  0.62500  0.87500  1.0000
  O   O1        1.0  0.63800  0.68800  0.01750  1.0000
  O   O2        1.0  0.88000  0.32900  0.01750  1.0000
  O   O3        1.0  0.38000  0.86200  0.05040  1.0000
  O   O4        1.0  0.17100  0.18800  0.05040  1.0000
  O   O5        1.0  0.45000  0.63800  0.12000  1.0000
  O   O6        1.0  0.17100  0.48200  0.12000  1.0000
  O   O7        1.0  0.51800  0.18800  0.13800  1.0000
  O   O8        1.0  0.12000  0.95000  0.13800  1.0000
  O   O9        1.0  0.98200  0.62000  0.17100  1.0000
  O   O10       1.0  0.68800  0.55000  0.17100  1.0000
  O   O11       1.0  0.67100  0.05040  0.18800  1.0000
  O   O12       1.0  0.01750  0.13800  0.18800  1.0000
  O   O13       1.0  0.95000  0.32900  0.31200  1.0000
  O   O14       1.0  0.86200  0.98200  0.31200  1.0000
  O   O15       1.0  0.38000  0.01750  0.32900  1.0000
  O   O16       1.0  0.45000  0.31200  0.32900  1.0000
  O   O17       1.0  0.81200  0.48200  0.36200  1.0000
  O   O18       1.0  0.05040  0.88000  0.36200  1.0000
  O   O19       1.0  0.36200  0.55000  0.38000  1.0000
  O   O20       1.0  0.51800  0.82900  0.38000  1.0000
  O   O21       1.0  0.13800  0.62000  0.45000  1.0000
  O   O22       1.0  0.81200  0.82900  0.45000  1.0000
  O   O23       1.0  0.67100  0.12000  0.48200  1.0000
  O   O24       1.0  0.31200  0.36200  0.48200  1.0000
  O   O25       1.0  0.32900  0.88000  0.51800  1.0000
  O   O26       1.0  0.68800  0.63800  0.51800  1.0000
  O   O27       1.0  0.18800  0.17100  0.55000  1.0000
  O   O28       1.0  0.86200  0.38000  0.55000  1.0000
  O   O29       1.0  0.63800  0.45000  0.62000  1.0000
  O   O30       1.0  0.48200  0.17100  0.62000  1.0000
  O   O31       1.0  0.18800  0.51800  0.63800  1.0000
  O   O32       1.0  0.95000  0.12000  0.63800  1.0000
  O   O33       1.0  0.62000  0.98200  0.67100  1.0000
  O   O34       1.0  0.55000  0.68800  0.67100  1.0000
  O   O35       1.0  0.13800  0.01750  0.68800  1.0000
  O   O36       1.0  0.05040  0.67100  0.68800  1.0000
  O   O37       1.0  0.98200  0.86200  0.81200  1.0000
  O   O38       1.0  0.32900  0.95000  0.81200  1.0000
  O   O39       1.0  0.31200  0.45000  0.82900  1.0000
  O   O40       1.0  0.01750  0.38000  0.82900  1.0000
  O   O41       1.0  0.48200  0.81200  0.86200  1.0000
  O   O42       1.0  0.88000  0.05040  0.86200  1.0000
  O   O43       1.0  0.82900  0.51800  0.88000  1.0000
  O   O44       1.0  0.55000  0.36200  0.88000  1.0000
  O   O45       1.0  0.62000  0.13800  0.95000  1.0000
  O   O46       1.0  0.82900  0.81200  0.95000  1.0000
  O   O47       1.0  0.36200  0.31200  0.98200  1.0000
  O   O48       1.0  0.12000  0.67100  0.98200  1.0000
  W   W1        1.0  0.00000  0.00000  0.00000  1.0000
  W   W2        1.0  0.50000  0.00000  0.00000  1.0000
  W   W3        1.0  0.50000  0.50000  0.00000  1.0000
  W   W4        1.0  0.00000  0.50000  0.00000  1.0000
  W   W5        1.0  0.50000  0.00000  0.50000  1.0000
  W   W6        1.0  0.00000  0.50000  0.50000  1.0000
  W   W7        1.0  0.00000  0.00000  0.50000  1.0000
  W   W8        1.0  0.50000  0.50000  0.50000  1.0000
