data_image0
_chemical_formula_structural       Ni4Sc6Si6
_chemical_formula_sum              "Ni4 Sc6 Si6"
_cell_length_a       3.97643
_cell_length_b       5.23118
_cell_length_c       13.0876
_cell_angle_alpha    90
_cell_angle_beta     90
_cell_angle_gamma    67.662

_space_group_name_H-M_alt    "P 1"
_space_group_IT_number       1

loop_
  _space_group_symop_operation_xyz
  'x, y, z'

loop_
  _atom_site_type_symbol
  _atom_site_label
  _atom_site_symmetry_multiplicity
  _atom_site_fract_x
  _atom_site_fract_y
  _atom_site_fract_z
  _atom_site_occupancy
  Ni  Ni1       1.0  0.20800  0.58400  0.09590  1.0000
  Ni  Ni2       1.0  0.20800  0.58400  0.40400  1.0000
  Ni  Ni3       1.0  0.79200  0.41600  0.59600  1.0000
  Ni  Ni4       1.0  0.79200  0.41600  0.90400  1.0000
  Sc  Sc1       1.0  0.91700  0.16700  0.11200  1.0000
  Sc  Sc2       1.0  0.63800  0.72500  0.25000  1.0000
  Sc  Sc3       1.0  0.91700  0.16700  0.38800  1.0000
  Sc  Sc4       1.0  0.08330  0.83300  0.61200  1.0000
  Sc  Sc5       1.0  0.36200  0.27500  0.75000  1.0000
  Sc  Sc6       1.0  0.08330  0.83300  0.88800  1.0000
  Si  Si1       1.0  0.61600  0.76800  0.03910  1.0000
  Si  Si2       1.0  0.34000  0.32000  0.25000  1.0000
  Si  Si3       1.0  0.61600  0.76800  0.46100  1.0000
  Si  Si4       1.0  0.38400  0.23200  0.53900  1.0000
  Si  Si5       1.0  0.66000  0.68000  0.75000  1.0000
  Si  Si6       1.0  0.38400  0.23200  0.96100  1.0000
