data_image0
_chemical_formula_structural       Br2In2S8Sb4
_chemical_formula_sum              "Br2 In2 S8 Sb4"
_cell_length_a       3.90516
_cell_length_b       10.4581
_cell_length_c       11.3956
_cell_angle_alpha    66.4905
_cell_angle_beta     99.8661
_cell_angle_gamma    100.761

_space_group_name_H-M_alt    "P 1"
_space_group_IT_number       1

loop_
  _space_group_symop_operation_xyz
  'x, y, z'

loop_
  _atom_site_type_symbol
  _atom_site_label
  _atom_site_symmetry_multiplicity
  _atom_site_fract_x
  _atom_site_fract_y
  _atom_site_fract_z
  _atom_site_occupancy
  Br  Br1       1.0  0.89800  0.32400  0.47200  1.0000
  Br  Br2       1.0  0.10200  0.67600  0.52800  1.0000
  In  In1       1.0  0.66400  0.89400  0.43300  1.0000
  In  In2       1.0  0.33600  0.10600  0.56700  1.0000
  S   S1        1.0  0.10400  0.18300  0.02380  1.0000
  S   S2        1.0  0.32000  0.50800  0.13100  1.0000
  S   S3        1.0  0.53400  0.85500  0.21400  1.0000
  S   S4        1.0  0.21200  0.07450  0.34900  1.0000
  S   S5        1.0  0.78800  0.92500  0.65100  1.0000
  S   S6        1.0  0.46600  0.14500  0.78600  1.0000
  S   S7        1.0  0.68000  0.49200  0.86900  1.0000
  S   S8        1.0  0.89600  0.81700  0.97600  1.0000
  Sb  Sb1       1.0  0.70700  0.31700  0.09590  1.0000
  Sb  Sb2       1.0  0.95100  0.68600  0.21600  1.0000
  Sb  Sb3       1.0  0.04870  0.31400  0.78400  1.0000
  Sb  Sb4       1.0  0.29300  0.68300  0.90400  1.0000
