data_image0
_chemical_formula_structural       Si6Ta10
_chemical_formula_sum              "Si6 Ta10"
_cell_length_a       6.55585
_cell_length_b       6.55585
_cell_length_c       7.55338
_cell_angle_alpha    115.72
_cell_angle_beta     115.72
_cell_angle_gamma    90

_space_group_name_H-M_alt    "P 1"
_space_group_IT_number       1

loop_
  _space_group_symop_operation_xyz
  'x, y, z'

loop_
  _atom_site_type_symbol
  _atom_site_label
  _atom_site_symmetry_multiplicity
  _atom_site_fract_x
  _atom_site_fract_y
  _atom_site_fract_z
  _atom_site_occupancy
  Si  Si1       1.0  0.63000  0.13000  0.00000  1.0000
  Si  Si2       1.0  0.13000  0.37000  0.00000  1.0000
  Si  Si3       1.0  0.87000  0.63000  0.00000  1.0000
  Si  Si4       1.0  0.37000  0.87000  0.00000  1.0000
  Si  Si5       1.0  0.25000  0.25000  0.50000  1.0000
  Si  Si6       1.0  0.75000  0.75000  0.50000  1.0000
  Ta  Ta1       1.0  0.00000  0.00000  0.00000  1.0000
  Ta  Ta2       1.0  0.50000  0.50000  0.00000  1.0000
  Ta  Ta3       1.0  0.48600  0.31500  0.30000  1.0000
  Ta  Ta4       1.0  0.98600  0.48600  0.30000  1.0000
  Ta  Ta5       1.0  0.31500  0.81500  0.30000  1.0000
  Ta  Ta6       1.0  0.81500  0.98600  0.30000  1.0000
  Ta  Ta7       1.0  0.18500  0.01440  0.70000  1.0000
  Ta  Ta8       1.0  0.68500  0.18500  0.70000  1.0000
  Ta  Ta9       1.0  0.01440  0.51400  0.70000  1.0000
  Ta  Ta10      1.0  0.51400  0.68500  0.70000  1.0000
