data_image0
_chemical_formula_structural       Cu4Se8Tb4
_chemical_formula_sum              "Cu4 Se8 Tb4"
_cell_length_a       6.62875
_cell_length_b       7.33954
_cell_length_c       7.08296
_cell_angle_alpha    90
_cell_angle_beta     96.2812
_cell_angle_gamma    90

_space_group_name_H-M_alt    "P 1"
_space_group_IT_number       1

loop_
  _space_group_symop_operation_xyz
  'x, y, z'

loop_
  _atom_site_type_symbol
  _atom_site_label
  _atom_site_symmetry_multiplicity
  _atom_site_fract_x
  _atom_site_fract_y
  _atom_site_fract_z
  _atom_site_occupancy
  Cu  Cu1       1.0  0.57600  0.65800  0.04620  1.0000
  Cu  Cu2       1.0  0.42400  0.15800  0.45400  1.0000
  Cu  Cu3       1.0  0.57600  0.84200  0.54600  1.0000
  Cu  Cu4       1.0  0.42400  0.34200  0.95400  1.0000
  Se  Se1       1.0  0.92900  0.72400  0.00295  1.0000
  Se  Se2       1.0  0.40000  0.88800  0.21800  1.0000
  Se  Se3       1.0  0.60000  0.38800  0.28200  1.0000
  Se  Se4       1.0  0.07100  0.22400  0.49700  1.0000
  Se  Se5       1.0  0.92900  0.77600  0.50300  1.0000
  Se  Se6       1.0  0.40000  0.61200  0.71800  1.0000
  Se  Se7       1.0  0.60000  0.11200  0.78200  1.0000
  Se  Se8       1.0  0.07100  0.27600  0.99700  1.0000
  Tb  Tb1       1.0  0.80400  0.04260  0.20000  1.0000
  Tb  Tb2       1.0  0.19600  0.54300  0.30000  1.0000
  Tb  Tb3       1.0  0.80400  0.45700  0.70000  1.0000
  Tb  Tb4       1.0  0.19600  0.95700  0.80000  1.0000
