data_image0
_chemical_formula_structural       Ba2I12U2
_chemical_formula_sum              "Ba2 I12 U2"
_cell_length_a       8.42919
_cell_length_b       8.42919
_cell_length_c       15.4331
_cell_angle_alpha    95.9603
_cell_angle_beta     95.9603
_cell_angle_gamma    119.82

_space_group_name_H-M_alt    "P 1"
_space_group_IT_number       1

loop_
  _space_group_symop_operation_xyz
  'x, y, z'

loop_
  _atom_site_type_symbol
  _atom_site_label
  _atom_site_symmetry_multiplicity
  _atom_site_fract_x
  _atom_site_fract_y
  _atom_site_fract_z
  _atom_site_occupancy
  Ba  Ba1       1.0  0.32600  0.66400  0.49600  1.0000
  Ba  Ba2       1.0  0.16400  0.82600  0.99600  1.0000
  I   I1        1.0  0.16900  0.50000  0.11500  1.0000
  I   I2        1.0  0.58100  0.19700  0.11600  1.0000
  I   I3        1.0  0.89200  0.92500  0.12100  1.0000
  I   I4        1.0  0.61100  0.57300  0.37900  1.0000
  I   I5        1.0  0.90600  0.28500  0.38300  1.0000
  I   I6        1.0  0.31700  0.00008  0.38500  1.0000
  I   I7        1.0  0.00012  0.66900  0.61500  1.0000
  I   I8        1.0  0.69700  0.08090  0.61600  1.0000
  I   I9        1.0  0.42500  0.39200  0.62100  1.0000
  I   I10       1.0  0.07350  0.11100  0.87900  1.0000
  I   I11       1.0  0.78500  0.40600  0.88300  1.0000
  I   I12       1.0  0.50000  0.81700  0.88500  1.0000
  U   U1        1.0  0.83300  0.16000  0.00002  1.0000
  U   U2        1.0  0.66000  0.33300  0.50000  1.0000
