data_image0
_chemical_formula_structural       Cl12Fe2Zr2
_chemical_formula_sum              "Cl12 Fe2 Zr2"
_cell_length_a       6.31171
_cell_length_b       6.31033
_cell_length_c       11.8971
_cell_angle_alpha    89.9506
_cell_angle_beta     90.0247
_cell_angle_gamma    119.993

_space_group_name_H-M_alt    "P 1"
_space_group_IT_number       1

loop_
  _space_group_symop_operation_xyz
  'x, y, z'

loop_
  _atom_site_type_symbol
  _atom_site_label
  _atom_site_symmetry_multiplicity
  _atom_site_fract_x
  _atom_site_fract_y
  _atom_site_fract_z
  _atom_site_occupancy
  Cl  Cl1       1.0  0.31000  0.33200  0.13000  1.0000
  Cl  Cl2       1.0  0.02200  0.69000  0.13100  1.0000
  Cl  Cl3       1.0  0.66800  0.97800  0.13100  1.0000
  Cl  Cl4       1.0  0.66800  0.69000  0.36900  1.0000
  Cl  Cl5       1.0  0.02200  0.33200  0.36900  1.0000
  Cl  Cl6       1.0  0.31000  0.97800  0.37000  1.0000
  Cl  Cl7       1.0  0.69000  0.02180  0.63000  1.0000
  Cl  Cl8       1.0  0.97800  0.66800  0.63100  1.0000
  Cl  Cl9       1.0  0.33200  0.31000  0.63100  1.0000
  Cl  Cl10      1.0  0.33200  0.02200  0.86900  1.0000
  Cl  Cl11      1.0  0.97800  0.31000  0.86900  1.0000
  Cl  Cl12      1.0  0.69000  0.66800  0.87000  1.0000
  Fe  Fe1       1.0  0.00031  0.00016  0.25000  1.0000
  Fe  Fe2       1.0  0.00000  0.00000  0.75000  1.0000
  Zr  Zr1       1.0  0.33300  0.66600  0.25000  1.0000
  Zr  Zr2       1.0  0.66700  0.33400  0.75000  1.0000
