data_image0
_chemical_formula_structural       Bi4Cu2K2S8
_chemical_formula_sum              "Bi4 Cu2 K2 S8"
_cell_length_a       4.0317
_cell_length_b       7.23013
_cell_length_c       14.3328
_cell_angle_alpha    90
_cell_angle_beta     90
_cell_angle_gamma    73.8107

_space_group_name_H-M_alt    "P 1"
_space_group_IT_number       1

loop_
  _space_group_symop_operation_xyz
  'x, y, z'

loop_
  _atom_site_type_symbol
  _atom_site_label
  _atom_site_symmetry_multiplicity
  _atom_site_fract_x
  _atom_site_fract_y
  _atom_site_fract_z
  _atom_site_occupancy
  Bi  Bi1       1.0  0.65100  0.69900  0.20400  1.0000
  Bi  Bi2       1.0  0.38200  0.23600  0.32100  1.0000
  Bi  Bi3       1.0  0.34900  0.30100  0.70400  1.0000
  Bi  Bi4       1.0  0.61800  0.76400  0.82100  1.0000
  Cu  Cu1       1.0  0.14800  0.70400  0.02200  1.0000
  Cu  Cu2       1.0  0.85200  0.29600  0.52200  1.0000
  K   K1        1.0  0.11200  0.77600  0.49400  1.0000
  K   K2        1.0  0.88800  0.22400  0.99400  1.0000
  S   S1        1.0  0.56900  0.86100  0.00317  1.0000
  S   S2        1.0  0.26900  0.46200  0.13800  1.0000
  S   S3        1.0  0.01740  0.96500  0.27400  1.0000
  S   S4        1.0  0.74800  0.50500  0.36800  1.0000
  S   S5        1.0  0.43100  0.13900  0.50300  1.0000
  S   S6        1.0  0.73100  0.53800  0.63800  1.0000
  S   S7        1.0  0.98300  0.03480  0.77400  1.0000
  S   S8        1.0  0.25200  0.49500  0.86800  1.0000
