data_image0
_chemical_formula_structural       Br2In2Sb4Se8
_chemical_formula_sum              "Br2 In2 Sb4 Se8"
_cell_length_a       4.05175
_cell_length_b       10.7736
_cell_length_c       11.858
_cell_angle_alpha    110.779
_cell_angle_beta     99.837
_cell_angle_gamma    100.839

_space_group_name_H-M_alt    "P 1"
_space_group_IT_number       1

loop_
  _space_group_symop_operation_xyz
  'x, y, z'

loop_
  _atom_site_type_symbol
  _atom_site_label
  _atom_site_symmetry_multiplicity
  _atom_site_fract_x
  _atom_site_fract_y
  _atom_site_fract_z
  _atom_site_occupancy
  Br  Br1       1.0  0.57400  0.67700  0.47100  1.0000
  Br  Br2       1.0  0.42600  0.32300  0.52900  1.0000
  In  In1       1.0  0.77600  0.11300  0.43900  1.0000
  In  In2       1.0  0.22400  0.88700  0.56100  1.0000
  Sb  Sb1       1.0  0.38900  0.68500  0.09280  1.0000
  Sb  Sb2       1.0  0.27100  0.32000  0.22200  1.0000
  Sb  Sb3       1.0  0.72900  0.68000  0.77800  1.0000
  Sb  Sb4       1.0  0.61100  0.31500  0.90700  1.0000
  Se  Se1       1.0  0.92400  0.82500  0.02360  1.0000
  Se  Se2       1.0  0.82000  0.50000  0.14100  1.0000
  Se  Se3       1.0  0.67900  0.14300  0.21600  1.0000
  Se  Se4       1.0  0.13200  0.92000  0.34400  1.0000
  Se  Se5       1.0  0.86800  0.07980  0.65600  1.0000
  Se  Se6       1.0  0.32100  0.85700  0.78400  1.0000
  Se  Se7       1.0  0.18000  0.50000  0.85900  1.0000
  Se  Se8       1.0  0.07560  0.17500  0.97600  1.0000
