data_image0
_chemical_formula_structural       CuF11NaZr2
_chemical_formula_sum              "Cu1 F11 Na1 Zr2"
_cell_length_a       5.28887
_cell_length_b       5.50579
_cell_length_c       7.45271
_cell_angle_alpha    109.117
_cell_angle_beta     96.9002
_cell_angle_gamma    106.273

_space_group_name_H-M_alt    "P 1"
_space_group_IT_number       1

loop_
  _space_group_symop_operation_xyz
  'x, y, z'

loop_
  _atom_site_type_symbol
  _atom_site_label
  _atom_site_symmetry_multiplicity
  _atom_site_fract_x
  _atom_site_fract_y
  _atom_site_fract_z
  _atom_site_occupancy
  Cu  Cu1       1.0  0.00000  0.50000  0.50000  1.0000
  F   F1        1.0  0.36600  0.31400  0.03150  1.0000
  F   F2        1.0  0.22100  0.79000  0.11300  1.0000
  F   F3        1.0  0.82800  0.56900  0.29600  1.0000
  F   F4        1.0  0.84400  0.06220  0.29600  1.0000
  F   F5        1.0  0.29500  0.48200  0.36900  1.0000
  F   F6        1.0  0.50000  0.00000  0.50000  1.0000
  F   F7        1.0  0.70500  0.51800  0.63100  1.0000
  F   F8        1.0  0.15600  0.93800  0.70400  1.0000
  F   F9        1.0  0.17200  0.43100  0.70400  1.0000
  F   F10       1.0  0.77900  0.21000  0.88700  1.0000
  F   F11       1.0  0.63400  0.68600  0.96900  1.0000
  Na  Na1       1.0  0.00000  0.00000  0.00000  1.0000
  Zr  Zr1       1.0  0.52500  0.72200  0.24100  1.0000
  Zr  Zr2       1.0  0.47500  0.27800  0.75900  1.0000
