data_image0
_chemical_formula_structural       Ag2K4S8V2
_chemical_formula_sum              "Ag2 K4 S8 V2"
_cell_length_a       5.81116
_cell_length_b       7.14932
_cell_length_c       11.603
_cell_angle_alpha    95.8413
_cell_angle_beta     104.502
_cell_angle_gamma    66.0202

_space_group_name_H-M_alt    "P 1"
_space_group_IT_number       1

loop_
  _space_group_symop_operation_xyz
  'x, y, z'

loop_
  _atom_site_type_symbol
  _atom_site_label
  _atom_site_symmetry_multiplicity
  _atom_site_fract_x
  _atom_site_fract_y
  _atom_site_fract_z
  _atom_site_occupancy
  Ag  Ag1       1.0  0.87500  0.25000  0.25000  1.0000
  Ag  Ag2       1.0  0.12500  0.75000  0.75000  1.0000
  K   K1        1.0  0.80600  0.75000  0.11200  1.0000
  K   K2        1.0  0.44400  0.75000  0.38800  1.0000
  K   K3        1.0  0.55600  0.25000  0.61200  1.0000
  K   K4        1.0  0.19400  0.25000  0.88800  1.0000
  S   S1        1.0  0.21600  0.04880  0.13600  1.0000
  S   S2        1.0  0.42000  0.45100  0.13600  1.0000
  S   S3        1.0  0.73500  0.04880  0.36400  1.0000
  S   S4        1.0  0.12900  0.45100  0.36400  1.0000
  S   S5        1.0  0.87100  0.54900  0.63600  1.0000
  S   S6        1.0  0.26500  0.95100  0.63600  1.0000
  S   S7        1.0  0.58000  0.54900  0.86400  1.0000
  S   S8        1.0  0.78400  0.95100  0.86400  1.0000
  V   V1        1.0  0.37500  0.25000  0.25000  1.0000
  V   V2        1.0  0.62500  0.75000  0.75000  1.0000
