data_image0
_chemical_formula_structural       Ge2Mn2Sr2
_chemical_formula_sum              "Ge2 Mn2 Sr2"
_cell_length_a       4.5083
_cell_length_b       4.5083
_cell_length_c       7.26953
_cell_angle_alpha    90
_cell_angle_beta     90
_cell_angle_gamma    90

_space_group_name_H-M_alt    "P 1"
_space_group_IT_number       1

loop_
  _space_group_symop_operation_xyz
  'x, y, z'

loop_
  _atom_site_type_symbol
  _atom_site_label
  _atom_site_symmetry_multiplicity
  _atom_site_fract_x
  _atom_site_fract_y
  _atom_site_fract_z
  _atom_site_occupancy
  Ge  Ge1       1.0  0.50000  0.00000  0.18300  1.0000
  Ge  Ge2       1.0  0.00000  0.50000  0.81700  1.0000
  Mn  Mn1       1.0  0.00000  0.00000  0.00000  1.0000
  Mn  Mn2       1.0  0.50000  0.50000  0.00000  1.0000
  Sr  Sr1       1.0  0.00000  0.50000  0.32800  1.0000
  Sr  Sr2       1.0  0.50000  0.00000  0.67200  1.0000
