data_image0
_chemical_formula_structural       Ag2Rb4S8V2
_chemical_formula_sum              "Ag2 Rb4 S8 V2"
_cell_length_a       5.82563
_cell_length_b       7.38013
_cell_length_c       12.0971
_cell_angle_alpha    95.4533
_cell_angle_beta     103.933
_cell_angle_gamma    66.7538

_space_group_name_H-M_alt    "P 1"
_space_group_IT_number       1

loop_
  _space_group_symop_operation_xyz
  'x, y, z'

loop_
  _atom_site_type_symbol
  _atom_site_label
  _atom_site_symmetry_multiplicity
  _atom_site_fract_x
  _atom_site_fract_y
  _atom_site_fract_z
  _atom_site_occupancy
  Ag  Ag1       1.0  0.87500  0.25000  0.25000  1.0000
  Ag  Ag2       1.0  0.12500  0.75000  0.75000  1.0000
  Rb  Rb1       1.0  0.80500  0.75000  0.11000  1.0000
  Rb  Rb2       1.0  0.44500  0.75000  0.39000  1.0000
  Rb  Rb3       1.0  0.55500  0.25000  0.61000  1.0000
  Rb  Rb4       1.0  0.19500  0.25000  0.89000  1.0000
  S   S1        1.0  0.21400  0.05720  0.14100  1.0000
  S   S2        1.0  0.42700  0.44300  0.14100  1.0000
  S   S3        1.0  0.72900  0.05720  0.35900  1.0000
  S   S4        1.0  0.13000  0.44300  0.35900  1.0000
  S   S5        1.0  0.87000  0.55700  0.64100  1.0000
  S   S6        1.0  0.27100  0.94300  0.64100  1.0000
  S   S7        1.0  0.57300  0.55700  0.85900  1.0000
  S   S8        1.0  0.78600  0.94300  0.85900  1.0000
  V   V1        1.0  0.37500  0.25000  0.25000  1.0000
  V   V2        1.0  0.62500  0.75000  0.75000  1.0000
