data_image0
_chemical_formula_structural       Fe2Pu12
_chemical_formula_sum              "Fe2 Pu12"
_cell_length_a       5.41055
_cell_length_b       7.71253
_cell_length_c       7.71253
_cell_angle_alpha    97.0673
_cell_angle_beta     69.466
_cell_angle_gamma    110.534

_space_group_name_H-M_alt    "P 1"
_space_group_IT_number       1

loop_
  _space_group_symop_operation_xyz
  'x, y, z'

loop_
  _atom_site_type_symbol
  _atom_site_label
  _atom_site_symmetry_multiplicity
  _atom_site_fract_x
  _atom_site_fract_y
  _atom_site_fract_z
  _atom_site_occupancy
  Fe  Fe1       1.0  0.25000  0.00000  0.00000  1.0000
  Fe  Fe2       1.0  0.75000  0.00000  0.00000  1.0000
  Pu  Pu1       1.0  0.28200  0.68600  0.12300  1.0000
  Pu  Pu2       1.0  0.09540  0.31400  0.12300  1.0000
  Pu  Pu3       1.0  0.59800  0.50000  0.30500  1.0000
  Pu  Pu4       1.0  0.40500  0.12300  0.31400  1.0000
  Pu  Pu5       1.0  0.78200  0.87700  0.31400  1.0000
  Pu  Pu6       1.0  0.90200  0.30500  0.50000  1.0000
  Pu  Pu7       1.0  0.09760  0.69500  0.50000  1.0000
  Pu  Pu8       1.0  0.21800  0.12300  0.68600  1.0000
  Pu  Pu9       1.0  0.59500  0.87700  0.68600  1.0000
  Pu  Pu10      1.0  0.40200  0.50000  0.69500  1.0000
  Pu  Pu11      1.0  0.71800  0.31400  0.87700  1.0000
  Pu  Pu12      1.0  0.90500  0.68600  0.87700  1.0000
