data_image0
_chemical_formula_structural       Br4Cd2Sb4Se6
_chemical_formula_sum              "Br4 Cd2 Sb4 Se6"
_cell_length_a       4.08856
_cell_length_b       10.9246
_cell_length_c       11.9242
_cell_angle_alpha    109.916
_cell_angle_beta     99.8715
_cell_angle_gamma    100.785

_space_group_name_H-M_alt    "P 1"
_space_group_IT_number       1

loop_
  _space_group_symop_operation_xyz
  'x, y, z'

loop_
  _atom_site_type_symbol
  _atom_site_label
  _atom_site_symmetry_multiplicity
  _atom_site_fract_x
  _atom_site_fract_y
  _atom_site_fract_z
  _atom_site_occupancy
  Br  Br1       1.0  0.14000  0.92900  0.35200  1.0000
  Br  Br2       1.0  0.56000  0.66200  0.45800  1.0000
  Br  Br3       1.0  0.44000  0.33800  0.54200  1.0000
  Br  Br4       1.0  0.86000  0.07140  0.64800  1.0000
  Cd  Cd1       1.0  0.80200  0.15200  0.45200  1.0000
  Cd  Cd2       1.0  0.19800  0.84800  0.54800  1.0000
  Sb  Sb1       1.0  0.38400  0.67900  0.08970  1.0000
  Sb  Sb2       1.0  0.26400  0.31200  0.21600  1.0000
  Sb  Sb3       1.0  0.73600  0.68800  0.78400  1.0000
  Sb  Sb4       1.0  0.61600  0.32100  0.91000  1.0000
  Se  Se1       1.0  0.92400  0.82300  0.02580  1.0000
  Se  Se2       1.0  0.81800  0.49700  0.13900  1.0000
  Se  Se3       1.0  0.67900  0.14100  0.21600  1.0000
  Se  Se4       1.0  0.32100  0.85900  0.78400  1.0000
  Se  Se5       1.0  0.18200  0.50300  0.86100  1.0000
  Se  Se6       1.0  0.07560  0.17700  0.97400  1.0000
