data_image0
_chemical_formula_structural       Si6Sr10
_chemical_formula_sum              "Si6 Sr10"
_cell_length_a       8.04649
_cell_length_b       8.04649
_cell_length_c       9.76436
_cell_angle_alpha    114.333
_cell_angle_beta     114.333
_cell_angle_gamma    90

_space_group_name_H-M_alt    "P 1"
_space_group_IT_number       1

loop_
  _space_group_symop_operation_xyz
  'x, y, z'

loop_
  _atom_site_type_symbol
  _atom_site_label
  _atom_site_symmetry_multiplicity
  _atom_site_fract_x
  _atom_site_fract_y
  _atom_site_fract_z
  _atom_site_occupancy
  Si  Si1       1.0  0.60800  0.10800  0.00000  1.0000
  Si  Si2       1.0  0.10800  0.39200  0.00000  1.0000
  Si  Si3       1.0  0.89200  0.60800  0.00000  1.0000
  Si  Si4       1.0  0.39200  0.89200  0.00000  1.0000
  Si  Si5       1.0  0.25000  0.25000  0.50000  1.0000
  Si  Si6       1.0  0.75000  0.75000  0.50000  1.0000
  Sr  Sr1       1.0  0.00000  0.00000  0.00000  1.0000
  Sr  Sr2       1.0  0.50000  0.50000  0.00000  1.0000
  Sr  Sr3       1.0  0.46200  0.32100  0.28300  1.0000
  Sr  Sr4       1.0  0.96200  0.46200  0.28300  1.0000
  Sr  Sr5       1.0  0.32100  0.82100  0.28300  1.0000
  Sr  Sr6       1.0  0.82100  0.96200  0.28300  1.0000
  Sr  Sr7       1.0  0.17900  0.03760  0.71700  1.0000
  Sr  Sr8       1.0  0.67900  0.17900  0.71700  1.0000
  Sr  Sr9       1.0  0.03760  0.53800  0.71700  1.0000
  Sr  Sr10      1.0  0.53800  0.67900  0.71700  1.0000
