data_image0
_chemical_formula_structural       Ag2Cs4Nb2Se8
_chemical_formula_sum              "Ag2 Cs4 Nb2 Se8"
_cell_length_a       6.15853
_cell_length_b       7.95852
_cell_length_c       13.1382
_cell_angle_alpha    95.2029
_cell_angle_beta     76.4452
_cell_angle_gamma    112.763

_space_group_name_H-M_alt    "P 1"
_space_group_IT_number       1

loop_
  _space_group_symop_operation_xyz
  'x, y, z'

loop_
  _atom_site_type_symbol
  _atom_site_label
  _atom_site_symmetry_multiplicity
  _atom_site_fract_x
  _atom_site_fract_y
  _atom_site_fract_z
  _atom_site_occupancy
  Ag  Ag1       1.0  0.62500  0.75000  0.25000  1.0000
  Ag  Ag2       1.0  0.37500  0.25000  0.75000  1.0000
  Cs  Cs1       1.0  0.69500  0.25000  0.11000  1.0000
  Cs  Cs2       1.0  0.05490  0.25000  0.39000  1.0000
  Cs  Cs3       1.0  0.94500  0.75000  0.61000  1.0000
  Cs  Cs4       1.0  0.30500  0.75000  0.89000  1.0000
  Nb  Nb1       1.0  0.12500  0.75000  0.25000  1.0000
  Nb  Nb2       1.0  0.87500  0.25000  0.75000  1.0000
  Se  Se1       1.0  0.30300  0.55400  0.13800  1.0000
  Se  Se2       1.0  0.05920  0.94600  0.13800  1.0000
  Se  Se3       1.0  0.75100  0.55400  0.36200  1.0000
  Se  Se4       1.0  0.38700  0.94600  0.36200  1.0000
  Se  Se5       1.0  0.61300  0.05350  0.63800  1.0000
  Se  Se6       1.0  0.24900  0.44600  0.63800  1.0000
  Se  Se7       1.0  0.94100  0.05350  0.86200  1.0000
  Se  Se8       1.0  0.69700  0.44600  0.86200  1.0000
