data_image0
_chemical_formula_structural       Os6Pu10
_chemical_formula_sum              "Os6 Pu10"
_cell_length_a       5.83395
_cell_length_b       8.19056
_cell_length_c       8.19056
_cell_angle_alpha    97.2867
_cell_angle_beta     69.1367
_cell_angle_gamma    110.863

_space_group_name_H-M_alt    "P 1"
_space_group_IT_number       1

loop_
  _space_group_symop_operation_xyz
  'x, y, z'

loop_
  _atom_site_type_symbol
  _atom_site_label
  _atom_site_symmetry_multiplicity
  _atom_site_fract_x
  _atom_site_fract_y
  _atom_site_fract_z
  _atom_site_occupancy
  Os  Os1       1.0  0.25000  0.00000  0.00000  1.0000
  Os  Os2       1.0  0.75000  0.00000  0.00000  1.0000
  Os  Os3       1.0  0.15900  0.50000  0.18100  1.0000
  Os  Os4       1.0  0.65900  0.81900  0.50000  1.0000
  Os  Os5       1.0  0.34100  0.18100  0.50000  1.0000
  Os  Os6       1.0  0.84100  0.50000  0.81900  1.0000
  Pu  Pu1       1.0  0.58500  0.30200  0.13200  1.0000
  Pu  Pu2       1.0  0.78300  0.69800  0.13200  1.0000
  Pu  Pu3       1.0  0.91500  0.13200  0.30200  1.0000
  Pu  Pu4       1.0  0.28300  0.86800  0.30200  1.0000
  Pu  Pu5       1.0  0.25000  0.50000  0.50000  1.0000
  Pu  Pu6       1.0  0.75000  0.50000  0.50000  1.0000
  Pu  Pu7       1.0  0.71700  0.13200  0.69800  1.0000
  Pu  Pu8       1.0  0.08540  0.86800  0.69800  1.0000
  Pu  Pu9       1.0  0.21700  0.30200  0.86800  1.0000
  Pu  Pu10      1.0  0.41500  0.69800  0.86800  1.0000
