data_image0
_chemical_formula_structural       Cu2Sb4Ti10
_chemical_formula_sum              "Cu2 Sb4 Ti10"
_cell_length_a       5.11515
_cell_length_b       7.81506
_cell_length_c       7.81506
_cell_angle_alpha    96.1482
_cell_angle_beta     70.8973
_cell_angle_gamma    109.103

_space_group_name_H-M_alt    "P 1"
_space_group_IT_number       1

loop_
  _space_group_symop_operation_xyz
  'x, y, z'

loop_
  _atom_site_type_symbol
  _atom_site_label
  _atom_site_symmetry_multiplicity
  _atom_site_fract_x
  _atom_site_fract_y
  _atom_site_fract_z
  _atom_site_occupancy
  Cu  Cu1       1.0  0.25000  0.00000  0.00000  1.0000
  Cu  Cu2       1.0  0.75000  0.00000  0.00000  1.0000
  Sb  Sb1       1.0  0.16400  0.50000  0.17100  1.0000
  Sb  Sb2       1.0  0.33600  0.17100  0.50000  1.0000
  Sb  Sb3       1.0  0.66400  0.82900  0.50000  1.0000
  Sb  Sb4       1.0  0.83600  0.50000  0.82900  1.0000
  Ti  Ti1       1.0  0.57400  0.28800  0.14100  1.0000
  Ti  Ti2       1.0  0.78500  0.71200  0.14100  1.0000
  Ti  Ti3       1.0  0.92600  0.14100  0.28800  1.0000
  Ti  Ti4       1.0  0.28500  0.85900  0.28800  1.0000
  Ti  Ti5       1.0  0.25000  0.50000  0.50000  1.0000
  Ti  Ti6       1.0  0.75000  0.50000  0.50000  1.0000
  Ti  Ti7       1.0  0.07380  0.85900  0.71200  1.0000
  Ti  Ti8       1.0  0.71500  0.14100  0.71200  1.0000
  Ti  Ti9       1.0  0.42600  0.71200  0.85900  1.0000
  Ti  Ti10      1.0  0.21500  0.28800  0.85900  1.0000
