data_image0
_chemical_formula_structural       C6Nb8Si2
_chemical_formula_sum              "C6 Nb8 Si2"
_cell_length_a       3.18562
_cell_length_b       3.18561
_cell_length_c       25.6849
_cell_angle_alpha    90
_cell_angle_beta     90
_cell_angle_gamma    120

_space_group_name_H-M_alt    "P 1"
_space_group_IT_number       1

loop_
  _space_group_symop_operation_xyz
  'x, y, z'

loop_
  _atom_site_type_symbol
  _atom_site_label
  _atom_site_symmetry_multiplicity
  _atom_site_fract_x
  _atom_site_fract_y
  _atom_site_fract_z
  _atom_site_occupancy
  C   C1        1.0  0.00000  0.00000  0.00000  1.0000
  C   C2        1.0  0.33300  0.66700  0.12800  1.0000
  C   C3        1.0  0.33300  0.66700  0.37200  1.0000
  C   C4        1.0  0.00000  0.00000  0.50000  1.0000
  C   C5        1.0  0.66700  0.33300  0.62800  1.0000
  C   C6        1.0  0.66700  0.33300  0.87200  1.0000
  Nb  Nb1       1.0  0.33300  0.66700  0.04800  1.0000
  Nb  Nb2       1.0  0.66700  0.33300  0.16900  1.0000
  Nb  Nb3       1.0  0.66700  0.33300  0.33100  1.0000
  Nb  Nb4       1.0  0.33300  0.66700  0.45200  1.0000
  Nb  Nb5       1.0  0.66700  0.33300  0.54800  1.0000
  Nb  Nb6       1.0  0.33300  0.66700  0.66900  1.0000
  Nb  Nb7       1.0  0.33300  0.66700  0.83100  1.0000
  Nb  Nb8       1.0  0.66700  0.33300  0.95200  1.0000
  Si  Si1       1.0  0.33300  0.66700  0.25000  1.0000
  Si  Si2       1.0  0.66700  0.33300  0.75000  1.0000
