data_image0
_chemical_formula_structural       Ho4Li4O8
_chemical_formula_sum              "Ho4 Li4 O8"
_cell_length_a       6.02847
_cell_length_b       6.213
_cell_length_c       6.05686
_cell_angle_alpha    90
_cell_angle_beta     117.924
_cell_angle_gamma    90

_space_group_name_H-M_alt    "P 1"
_space_group_IT_number       1

loop_
  _space_group_symop_operation_xyz
  'x, y, z'

loop_
  _atom_site_type_symbol
  _atom_site_label
  _atom_site_symmetry_multiplicity
  _atom_site_fract_x
  _atom_site_fract_y
  _atom_site_fract_z
  _atom_site_occupancy
  Ho  Ho1       1.0  0.75300  0.87400  0.00500  1.0000
  Ho  Ho2       1.0  0.24700  0.37400  0.49500  1.0000
  Ho  Ho3       1.0  0.75300  0.62600  0.50500  1.0000
  Ho  Ho4       1.0  0.24700  0.12600  0.99500  1.0000
  Li  Li1       1.0  0.25700  0.63200  0.01170  1.0000
  Li  Li2       1.0  0.74300  0.13200  0.48800  1.0000
  Li  Li3       1.0  0.25700  0.86800  0.51200  1.0000
  Li  Li4       1.0  0.74300  0.36800  0.98800  1.0000
  O   O1        1.0  0.01300  0.14200  0.20100  1.0000
  O   O2        1.0  0.53600  0.88500  0.23400  1.0000
  O   O3        1.0  0.46400  0.38500  0.26600  1.0000
  O   O4        1.0  0.98700  0.64200  0.29900  1.0000
  O   O5        1.0  0.01300  0.35800  0.70100  1.0000
  O   O6        1.0  0.53600  0.61500  0.73400  1.0000
  O   O7        1.0  0.46400  0.11500  0.76600  1.0000
  O   O8        1.0  0.98700  0.85800  0.79900  1.0000
