data_image0
_chemical_formula_structural       Ge6Ho6Ru4
_chemical_formula_sum              "Ge6 Ho6 Ru4"
_cell_length_a       4.25948
_cell_length_b       5.80207
_cell_length_c       13.9109
_cell_angle_alpha    90
_cell_angle_beta     90
_cell_angle_gamma    68.4652

_space_group_name_H-M_alt    "P 1"
_space_group_IT_number       1

loop_
  _space_group_symop_operation_xyz
  'x, y, z'

loop_
  _atom_site_type_symbol
  _atom_site_label
  _atom_site_symmetry_multiplicity
  _atom_site_fract_x
  _atom_site_fract_y
  _atom_site_fract_z
  _atom_site_occupancy
  Ge  Ge1       1.0  0.11500  0.76900  0.04050  1.0000
  Ge  Ge2       1.0  0.83600  0.32800  0.25000  1.0000
  Ge  Ge3       1.0  0.11500  0.76900  0.46000  1.0000
  Ge  Ge4       1.0  0.88500  0.23100  0.54000  1.0000
  Ge  Ge5       1.0  0.16400  0.67200  0.75000  1.0000
  Ge  Ge6       1.0  0.88500  0.23100  0.96000  1.0000
  Ho  Ho1       1.0  0.42200  0.15700  0.11300  1.0000
  Ho  Ho2       1.0  0.14600  0.70900  0.25000  1.0000
  Ho  Ho3       1.0  0.42200  0.15700  0.38700  1.0000
  Ho  Ho4       1.0  0.57800  0.84300  0.61300  1.0000
  Ho  Ho5       1.0  0.85400  0.29100  0.75000  1.0000
  Ho  Ho6       1.0  0.57800  0.84300  0.88700  1.0000
  Ru  Ru1       1.0  0.71300  0.57400  0.08270  1.0000
  Ru  Ru2       1.0  0.71300  0.57400  0.41700  1.0000
  Ru  Ru3       1.0  0.28700  0.42600  0.58300  1.0000
  Ru  Ru4       1.0  0.28700  0.42600  0.91700  1.0000
