data_image0
_chemical_formula_structural       Au6Ca10
_chemical_formula_sum              "Au6 Ca10"
_cell_length_a       7.84855
_cell_length_b       7.84855
_cell_length_c       9.09624
_cell_angle_alpha    115.558
_cell_angle_beta     115.558
_cell_angle_gamma    90

_space_group_name_H-M_alt    "P 1"
_space_group_IT_number       1

loop_
  _space_group_symop_operation_xyz
  'x, y, z'

loop_
  _atom_site_type_symbol
  _atom_site_label
  _atom_site_symmetry_multiplicity
  _atom_site_fract_x
  _atom_site_fract_y
  _atom_site_fract_z
  _atom_site_occupancy
  Au  Au1       1.0  0.36900  0.13100  0.00000  1.0000
  Au  Au2       1.0  0.86900  0.36900  0.00000  1.0000
  Au  Au3       1.0  0.13100  0.63100  0.00000  1.0000
  Au  Au4       1.0  0.63100  0.86900  0.00000  1.0000
  Au  Au5       1.0  0.25000  0.25000  0.50000  1.0000
  Au  Au6       1.0  0.75000  0.75000  0.50000  1.0000
  Ca  Ca1       1.0  0.00000  0.00000  0.00000  1.0000
  Ca  Ca2       1.0  0.50000  0.50000  0.00000  1.0000
  Ca  Ca3       1.0  0.81200  0.31200  0.28900  1.0000
  Ca  Ca4       1.0  0.31200  0.47700  0.28900  1.0000
  Ca  Ca5       1.0  0.97700  0.81200  0.28900  1.0000
  Ca  Ca6       1.0  0.47700  0.97700  0.28900  1.0000
  Ca  Ca7       1.0  0.52300  0.02260  0.71100  1.0000
  Ca  Ca8       1.0  0.02260  0.18800  0.71100  1.0000
  Ca  Ca9       1.0  0.68800  0.52300  0.71100  1.0000
  Ca  Ca10      1.0  0.18800  0.68800  0.71100  1.0000
