data_image0
_chemical_formula_structural       Bi2Mn2O10V2
_chemical_formula_sum              "Bi2 Mn2 O10 V2"
_cell_length_a       6.87756
_cell_length_b       6.95838
_cell_length_c       5.33197
_cell_angle_alpha    108.89
_cell_angle_beta     95.6026
_cell_angle_gamma    109.742

_space_group_name_H-M_alt    "P 1"
_space_group_IT_number       1

loop_
  _space_group_symop_operation_xyz
  'x, y, z'

loop_
  _atom_site_type_symbol
  _atom_site_label
  _atom_site_symmetry_multiplicity
  _atom_site_fract_x
  _atom_site_fract_y
  _atom_site_fract_z
  _atom_site_occupancy
  Bi  Bi1       1.0  0.75900  0.52600  0.08530  1.0000
  Bi  Bi2       1.0  0.24100  0.47400  0.91500  1.0000
  Mn  Mn1       1.0  0.36400  0.22200  0.32300  1.0000
  Mn  Mn2       1.0  0.63600  0.77800  0.67700  1.0000
  O   O1        1.0  0.79200  0.87000  0.09360  1.0000
  O   O2        1.0  0.65400  0.22300  0.21300  1.0000
  O   O3        1.0  0.50000  0.55400  0.26600  1.0000
  O   O4        1.0  0.24100  0.91200  0.36500  1.0000
  O   O5        1.0  0.08800  0.30100  0.43100  1.0000
  O   O6        1.0  0.91200  0.69900  0.56900  1.0000
  O   O7        1.0  0.75900  0.08840  0.63500  1.0000
  O   O8        1.0  0.50000  0.44600  0.73400  1.0000
  O   O9        1.0  0.34600  0.77700  0.78700  1.0000
  O   O10       1.0  0.20800  0.13000  0.90600  1.0000
  V   V1        1.0  0.82200  0.12000  0.34500  1.0000
  V   V2        1.0  0.17800  0.88000  0.65500  1.0000
