data_image0
_chemical_formula_structural       Eu6Ga10
_chemical_formula_sum              "Eu6 Ga10"
_cell_length_a       4.52731
_cell_length_b       5.87407
_cell_length_c       15.1445
_cell_angle_alpha    90
_cell_angle_beta     90
_cell_angle_gamma    67.3337

_space_group_name_H-M_alt    "P 1"
_space_group_IT_number       1

loop_
  _space_group_symop_operation_xyz
  'x, y, z'

loop_
  _atom_site_type_symbol
  _atom_site_label
  _atom_site_symmetry_multiplicity
  _atom_site_fract_x
  _atom_site_fract_y
  _atom_site_fract_z
  _atom_site_occupancy
  Eu  Eu1       1.0  0.27200  0.45500  0.00000  1.0000
  Eu  Eu2       1.0  0.99100  0.01770  0.14400  1.0000
  Eu  Eu3       1.0  0.80400  0.39100  0.35800  1.0000
  Eu  Eu4       1.0  0.52200  0.95500  0.50000  1.0000
  Eu  Eu5       1.0  0.80400  0.39100  0.64200  1.0000
  Eu  Eu6       1.0  0.99100  0.01770  0.85600  1.0000
  Ga  Ga1       1.0  0.56700  0.86600  0.00000  1.0000
  Ga  Ga2       1.0  0.69200  0.61600  0.15300  1.0000
  Ga  Ga3       1.0  0.28100  0.43800  0.21900  1.0000
  Ga  Ga4       1.0  0.51400  0.97100  0.28500  1.0000
  Ga  Ga5       1.0  0.10200  0.79500  0.35000  1.0000
  Ga  Ga6       1.0  0.22900  0.54200  0.50000  1.0000
  Ga  Ga7       1.0  0.10200  0.79500  0.65000  1.0000
  Ga  Ga8       1.0  0.51400  0.97100  0.71500  1.0000
  Ga  Ga9       1.0  0.28100  0.43800  0.78100  1.0000
  Ga  Ga10      1.0  0.69200  0.61600  0.84700  1.0000
