data_image0
_chemical_formula_structural       Ni8P4Sn4
_chemical_formula_sum              "Ni8 P4 Sn4"
_cell_length_a       12.9219
_cell_length_b       3.58758
_cell_length_c       5.0984
_cell_angle_alpha    90
_cell_angle_beta     90
_cell_angle_gamma    90

_space_group_name_H-M_alt    "P 1"
_space_group_IT_number       1

loop_
  _space_group_symop_operation_xyz
  'x, y, z'

loop_
  _atom_site_type_symbol
  _atom_site_label
  _atom_site_symmetry_multiplicity
  _atom_site_fract_x
  _atom_site_fract_y
  _atom_site_fract_z
  _atom_site_occupancy
  Ni  Ni1       1.0  0.61300  0.25000  0.00030  1.0000
  Ni  Ni2       1.0  0.07930  0.25000  0.01370  1.0000
  Ni  Ni3       1.0  0.57900  0.25000  0.48600  1.0000
  Ni  Ni4       1.0  0.11300  0.25000  0.50000  1.0000
  Ni  Ni5       1.0  0.88700  0.75000  0.50000  1.0000
  Ni  Ni6       1.0  0.42100  0.75000  0.51400  1.0000
  Ni  Ni7       1.0  0.92100  0.75000  0.98600  1.0000
  Ni  Ni8       1.0  0.38700  0.75000  0.00000  1.0000
  P   P1        1.0  0.54400  0.75000  0.21400  1.0000
  P   P2        1.0  0.04370  0.75000  0.28600  1.0000
  P   P3        1.0  0.95600  0.25000  0.71400  1.0000
  P   P4        1.0  0.45600  0.25000  0.78600  1.0000
  Sn  Sn1       1.0  0.79300  0.25000  0.21400  1.0000
  Sn  Sn2       1.0  0.29300  0.25000  0.28600  1.0000
  Sn  Sn3       1.0  0.70700  0.75000  0.71400  1.0000
  Sn  Sn4       1.0  0.20700  0.75000  0.78600  1.0000
