data_image0
_chemical_formula_structural       Fe8Ni4P4
_chemical_formula_sum              "Fe8 Ni4 P4"
_cell_length_a       4.37201
_cell_length_b       6.70222
_cell_length_c       6.70222
_cell_angle_alpha    96.1067
_cell_angle_beta     109.036
_cell_angle_gamma    70.9641

_space_group_name_H-M_alt    "P 1"
_space_group_IT_number       1

loop_
  _space_group_symop_operation_xyz
  'x, y, z'

loop_
  _atom_site_type_symbol
  _atom_site_label
  _atom_site_symmetry_multiplicity
  _atom_site_fract_x
  _atom_site_fract_y
  _atom_site_fract_z
  _atom_site_occupancy
  Fe  Fe1       1.0  0.69300  0.18500  0.02860  1.0000
  Fe  Fe2       1.0  0.33600  0.97100  0.18500  1.0000
  Fe  Fe3       1.0  0.37800  0.60900  0.33100  1.0000
  Fe  Fe4       1.0  0.01340  0.33100  0.39100  1.0000
  Fe  Fe5       1.0  0.95400  0.66900  0.60900  1.0000
  Fe  Fe6       1.0  0.65500  0.39100  0.66900  1.0000
  Fe  Fe7       1.0  0.12300  0.02860  0.81500  1.0000
  Fe  Fe8       1.0  0.84900  0.81500  0.97100  1.0000
  Ni  Ni1       1.0  0.07750  0.39300  0.04480  1.0000
  Ni  Ni2       1.0  0.96700  0.95500  0.39300  1.0000
  Ni  Ni3       1.0  0.52900  0.04480  0.60700  1.0000
  Ni  Ni4       1.0  0.42600  0.60700  0.95500  1.0000
  P   P1        1.0  0.80600  0.66400  0.24800  1.0000
  P   P2        1.0  0.53000  0.24800  0.33600  1.0000
  P   P3        1.0  0.44200  0.75200  0.66400  1.0000
  P   P4        1.0  0.22200  0.33600  0.75200  1.0000
