data_image0
_chemical_formula_structural       Ag6P2Se8
_chemical_formula_sum              "Ag6 P2 Se8"
_cell_length_a       8.20906
_cell_length_b       7.22354
_cell_length_c       6.92838
_cell_angle_alpha    90
_cell_angle_beta     90
_cell_angle_gamma    90

_space_group_name_H-M_alt    "P 1"
_space_group_IT_number       1

loop_
  _space_group_symop_operation_xyz
  'x, y, z'

loop_
  _atom_site_type_symbol
  _atom_site_label
  _atom_site_symmetry_multiplicity
  _atom_site_fract_x
  _atom_site_fract_y
  _atom_site_fract_z
  _atom_site_occupancy
  Ag  Ag1       1.0  0.00000  0.64500  0.02280  1.0000
  Ag  Ag2       1.0  0.23600  0.80800  0.48200  1.0000
  Ag  Ag3       1.0  0.76400  0.80800  0.48200  1.0000
  Ag  Ag4       1.0  0.50000  0.35500  0.52300  1.0000
  Ag  Ag5       1.0  0.26400  0.19200  0.98200  1.0000
  Ag  Ag6       1.0  0.73600  0.19200  0.98200  1.0000
  P   P1        1.0  0.50000  0.68300  0.00424  1.0000
  P   P2        1.0  0.00000  0.31700  0.50400  1.0000
  Se  Se1       1.0  0.27400  0.83700  0.10600  1.0000
  Se  Se2       1.0  0.72600  0.83700  0.10600  1.0000
  Se  Se3       1.0  0.50000  0.39500  0.13100  1.0000
  Se  Se4       1.0  0.00000  0.30700  0.17900  1.0000
  Se  Se5       1.0  0.22600  0.16300  0.60600  1.0000
  Se  Se6       1.0  0.77400  0.16300  0.60600  1.0000
  Se  Se7       1.0  0.00000  0.60500  0.63100  1.0000
  Se  Se8       1.0  0.50000  0.69300  0.67900  1.0000
