data_image0
_chemical_formula_structural       HfPd5
_chemical_formula_sum              "Hf1 Pd5"
_cell_length_a       3.67476
_cell_length_b       6.42352
_cell_length_c       4.16195
_cell_angle_alpha    90
_cell_angle_beta     90
_cell_angle_gamma    106.621

_space_group_name_H-M_alt    "P 1"
_space_group_IT_number       1

loop_
  _space_group_symop_operation_xyz
  'x, y, z'

loop_
  _atom_site_type_symbol
  _atom_site_label
  _atom_site_symmetry_multiplicity
  _atom_site_fract_x
  _atom_site_fract_y
  _atom_site_fract_z
  _atom_site_occupancy
  Hf  Hf1       1.0  0.00000  0.00000  0.00000  1.0000
  Pd  Pd1       1.0  0.66200  0.32400  0.00000  1.0000
  Pd  Pd2       1.0  0.33800  0.67600  0.00000  1.0000
  Pd  Pd3       1.0  0.50000  1.00000  0.50000  1.0000
  Pd  Pd4       1.0  0.16800  0.33500  0.50000  1.0000
  Pd  Pd5       1.0  0.83200  0.66500  0.50000  1.0000
