data_image0
_chemical_formula_structural       Cl10K4ORe2
_chemical_formula_sum              "Cl10 K4 O1 Re2"
_cell_length_a       7.15406
_cell_length_b       7.15406
_cell_length_c       10.2805
_cell_angle_alpha    110.362
_cell_angle_beta     110.362
_cell_angle_gamma    90

_space_group_name_H-M_alt    "P 1"
_space_group_IT_number       1

loop_
  _space_group_symop_operation_xyz
  'x, y, z'

loop_
  _atom_site_type_symbol
  _atom_site_label
  _atom_site_symmetry_multiplicity
  _atom_site_fract_x
  _atom_site_fract_y
  _atom_site_fract_z
  _atom_site_occupancy
  Cl  Cl1       1.0  0.34800  0.34800  0.22300  1.0000
  Cl  Cl2       1.0  0.87500  0.34800  0.22300  1.0000
  Cl  Cl3       1.0  0.34800  0.87500  0.22300  1.0000
  Cl  Cl4       1.0  0.87500  0.87500  0.22300  1.0000
  Cl  Cl5       1.0  0.23800  0.23800  0.47600  1.0000
  Cl  Cl6       1.0  0.76200  0.76200  0.52400  1.0000
  Cl  Cl7       1.0  0.12500  0.12500  0.77700  1.0000
  Cl  Cl8       1.0  0.65200  0.12500  0.77700  1.0000
  Cl  Cl9       1.0  0.12500  0.65200  0.77700  1.0000
  Cl  Cl10      1.0  0.65200  0.65200  0.77700  1.0000
  K   K1        1.0  0.50000  0.00000  0.00000  1.0000
  K   K2        1.0  0.00000  0.50000  0.00000  1.0000
  K   K3        1.0  0.75000  0.25000  0.50000  1.0000
  K   K4        1.0  0.25000  0.75000  0.50000  1.0000
  O   O1        1.0  0.00000  0.00000  0.00000  1.0000
  Re  Re1       1.0  0.10300  0.10300  0.20700  1.0000
  Re  Re2       1.0  0.89700  0.89700  0.79300  1.0000
