data_image0
_chemical_formula_structural       CaK2N4O8
_chemical_formula_sum              "Ca1 K2 N4 O8"
_cell_length_a       5.1845
_cell_length_b       5.1845
_cell_length_c       8.81878
_cell_angle_alpha    91.8165
_cell_angle_beta     91.8165
_cell_angle_gamma    71.9417

_space_group_name_H-M_alt    "P 1"
_space_group_IT_number       1

loop_
  _space_group_symop_operation_xyz
  'x, y, z'

loop_
  _atom_site_type_symbol
  _atom_site_label
  _atom_site_symmetry_multiplicity
  _atom_site_fract_x
  _atom_site_fract_y
  _atom_site_fract_z
  _atom_site_occupancy
  Ca  Ca1       1.0  0.00000  0.00000  0.00000  1.0000
  K   K1        1.0  0.34400  0.34400  0.37200  1.0000
  K   K2        1.0  0.65600  0.65600  0.62800  1.0000
  N   N1        1.0  0.43900  0.43900  0.04490  1.0000
  N   N2        1.0  0.70500  0.70500  0.28100  1.0000
  N   N3        1.0  0.29500  0.29500  0.71900  1.0000
  N   N4        1.0  0.56100  0.56100  0.95500  1.0000
  O   O1        1.0  0.57000  0.19800  0.09190  1.0000
  O   O2        1.0  0.19800  0.57000  0.09190  1.0000
  O   O3        1.0  0.82100  0.46900  0.33400  1.0000
  O   O4        1.0  0.46900  0.82100  0.33400  1.0000
  O   O5        1.0  0.53100  0.17900  0.66600  1.0000
  O   O6        1.0  0.17900  0.53100  0.66600  1.0000
  O   O7        1.0  0.80200  0.43000  0.90800  1.0000
  O   O8        1.0  0.43000  0.80200  0.90800  1.0000
