data_image0
_chemical_formula_structural       Ba4S10Zr3
_chemical_formula_sum              "Ba4 S10 Zr3"
_cell_length_a       5.03831
_cell_length_b       5.03831
_cell_length_c       18.2595
_cell_angle_alpha    97.9301
_cell_angle_beta     97.9301
_cell_angle_gamma    89.9999

_space_group_name_H-M_alt    "P 1"
_space_group_IT_number       1

loop_
  _space_group_symop_operation_xyz
  'x, y, z'

loop_
  _atom_site_type_symbol
  _atom_site_label
  _atom_site_symmetry_multiplicity
  _atom_site_fract_x
  _atom_site_fract_y
  _atom_site_fract_z
  _atom_site_occupancy
  Ba  Ba1       1.0  0.56700  0.56700  0.13500  1.0000
  Ba  Ba2       1.0  0.70000  0.70000  0.39900  1.0000
  Ba  Ba3       1.0  0.30000  0.30000  0.60100  1.0000
  Ba  Ba4       1.0  0.43300  0.43300  0.86500  1.0000
  S   S1        1.0  0.50000  1.00000  0.00000  1.0000
  S   S2        1.0  1.00000  0.50000  0.00000  1.0000
  S   S3        1.0  0.07060  0.07060  0.14100  1.0000
  S   S4        1.0  0.63900  0.13900  0.27900  1.0000
  S   S5        1.0  0.13900  0.63900  0.27900  1.0000
  S   S6        1.0  0.21300  0.21300  0.42700  1.0000
  S   S7        1.0  0.78700  0.78700  0.57300  1.0000
  S   S8        1.0  0.86100  0.36100  0.72100  1.0000
  S   S9        1.0  0.36100  0.86100  0.72100  1.0000
  S   S10       1.0  0.92900  0.92900  0.85900  1.0000
  Zr  Zr1       1.0  0.00000  0.00000  0.00000  1.0000
  Zr  Zr2       1.0  0.14300  0.14300  0.28700  1.0000
  Zr  Zr3       1.0  0.85700  0.85700  0.71300  1.0000
