data_image0
_chemical_formula_structural       Bi8Te9
_chemical_formula_sum              "Bi8 Te9"
_cell_length_a       4.46473
_cell_length_b       4.46473
_cell_length_c       34.7714
_cell_angle_alpha    93.681
_cell_angle_beta     86.319
_cell_angle_gamma    120

_space_group_name_H-M_alt    "P 1"
_space_group_IT_number       1

loop_
  _space_group_symop_operation_xyz
  'x, y, z'

loop_
  _atom_site_type_symbol
  _atom_site_label
  _atom_site_symmetry_multiplicity
  _atom_site_fract_x
  _atom_site_fract_y
  _atom_site_fract_z
  _atom_site_occupancy
  Bi  Bi1       1.0  0.64700  0.35300  0.05860  1.0000
  Bi  Bi2       1.0  0.58800  0.41200  0.23600  1.0000
  Bi  Bi3       1.0  0.88200  0.11800  0.35300  1.0000
  Bi  Bi4       1.0  0.17500  0.82500  0.47600  1.0000
  Bi  Bi5       1.0  0.82500  0.17500  0.52400  1.0000
  Bi  Bi6       1.0  0.11800  0.88200  0.64700  1.0000
  Bi  Bi7       1.0  0.41200  0.58800  0.76400  1.0000
  Bi  Bi8       1.0  0.35300  0.64700  0.94100  1.0000
  Te  Te1       1.0  0.00000  0.00000  0.00000  1.0000
  Te  Te2       1.0  0.29700  0.70300  0.10800  1.0000
  Te  Te3       1.0  0.93800  0.06210  0.18600  1.0000
  Te  Te4       1.0  0.23500  0.76500  0.29500  1.0000
  Te  Te5       1.0  0.53200  0.46800  0.40300  1.0000
  Te  Te6       1.0  0.46800  0.53200  0.59700  1.0000
  Te  Te7       1.0  0.76500  0.23500  0.70500  1.0000
  Te  Te8       1.0  0.06210  0.93800  0.81400  1.0000
  Te  Te9       1.0  0.70300  0.29700  0.89200  1.0000
