data_image0
_chemical_formula_structural       Au4Bi2Tb10
_chemical_formula_sum              "Au4 Bi2 Tb10"
_cell_length_a       7.51329
_cell_length_b       7.51329
_cell_length_c       10.0613
_cell_angle_alpha    111.924
_cell_angle_beta     111.924
_cell_angle_gamma    90

_space_group_name_H-M_alt    "P 1"
_space_group_IT_number       1

loop_
  _space_group_symop_operation_xyz
  'x, y, z'

loop_
  _atom_site_type_symbol
  _atom_site_label
  _atom_site_symmetry_multiplicity
  _atom_site_fract_x
  _atom_site_fract_y
  _atom_site_fract_z
  _atom_site_occupancy
  Au  Au1       1.0  0.37400  0.12600  0.00000  1.0000
  Au  Au2       1.0  0.87400  0.37400  0.00000  1.0000
  Au  Au3       1.0  0.12600  0.62600  0.00000  1.0000
  Au  Au4       1.0  0.62600  0.87400  0.00000  1.0000
  Bi  Bi1       1.0  0.25000  0.25000  0.50000  1.0000
  Bi  Bi2       1.0  0.75000  0.75000  0.50000  1.0000
  Tb  Tb1       1.0  0.00000  0.00000  0.00000  1.0000
  Tb  Tb2       1.0  0.50000  0.50000  0.00000  1.0000
  Tb  Tb3       1.0  0.82800  0.00506  0.33300  1.0000
  Tb  Tb4       1.0  0.50500  0.32800  0.33300  1.0000
  Tb  Tb5       1.0  0.00506  0.50500  0.33300  1.0000
  Tb  Tb6       1.0  0.32800  0.82800  0.33300  1.0000
  Tb  Tb7       1.0  0.67200  0.17200  0.66700  1.0000
  Tb  Tb8       1.0  0.99500  0.49500  0.66700  1.0000
  Tb  Tb9       1.0  0.49500  0.67200  0.66700  1.0000
  Tb  Tb10      1.0  0.17200  0.99500  0.66700  1.0000
