data_image0
_chemical_formula_structural       Ge10Ho6
_chemical_formula_sum              "Ge10 Ho6"
_cell_length_a       5.74383
_cell_length_b       7.43785
_cell_length_c       9.09065
_cell_angle_alpha    97.0066
_cell_angle_beta     71.5837
_cell_angle_gamma    112.713

_space_group_name_H-M_alt    "P 1"
_space_group_IT_number       1

loop_
  _space_group_symop_operation_xyz
  'x, y, z'

loop_
  _atom_site_type_symbol
  _atom_site_label
  _atom_site_symmetry_multiplicity
  _atom_site_fract_x
  _atom_site_fract_y
  _atom_site_fract_z
  _atom_site_occupancy
  Ge  Ge1       1.0  0.54600  0.09270  0.00000  1.0000
  Ge  Ge2       1.0  0.08810  0.68900  0.13100  1.0000
  Ge  Ge3       1.0  0.82100  0.32300  0.17300  1.0000
  Ge  Ge4       1.0  0.74400  0.82300  0.32700  1.0000
  Ge  Ge5       1.0  0.96900  0.18900  0.36900  1.0000
  Ge  Ge6       1.0  0.29600  0.59300  0.50000  1.0000
  Ge  Ge7       1.0  0.22000  0.18900  0.63100  1.0000
  Ge  Ge8       1.0  0.07850  0.82300  0.67300  1.0000
  Ge  Ge9       1.0  0.50200  0.32300  0.82700  1.0000
  Ge  Ge10      1.0  0.60100  0.68900  0.86900  1.0000
  Ho  Ho1       1.0  0.99900  0.99800  0.00000  1.0000
  Ho  Ho2       1.0  0.42300  0.48300  0.16300  1.0000
  Ho  Ho3       1.0  0.33500  0.98300  0.33700  1.0000
  Ho  Ho4       1.0  0.74900  0.49800  0.50000  1.0000
  Ho  Ho5       1.0  0.64700  0.98300  0.66300  1.0000
  Ho  Ho6       1.0  0.06010  0.48300  0.83700  1.0000
