data_image0
_chemical_formula_structural       Ge6Mg7Pr4
_chemical_formula_sum              "Ge6 Mg7 Pr4"
_cell_length_a       4.44956
_cell_length_b       8.67297
_cell_length_c       10.9957
_cell_angle_alpha    95.1943
_cell_angle_beta     101.673
_cell_angle_gamma    104.864

_space_group_name_H-M_alt    "P 1"
_space_group_IT_number       1

loop_
  _space_group_symop_operation_xyz
  'x, y, z'

loop_
  _atom_site_type_symbol
  _atom_site_label
  _atom_site_symmetry_multiplicity
  _atom_site_fract_x
  _atom_site_fract_y
  _atom_site_fract_z
  _atom_site_occupancy
  Ge  Ge1       1.0  0.87500  0.72600  0.02470  1.0000
  Ge  Ge2       1.0  0.70300  0.09450  0.31100  1.0000
  Ge  Ge3       1.0  0.46900  0.58900  0.34900  1.0000
  Ge  Ge4       1.0  0.53100  0.41100  0.65100  1.0000
  Ge  Ge5       1.0  0.29700  0.90600  0.68900  1.0000
  Ge  Ge6       1.0  0.12500  0.27400  0.97500  1.0000
  Mg  Mg1       1.0  0.09890  0.05930  0.13800  1.0000
  Mg  Mg2       1.0  0.46400  0.77500  0.15400  1.0000
  Mg  Mg3       1.0  0.33400  0.27200  0.39600  1.0000
  Mg  Mg4       1.0  1.00000  0.50000  0.50000  1.0000
  Mg  Mg5       1.0  0.66600  0.72800  0.60400  1.0000
  Mg  Mg6       1.0  0.53600  0.22500  0.84600  1.0000
  Mg  Mg7       1.0  0.90100  0.94100  0.86200  1.0000
  Pr  Pr1       1.0  0.79000  0.42000  0.16100  1.0000
  Pr  Pr2       1.0  0.12000  0.85400  0.38700  1.0000
  Pr  Pr3       1.0  0.88000  0.14600  0.61300  1.0000
  Pr  Pr4       1.0  0.21000  0.58000  0.83900  1.0000
