data_image0
_chemical_formula_structural       Ge6Mg7Nd4
_chemical_formula_sum              "Ge6 Mg7 Nd4"
_cell_length_a       4.43286
_cell_length_b       8.63041
_cell_length_c       10.9524
_cell_angle_alpha    95.2041
_cell_angle_beta     101.675
_cell_angle_gamma    104.881

_space_group_name_H-M_alt    "P 1"
_space_group_IT_number       1

loop_
  _space_group_symop_operation_xyz
  'x, y, z'

loop_
  _atom_site_type_symbol
  _atom_site_label
  _atom_site_symmetry_multiplicity
  _atom_site_fract_x
  _atom_site_fract_y
  _atom_site_fract_z
  _atom_site_occupancy
  Ge  Ge1       1.0  0.87400  0.72400  0.02350  1.0000
  Ge  Ge2       1.0  0.70300  0.09390  0.31200  1.0000
  Ge  Ge3       1.0  0.46800  0.58900  0.34800  1.0000
  Ge  Ge4       1.0  0.53200  0.41100  0.65200  1.0000
  Ge  Ge5       1.0  0.29700  0.90600  0.68800  1.0000
  Ge  Ge6       1.0  0.12600  0.27600  0.97700  1.0000
  Mg  Mg1       1.0  0.09890  0.05900  0.13900  1.0000
  Mg  Mg2       1.0  0.46400  0.77400  0.15300  1.0000
  Mg  Mg3       1.0  0.33400  0.27200  0.39700  1.0000
  Mg  Mg4       1.0  0.00000  0.50000  0.50000  1.0000
  Mg  Mg5       1.0  0.66600  0.72800  0.60300  1.0000
  Mg  Mg6       1.0  0.53600  0.22600  0.84700  1.0000
  Mg  Mg7       1.0  0.90100  0.94100  0.86100  1.0000
  Nd  Nd1       1.0  0.79100  0.42000  0.16100  1.0000
  Nd  Nd2       1.0  0.12000  0.85300  0.38700  1.0000
  Nd  Nd3       1.0  0.88000  0.14700  0.61300  1.0000
  Nd  Nd4       1.0  0.20900  0.58000  0.83900  1.0000
