data_image0
_chemical_formula_structural       Bi8Se9
_chemical_formula_sum              "Bi8 Se9"
_cell_length_a       4.21964
_cell_length_b       4.21964
_cell_length_c       33.0318
_cell_angle_alpha    86.3379
_cell_angle_beta     93.6621
_cell_angle_gamma    120

_space_group_name_H-M_alt    "P 1"
_space_group_IT_number       1

loop_
  _space_group_symop_operation_xyz
  'x, y, z'

loop_
  _atom_site_type_symbol
  _atom_site_label
  _atom_site_symmetry_multiplicity
  _atom_site_fract_x
  _atom_site_fract_y
  _atom_site_fract_z
  _atom_site_occupancy
  Bi  Bi1       1.0  0.35300  0.64700  0.05830  1.0000
  Bi  Bi2       1.0  0.41200  0.58800  0.23600  1.0000
  Bi  Bi3       1.0  0.11700  0.88300  0.35100  1.0000
  Bi  Bi4       1.0  0.82400  0.17600  0.47300  1.0000
  Bi  Bi5       1.0  0.17600  0.82400  0.52700  1.0000
  Bi  Bi6       1.0  0.88300  0.11700  0.64900  1.0000
  Bi  Bi7       1.0  0.58800  0.41200  0.76400  1.0000
  Bi  Bi8       1.0  0.64700  0.35300  0.94200  1.0000
  Se  Se1       1.0  0.00000  0.00000  0.00000  1.0000
  Se  Se2       1.0  0.70200  0.29800  0.10500  1.0000
  Se  Se3       1.0  0.06310  0.93700  0.18900  1.0000
  Se  Se4       1.0  0.76500  0.23500  0.29400  1.0000
  Se  Se5       1.0  0.46600  0.53400  0.39800  1.0000
  Se  Se6       1.0  0.53400  0.46600  0.60200  1.0000
  Se  Se7       1.0  0.23500  0.76500  0.70600  1.0000
  Se  Se8       1.0  0.93700  0.06310  0.81100  1.0000
  Se  Se9       1.0  0.29800  0.70200  0.89500  1.0000
