data_image0
_chemical_formula_structural       Ca2O10RbTa3
_chemical_formula_sum              "Ca2 O10 Rb1 Ta3"
_cell_length_a       3.89957
_cell_length_b       3.89957
_cell_length_c       14.9353
_cell_angle_alpha    90
_cell_angle_beta     90
_cell_angle_gamma    90

_space_group_name_H-M_alt    "P 1"
_space_group_IT_number       1

loop_
  _space_group_symop_operation_xyz
  'x, y, z'

loop_
  _atom_site_type_symbol
  _atom_site_label
  _atom_site_symmetry_multiplicity
  _atom_site_fract_x
  _atom_site_fract_y
  _atom_site_fract_z
  _atom_site_occupancy
  Ca  Ca1       1.0  0.50000  0.50000  0.15300  1.0000
  Ca  Ca2       1.0  0.50000  0.50000  0.84700  1.0000
  O   O1        1.0  0.50000  0.00000  0.00000  1.0000
  O   O2        1.0  0.00000  0.50000  0.00000  1.0000
  O   O3        1.0  0.00000  0.00000  0.13200  1.0000
  O   O4        1.0  0.50000  0.00000  0.25700  1.0000
  O   O5        1.0  0.00000  0.50000  0.25700  1.0000
  O   O6        1.0  0.00000  0.00000  0.40600  1.0000
  O   O7        1.0  0.00000  0.00000  0.59400  1.0000
  O   O8        1.0  0.50000  0.00000  0.74300  1.0000
  O   O9        1.0  0.00000  0.50000  0.74300  1.0000
  O   O10       1.0  0.00000  0.00000  0.86800  1.0000
  Rb  Rb1       1.0  0.50000  0.50000  0.50000  1.0000
  Ta  Ta1       1.0  0.00000  0.00000  0.00000  1.0000
  Ta  Ta2       1.0  0.00000  0.00000  0.28600  1.0000
  Ta  Ta3       1.0  0.00000  0.00000  0.71400  1.0000
