data_image0
_chemical_formula_structural       Ce4Ge6Mg7
_chemical_formula_sum              "Ce4 Ge6 Mg7"
_cell_length_a       4.4685
_cell_length_b       8.72387
_cell_length_c       11.0446
_cell_angle_alpha    78.8299
_cell_angle_beta     101.671
_cell_angle_gamma    104.839

_space_group_name_H-M_alt    "P 1"
_space_group_IT_number       1

loop_
  _space_group_symop_operation_xyz
  'x, y, z'

loop_
  _atom_site_type_symbol
  _atom_site_label
  _atom_site_symmetry_multiplicity
  _atom_site_fract_x
  _atom_site_fract_y
  _atom_site_fract_z
  _atom_site_occupancy
  Ce  Ce1       1.0  0.37100  0.58100  0.16100  1.0000
  Ce  Ce2       1.0  0.26700  0.14600  0.38700  1.0000
  Ce  Ce3       1.0  0.73300  0.85400  0.61300  1.0000
  Ce  Ce4       1.0  0.62900  0.41900  0.83900  1.0000
  Ge  Ge1       1.0  0.14900  0.27200  0.02650  1.0000
  Ge  Ge2       1.0  0.60700  0.90500  0.31000  1.0000
  Ge  Ge3       1.0  0.88000  0.41100  0.35000  1.0000
  Ge  Ge4       1.0  0.12000  0.58900  0.65000  1.0000
  Ge  Ge5       1.0  0.39300  0.09540  0.69000  1.0000
  Ge  Ge6       1.0  0.85100  0.72800  0.97400  1.0000
  Mg  Mg1       1.0  0.03910  0.94000  0.13800  1.0000
  Mg  Mg2       1.0  0.68900  0.22400  0.15400  1.0000
  Mg  Mg3       1.0  0.06130  0.72700  0.39500  1.0000
  Mg  Mg4       1.0  0.50000  0.50000  0.50000  1.0000
  Mg  Mg5       1.0  0.93900  0.27300  0.60500  1.0000
  Mg  Mg6       1.0  0.31100  0.77600  0.84600  1.0000
  Mg  Mg7       1.0  0.96100  0.05990  0.86200  1.0000
