data_image0
_chemical_formula_structural       Cu4La4S8
_chemical_formula_sum              "Cu4 La4 S8"
_cell_length_a       8.80645
_cell_length_b       7.27322
_cell_length_c       6.89674
_cell_angle_alpha    90
_cell_angle_beta     132.1
_cell_angle_gamma    90

_space_group_name_H-M_alt    "P 1"
_space_group_IT_number       1

loop_
  _space_group_symop_operation_xyz
  'x, y, z'

loop_
  _atom_site_type_symbol
  _atom_site_label
  _atom_site_symmetry_multiplicity
  _atom_site_fract_x
  _atom_site_fract_y
  _atom_site_fract_z
  _atom_site_occupancy
  Cu  Cu1       1.0  0.08950  0.84800  0.02070  1.0000
  Cu  Cu2       1.0  0.91000  0.34800  0.47900  1.0000
  Cu  Cu3       1.0  0.08950  0.65200  0.52100  1.0000
  Cu  Cu4       1.0  0.91000  0.15200  0.97900  1.0000
  La  La1       1.0  0.30700  0.44600  0.10900  1.0000
  La  La2       1.0  0.69300  0.94600  0.39100  1.0000
  La  La3       1.0  0.30700  0.05410  0.60900  1.0000
  La  La4       1.0  0.69300  0.55400  0.89100  1.0000
  S   S1        1.0  0.58800  0.27200  0.08700  1.0000
  S   S2        1.0  0.91500  0.88200  0.19400  1.0000
  S   S3        1.0  0.08490  0.38200  0.30600  1.0000
  S   S4        1.0  0.41200  0.77200  0.41300  1.0000
  S   S5        1.0  0.58800  0.22800  0.58700  1.0000
  S   S6        1.0  0.91500  0.61800  0.69400  1.0000
  S   S7        1.0  0.08490  0.11800  0.80600  1.0000
  S   S8        1.0  0.41200  0.72800  0.91300  1.0000
