data_image0
_chemical_formula_structural       K4Sn2Te10
_chemical_formula_sum              "K4 Sn2 Te10"
_cell_length_a       8.65561
_cell_length_b       8.65561
_cell_length_c       9.89198
_cell_angle_alpha    115.945
_cell_angle_beta     115.945
_cell_angle_gamma    90

_space_group_name_H-M_alt    "P 1"
_space_group_IT_number       1

loop_
  _space_group_symop_operation_xyz
  'x, y, z'

loop_
  _atom_site_type_symbol
  _atom_site_label
  _atom_site_symmetry_multiplicity
  _atom_site_fract_x
  _atom_site_fract_y
  _atom_site_fract_z
  _atom_site_occupancy
  K   K1        1.0  0.24600  0.24600  0.49200  1.0000
  K   K2        1.0  0.74600  0.74600  0.49200  1.0000
  K   K3        1.0  0.49600  0.49600  0.99300  1.0000
  K   K4        1.0  0.99600  0.99600  0.99300  1.0000
  Sn  Sn1       1.0  0.74500  0.24500  0.49100  1.0000
  Sn  Sn2       1.0  0.24500  0.74500  0.49100  1.0000
  Te  Te1       1.0  0.31300  0.45200  0.26500  1.0000
  Te  Te2       1.0  0.81300  0.31300  0.26500  1.0000
  Te  Te3       1.0  0.45200  0.95200  0.26500  1.0000
  Te  Te4       1.0  0.95200  0.81300  0.26500  1.0000
  Te  Te5       1.0  0.03860  0.18000  0.71900  1.0000
  Te  Te6       1.0  0.53900  0.03860  0.71900  1.0000
  Te  Te7       1.0  0.18000  0.68000  0.71900  1.0000
  Te  Te8       1.0  0.68000  0.53900  0.71900  1.0000
  Te  Te9       1.0  0.99600  0.49600  0.99100  1.0000
  Te  Te10      1.0  0.49600  0.99600  0.99100  1.0000
