data_image0
_chemical_formula_structural       Au2Rb6Sn8
_chemical_formula_sum              "Au2 Rb6 Sn8"
_cell_length_a       7.21047
_cell_length_b       13.1584
_cell_length_c       6.6815
_cell_angle_alpha    90
_cell_angle_beta     90
_cell_angle_gamma    90

_space_group_name_H-M_alt    "P 1"
_space_group_IT_number       1

loop_
  _space_group_symop_operation_xyz
  'x, y, z'

loop_
  _atom_site_type_symbol
  _atom_site_label
  _atom_site_symmetry_multiplicity
  _atom_site_fract_x
  _atom_site_fract_y
  _atom_site_fract_z
  _atom_site_occupancy
  Au  Au1       1.0  0.25000  0.75000  0.29000  1.0000
  Au  Au2       1.0  0.75000  0.25000  0.71000  1.0000
  Rb  Rb1       1.0  0.25000  0.00748  0.15600  1.0000
  Rb  Rb2       1.0  0.25000  0.49300  0.15600  1.0000
  Rb  Rb3       1.0  0.75000  0.75000  0.42200  1.0000
  Rb  Rb4       1.0  0.25000  0.25000  0.57800  1.0000
  Rb  Rb5       1.0  0.75000  0.50700  0.84400  1.0000
  Rb  Rb6       1.0  0.75000  0.99300  0.84400  1.0000
  Sn  Sn1       1.0  0.53100  0.25000  0.06360  1.0000
  Sn  Sn2       1.0  0.96900  0.25000  0.06360  1.0000
  Sn  Sn3       1.0  0.75000  0.13100  0.35600  1.0000
  Sn  Sn4       1.0  0.75000  0.36900  0.35600  1.0000
  Sn  Sn5       1.0  0.25000  0.63100  0.64400  1.0000
  Sn  Sn6       1.0  0.25000  0.86900  0.64400  1.0000
  Sn  Sn7       1.0  0.03090  0.75000  0.93600  1.0000
  Sn  Sn8       1.0  0.46900  0.75000  0.93600  1.0000
