data_image0
_chemical_formula_structural       Au4Er10Sb2
_chemical_formula_sum              "Au4 Er10 Sb2"
_cell_length_a       7.35788
_cell_length_b       7.35788
_cell_length_c       9.86012
_cell_angle_alpha    111.908
_cell_angle_beta     111.908
_cell_angle_gamma    90

_space_group_name_H-M_alt    "P 1"
_space_group_IT_number       1

loop_
  _space_group_symop_operation_xyz
  'x, y, z'

loop_
  _atom_site_type_symbol
  _atom_site_label
  _atom_site_symmetry_multiplicity
  _atom_site_fract_x
  _atom_site_fract_y
  _atom_site_fract_z
  _atom_site_occupancy
  Au  Au1       1.0  0.37200  0.12800  0.00000  1.0000
  Au  Au2       1.0  0.87200  0.37200  0.00000  1.0000
  Au  Au3       1.0  0.12800  0.62800  0.00000  1.0000
  Au  Au4       1.0  0.62800  0.87200  0.00000  1.0000
  Er  Er1       1.0  0.00000  0.00000  0.00000  1.0000
  Er  Er2       1.0  0.50000  0.50000  0.00000  1.0000
  Er  Er3       1.0  0.83000  0.00575  0.33600  1.0000
  Er  Er4       1.0  0.50600  0.33000  0.33600  1.0000
  Er  Er5       1.0  0.00575  0.50600  0.33600  1.0000
  Er  Er6       1.0  0.33000  0.83000  0.33600  1.0000
  Er  Er7       1.0  0.67000  0.17000  0.66400  1.0000
  Er  Er8       1.0  0.99400  0.49400  0.66400  1.0000
  Er  Er9       1.0  0.49400  0.67000  0.66400  1.0000
  Er  Er10      1.0  0.17000  0.99400  0.66400  1.0000
  Sb  Sb1       1.0  0.25000  0.25000  0.50000  1.0000
  Sb  Sb2       1.0  0.75000  0.75000  0.50000  1.0000
