data_image0
_chemical_formula_structural       Cl4Hg8O4
_chemical_formula_sum              "Cl4 Hg8 O4"
_cell_length_a       6.05093
_cell_length_b       6.79412
_cell_length_c       9.63588
_cell_angle_alpha    103.564
_cell_angle_beta     90
_cell_angle_gamma    116.443

_space_group_name_H-M_alt    "P 1"
_space_group_IT_number       1

loop_
  _space_group_symop_operation_xyz
  'x, y, z'

loop_
  _atom_site_type_symbol
  _atom_site_label
  _atom_site_symmetry_multiplicity
  _atom_site_fract_x
  _atom_site_fract_y
  _atom_site_fract_z
  _atom_site_occupancy
  Cl  Cl1       1.0  0.89700  0.38800  0.14500  1.0000
  Cl  Cl2       1.0  0.50900  0.61200  0.35500  1.0000
  Cl  Cl3       1.0  0.49100  0.38800  0.64500  1.0000
  Cl  Cl4       1.0  0.10300  0.61200  0.85500  1.0000
  Hg  Hg1       1.0  0.50000  0.50000  0.00000  1.0000
  Hg  Hg2       1.0  0.14400  0.89600  0.10300  1.0000
  Hg  Hg3       1.0  0.59400  1.00000  0.25000  1.0000
  Hg  Hg4       1.0  0.24800  0.10400  0.39700  1.0000
  Hg  Hg5       1.0  0.00000  0.50000  0.50000  1.0000
  Hg  Hg6       1.0  0.75200  0.89600  0.60300  1.0000
  Hg  Hg7       1.0  0.40600  1.00000  0.75000  1.0000
  Hg  Hg8       1.0  0.85600  0.10400  0.89700  1.0000
  O   O1        1.0  0.74700  0.84300  0.06000  1.0000
  O   O2        1.0  0.90400  0.15700  0.44000  1.0000
  O   O3        1.0  0.09630  0.84300  0.56000  1.0000
  O   O4        1.0  0.25300  0.15700  0.94000  1.0000
