data_image0
_chemical_formula_structural       F12Pa2Rb2
_chemical_formula_sum              "F12 Pa2 Rb2"
_cell_length_a       6.27213
_cell_length_b       6.43117
_cell_length_c       6.43117
_cell_angle_alpha    75.906
_cell_angle_beta     90
_cell_angle_gamma    90

_space_group_name_H-M_alt    "P 1"
_space_group_IT_number       1

loop_
  _space_group_symop_operation_xyz
  'x, y, z'

loop_
  _atom_site_type_symbol
  _atom_site_label
  _atom_site_symmetry_multiplicity
  _atom_site_fract_x
  _atom_site_fract_y
  _atom_site_fract_z
  _atom_site_occupancy
  F   F1        1.0  0.26400  0.65600  0.09600  1.0000
  F   F2        1.0  0.04620  0.13300  0.13300  1.0000
  F   F3        1.0  0.73600  0.59600  0.15600  1.0000
  F   F4        1.0  0.73600  0.90400  0.34400  1.0000
  F   F5        1.0  0.04620  0.36700  0.36700  1.0000
  F   F6        1.0  0.26400  0.84400  0.40400  1.0000
  F   F7        1.0  0.73600  0.15600  0.59600  1.0000
  F   F8        1.0  0.95400  0.63300  0.63300  1.0000
  F   F9        1.0  0.26400  0.09600  0.65600  1.0000
  F   F10       1.0  0.26400  0.40400  0.84400  1.0000
  F   F11       1.0  0.95400  0.86700  0.86700  1.0000
  F   F12       1.0  0.73600  0.34400  0.90400  1.0000
  Pa  Pa1       1.0  0.00000  0.50000  1.00000  1.0000
  Pa  Pa2       1.0  0.00000  1.00000  0.50000  1.0000
  Rb  Rb1       1.0  0.47700  0.25000  0.25000  1.0000
  Rb  Rb2       1.0  0.52300  0.75000  0.75000  1.0000
