data_image0
_chemical_formula_structural       Cu4La4Se8
_chemical_formula_sum              "Cu4 La4 Se8"
_cell_length_a       6.82335
_cell_length_b       7.60284
_cell_length_c       7.23957
_cell_angle_alpha    90
_cell_angle_beta     97.3048
_cell_angle_gamma    90

_space_group_name_H-M_alt    "P 1"
_space_group_IT_number       1

loop_
  _space_group_symop_operation_xyz
  'x, y, z'

loop_
  _atom_site_type_symbol
  _atom_site_label
  _atom_site_symmetry_multiplicity
  _atom_site_fract_x
  _atom_site_fract_y
  _atom_site_fract_z
  _atom_site_occupancy
  Cu  Cu1       1.0  0.06890  0.66100  0.04910  1.0000
  Cu  Cu2       1.0  0.93100  0.16100  0.45100  1.0000
  Cu  Cu3       1.0  0.06890  0.83900  0.54900  1.0000
  Cu  Cu4       1.0  0.93100  0.33900  0.95100  1.0000
  La  La1       1.0  0.30800  0.04960  0.20000  1.0000
  La  La2       1.0  0.69200  0.55000  0.30000  1.0000
  La  La3       1.0  0.30800  0.45000  0.70000  1.0000
  La  La4       1.0  0.69200  0.95000  0.80000  1.0000
  Se  Se1       1.0  0.41200  0.72500  0.00048  1.0000
  Se  Se2       1.0  0.90500  0.88800  0.22300  1.0000
  Se  Se3       1.0  0.09530  0.38800  0.27700  1.0000
  Se  Se4       1.0  0.58800  0.22500  0.50000  1.0000
  Se  Se5       1.0  0.41200  0.77500  0.50000  1.0000
  Se  Se6       1.0  0.90500  0.61200  0.72300  1.0000
  Se  Se7       1.0  0.09530  0.11200  0.77700  1.0000
  Se  Se8       1.0  0.58800  0.27500  0.00000  1.0000
