data_image0
_chemical_formula_structural       Au4Bi2Er10
_chemical_formula_sum              "Au4 Bi2 Er10"
_cell_length_a       7.44369
_cell_length_b       7.44369
_cell_length_c       9.93102
_cell_angle_alpha    112.01
_cell_angle_beta     112.01
_cell_angle_gamma    90

_space_group_name_H-M_alt    "P 1"
_space_group_IT_number       1

loop_
  _space_group_symop_operation_xyz
  'x, y, z'

loop_
  _atom_site_type_symbol
  _atom_site_label
  _atom_site_symmetry_multiplicity
  _atom_site_fract_x
  _atom_site_fract_y
  _atom_site_fract_z
  _atom_site_occupancy
  Au  Au1       1.0  0.87200  0.62800  1.00000  1.0000
  Au  Au2       1.0  0.37200  0.87200  1.00000  1.0000
  Au  Au3       1.0  0.62800  0.12800  1.00000  1.0000
  Au  Au4       1.0  0.12800  0.37200  1.00000  1.0000
  Bi  Bi1       1.0  0.75000  0.75000  0.50000  1.0000
  Bi  Bi2       1.0  0.25000  0.25000  0.50000  1.0000
  Er  Er1       1.0  0.50000  0.50000  1.00000  1.0000
  Er  Er2       1.0  0.00000  0.00000  0.00000  1.0000
  Er  Er3       1.0  0.82700  0.32700  0.33300  1.0000
  Er  Er4       1.0  0.32700  0.50600  0.33300  1.0000
  Er  Er5       1.0  0.00611  0.82700  0.33300  1.0000
  Er  Er6       1.0  0.50600  0.00611  0.33300  1.0000
  Er  Er7       1.0  0.49400  0.99400  0.66700  1.0000
  Er  Er8       1.0  0.67300  0.49400  0.66700  1.0000
  Er  Er9       1.0  0.99400  0.17300  0.66700  1.0000
  Er  Er10      1.0  0.17300  0.67300  0.66700  1.0000
