data_image0
_chemical_formula_structural       Al2O11Si4
_chemical_formula_sum              "Al2 O11 Si4"
_cell_length_a       5.17263
_cell_length_b       5.17522
_cell_length_c       9.27721
_cell_angle_alpha    94.3818
_cell_angle_beta     100.114
_cell_angle_gamma    61.5638

_space_group_name_H-M_alt    "P 1"
_space_group_IT_number       1

loop_
  _space_group_symop_operation_xyz
  'x, y, z'

loop_
  _atom_site_type_symbol
  _atom_site_label
  _atom_site_symmetry_multiplicity
  _atom_site_fract_x
  _atom_site_fract_y
  _atom_site_fract_z
  _atom_site_occupancy
  Al  Al1       1.0  0.31100  0.31200  0.99992  1.0000
  Al  Al2       1.0  0.68900  0.68800  0.00008  1.0000
  O   O1        1.0  0.50000  0.50000  0.00000  1.0000
  O   O2        1.0  0.60900  0.99300  0.12700  1.0000
  O   O3        1.0  0.04710  0.43100  0.12800  1.0000
  O   O4        1.0  0.96400  0.13800  0.32700  1.0000
  O   O5        1.0  0.87900  0.68900  0.37300  1.0000
  O   O6        1.0  0.42900  0.23800  0.37400  1.0000
  O   O7        1.0  0.57100  0.76200  0.62600  1.0000
  O   O8        1.0  0.12100  0.31100  0.62700  1.0000
  O   O9        1.0  0.03630  0.86200  0.67300  1.0000
  O   O10       1.0  0.95300  0.56900  0.87200  1.0000
  O   O11       1.0  0.39100  0.00710  0.87300  1.0000
  Si  Si1       1.0  0.72200  0.01730  0.30200  1.0000
  Si  Si2       1.0  0.07870  0.37000  0.30300  1.0000
  Si  Si3       1.0  0.92100  0.63000  0.69700  1.0000
  Si  Si4       1.0  0.27800  0.98300  0.69800  1.0000
