data_image0
_chemical_formula_structural       Cu4Gd4Se8
_chemical_formula_sum              "Cu4 Gd4 Se8"
_cell_length_a       6.64978
_cell_length_b       7.0934
_cell_length_c       7.36177
_cell_angle_alpha    90
_cell_angle_beta     90
_cell_angle_gamma    96.5611

_space_group_name_H-M_alt    "P 1"
_space_group_IT_number       1

loop_
  _space_group_symop_operation_xyz
  'x, y, z'

loop_
  _atom_site_type_symbol
  _atom_site_label
  _atom_site_symmetry_multiplicity
  _atom_site_fract_x
  _atom_site_fract_y
  _atom_site_fract_z
  _atom_site_occupancy
  Cu  Cu1       1.0  0.07610  0.04840  0.15800  1.0000
  Cu  Cu2       1.0  0.07610  0.54800  0.34200  1.0000
  Cu  Cu3       1.0  0.92400  0.45200  0.65800  1.0000
  Cu  Cu4       1.0  0.92400  0.95200  0.84200  1.0000
  Gd  Gd1       1.0  0.69600  0.30000  0.04370  1.0000
  Gd  Gd2       1.0  0.69600  0.80000  0.45600  1.0000
  Gd  Gd3       1.0  0.30400  0.20000  0.54400  1.0000
  Gd  Gd4       1.0  0.30400  0.70000  0.95600  1.0000
  Se  Se1       1.0  0.90200  0.71800  0.11200  1.0000
  Se  Se2       1.0  0.42700  0.00206  0.22400  1.0000
  Se  Se3       1.0  0.42700  0.50200  0.27600  1.0000
  Se  Se4       1.0  0.90200  0.21800  0.38800  1.0000
  Se  Se5       1.0  0.09830  0.78200  0.61200  1.0000
  Se  Se6       1.0  0.57300  0.49800  0.72400  1.0000
  Se  Se7       1.0  0.57300  0.99800  0.77600  1.0000
  Se  Se8       1.0  0.09830  0.28200  0.88800  1.0000
