data_image0
_chemical_formula_structural       Cu4La4S4Te4
_chemical_formula_sum              "Cu4 La4 S4 Te4"
_cell_length_a       6.50013
_cell_length_b       7.77269
_cell_length_c       7.49561
_cell_angle_alpha    90
_cell_angle_beta     94.6922
_cell_angle_gamma    90

_space_group_name_H-M_alt    "P 1"
_space_group_IT_number       1

loop_
  _space_group_symop_operation_xyz
  'x, y, z'

loop_
  _atom_site_type_symbol
  _atom_site_label
  _atom_site_symmetry_multiplicity
  _atom_site_fract_x
  _atom_site_fract_y
  _atom_site_fract_z
  _atom_site_occupancy
  Cu  Cu1       1.0  0.06790  0.66200  0.04160  1.0000
  Cu  Cu2       1.0  0.93200  0.16200  0.45800  1.0000
  Cu  Cu3       1.0  0.06790  0.83800  0.54200  1.0000
  Cu  Cu4       1.0  0.93200  0.33800  0.95800  1.0000
  La  La1       1.0  0.35500  0.02970  0.22300  1.0000
  La  La2       1.0  0.64500  0.53000  0.27700  1.0000
  La  La3       1.0  0.35500  0.47000  0.72300  1.0000
  La  La4       1.0  0.64500  0.97000  0.77700  1.0000
  S   S1        1.0  0.59300  0.27200  0.00051  1.0000
  S   S2        1.0  0.40700  0.77200  0.49900  1.0000
  S   S3        1.0  0.59300  0.22800  0.50100  1.0000
  S   S4        1.0  0.40700  0.72800  0.99900  1.0000
  Te  Te1       1.0  0.87500  0.89700  0.22200  1.0000
  Te  Te2       1.0  0.12500  0.39700  0.27800  1.0000
  Te  Te3       1.0  0.87500  0.60300  0.72200  1.0000
  Te  Te4       1.0  0.12500  0.10300  0.77800  1.0000
