data_image0
_chemical_formula_structural       Au3C6KN6Ni
_chemical_formula_sum              "Au3 C6 K1 N6 Ni1"
_cell_length_a       6.70188
_cell_length_b       6.70191
_cell_length_c       7.76399
_cell_angle_alpha    90
_cell_angle_beta     90.0001
_cell_angle_gamma    120

_space_group_name_H-M_alt    "P 1"
_space_group_IT_number       1

loop_
  _space_group_symop_operation_xyz
  'x, y, z'

loop_
  _atom_site_type_symbol
  _atom_site_label
  _atom_site_symmetry_multiplicity
  _atom_site_fract_x
  _atom_site_fract_y
  _atom_site_fract_z
  _atom_site_occupancy
  Au  Au1       1.0  0.00908  0.50500  1.00000  1.0000
  Au  Au2       1.0  0.49500  0.99100  1.00000  1.0000
  Au  Au3       1.0  0.49500  0.50500  0.00000  1.0000
  C   C1        1.0  0.00714  0.66300  0.21600  1.0000
  C   C2        1.0  0.33700  0.34400  0.21600  1.0000
  C   C3        1.0  0.65600  0.99300  0.21600  1.0000
  C   C4        1.0  0.33700  0.99300  0.78400  1.0000
  C   C5        1.0  0.00714  0.34400  0.78400  1.0000
  C   C6        1.0  0.65600  0.66300  0.78400  1.0000
  K   K1        1.0  0.66700  0.33300  0.50000  1.0000
  N   N1        1.0  0.00205  0.76000  0.34000  1.0000
  N   N2        1.0  0.24000  0.24200  0.34000  1.0000
  N   N3        1.0  0.75800  0.99800  0.34000  1.0000
  N   N4        1.0  0.24000  0.99800  0.66000  1.0000
  N   N5        1.0  0.00205  0.24200  0.66000  1.0000
  N   N6        1.0  0.75800  0.76000  0.66000  1.0000
  Ni  Ni1       1.0  0.00000  0.00000  0.50000  1.0000
