data_image0
_chemical_formula_structural       Au4Ho10Sb2
_chemical_formula_sum              "Au4 Ho10 Sb2"
_cell_length_a       7.37947
_cell_length_b       7.37947
_cell_length_c       9.91081
_cell_angle_alpha    111.857
_cell_angle_beta     111.857
_cell_angle_gamma    90

_space_group_name_H-M_alt    "P 1"
_space_group_IT_number       1

loop_
  _space_group_symop_operation_xyz
  'x, y, z'

loop_
  _atom_site_type_symbol
  _atom_site_label
  _atom_site_symmetry_multiplicity
  _atom_site_fract_x
  _atom_site_fract_y
  _atom_site_fract_z
  _atom_site_occupancy
  Au  Au1       1.0  0.62800  0.12800  0.00000  1.0000
  Au  Au2       1.0  0.12800  0.37200  0.00000  1.0000
  Au  Au3       1.0  0.87200  0.62800  0.00000  1.0000
  Au  Au4       1.0  0.37200  0.87200  0.00000  1.0000
  Ho  Ho1       1.0  0.00000  0.00000  0.00000  1.0000
  Ho  Ho2       1.0  0.50000  0.50000  0.00000  1.0000
  Ho  Ho3       1.0  0.50500  0.00478  0.33500  1.0000
  Ho  Ho4       1.0  0.83000  0.33000  0.33500  1.0000
  Ho  Ho5       1.0  0.33000  0.50500  0.33500  1.0000
  Ho  Ho6       1.0  0.00478  0.83000  0.33500  1.0000
  Ho  Ho7       1.0  0.99500  0.17000  0.66500  1.0000
  Ho  Ho8       1.0  0.67000  0.49500  0.66500  1.0000
  Ho  Ho9       1.0  0.17000  0.67000  0.66500  1.0000
  Ho  Ho10      1.0  0.49500  0.99500  0.66500  1.0000
  Sb  Sb1       1.0  0.25000  0.25000  0.50000  1.0000
  Sb  Sb2       1.0  0.75000  0.75000  0.50000  1.0000
