data_image0
_chemical_formula_structural       C8Cr4U4
_chemical_formula_sum              "C8 Cr4 U4"
_cell_length_a       5.47096
_cell_length_b       3.12596
_cell_length_c       10.6918
_cell_angle_alpha    90
_cell_angle_beta     90
_cell_angle_gamma    90

_space_group_name_H-M_alt    "P 1"
_space_group_IT_number       1

loop_
  _space_group_symop_operation_xyz
  'x, y, z'

loop_
  _atom_site_type_symbol
  _atom_site_label
  _atom_site_symmetry_multiplicity
  _atom_site_fract_x
  _atom_site_fract_y
  _atom_site_fract_z
  _atom_site_occupancy
  C   C1        1.0  0.72700  0.25000  0.01070  1.0000
  C   C2        1.0  0.83100  0.75000  0.24600  1.0000
  C   C3        1.0  0.33100  0.75000  0.25400  1.0000
  C   C4        1.0  0.22700  0.25000  0.48900  1.0000
  C   C5        1.0  0.77300  0.75000  0.51100  1.0000
  C   C6        1.0  0.66900  0.25000  0.74600  1.0000
  C   C7        1.0  0.16900  0.25000  0.75400  1.0000
  C   C8        1.0  0.27300  0.75000  0.98900  1.0000
  Cr  Cr1       1.0  0.57500  0.75000  0.09890  1.0000
  Cr  Cr2       1.0  0.07500  0.75000  0.40100  1.0000
  Cr  Cr3       1.0  0.92500  0.25000  0.59900  1.0000
  Cr  Cr4       1.0  0.42500  0.25000  0.90100  1.0000
  U   U1        1.0  0.07810  0.25000  0.14100  1.0000
  U   U2        1.0  0.57800  0.25000  0.35900  1.0000
  U   U3        1.0  0.42200  0.75000  0.64100  1.0000
  U   U4        1.0  0.92200  0.75000  0.85900  1.0000
