data_image0
_chemical_formula_structural       H6N2Na2O6P2
_chemical_formula_sum              "H6 N2 Na2 O6 P2"
_cell_length_a       5.71672
_cell_length_b       5.71619
_cell_length_c       5.90824
_cell_angle_alpha    90
_cell_angle_beta     90
_cell_angle_gamma    119.997

_space_group_name_H-M_alt    "P 1"
_space_group_IT_number       1

loop_
  _space_group_symop_operation_xyz
  'x, y, z'

loop_
  _atom_site_type_symbol
  _atom_site_label
  _atom_site_symmetry_multiplicity
  _atom_site_fract_x
  _atom_site_fract_y
  _atom_site_fract_z
  _atom_site_occupancy
  H   H1        1.0  0.64800  0.15200  0.16800  1.0000
  H   H2        1.0  0.50300  0.35200  0.16800  1.0000
  H   H3        1.0  0.84800  0.49700  0.16800  1.0000
  H   H4        1.0  0.35200  0.84800  0.66800  1.0000
  H   H5        1.0  0.49700  0.64800  0.66800  1.0000
  H   H6        1.0  0.15200  0.50300  0.66800  1.0000
  N   N1        1.0  0.66700  0.33300  0.10600  1.0000
  N   N2        1.0  0.33300  0.66700  0.60600  1.0000
  Na  Na1       1.0  0.00000  0.00000  0.49500  1.0000
  Na  Na2       1.0  1.00000  1.00000  0.99500  1.0000
  O   O1        1.0  0.62800  0.85700  0.24500  1.0000
  O   O2        1.0  0.14400  0.77200  0.24500  1.0000
  O   O3        1.0  0.22800  0.37200  0.24500  1.0000
  O   O4        1.0  0.37200  0.14300  0.74500  1.0000
  O   O5        1.0  0.85600  0.22800  0.74500  1.0000
  O   O6        1.0  0.77200  0.62800  0.74500  1.0000
  P   P1        1.0  0.33300  0.66700  0.30600  1.0000
  P   P2        1.0  0.66700  0.33300  0.80600  1.0000
