data_image0
_chemical_formula_structural       Au4Dy10Sb2
_chemical_formula_sum              "Au4 Dy10 Sb2"
_cell_length_a       7.40743
_cell_length_b       7.40743
_cell_length_c       9.95749
_cell_angle_alpha    111.836
_cell_angle_beta     111.836
_cell_angle_gamma    90

_space_group_name_H-M_alt    "P 1"
_space_group_IT_number       1

loop_
  _space_group_symop_operation_xyz
  'x, y, z'

loop_
  _atom_site_type_symbol
  _atom_site_label
  _atom_site_symmetry_multiplicity
  _atom_site_fract_x
  _atom_site_fract_y
  _atom_site_fract_z
  _atom_site_occupancy
  Au  Au1       1.0  0.12700  0.37300  0.00000  1.0000
  Au  Au2       1.0  0.62700  0.12700  0.00000  1.0000
  Au  Au3       1.0  0.37300  0.87300  0.00000  1.0000
  Au  Au4       1.0  0.87300  0.62700  0.00000  1.0000
  Dy  Dy1       1.0  0.00000  0.00000  0.00000  1.0000
  Dy  Dy2       1.0  0.50000  0.50000  0.00000  1.0000
  Dy  Dy3       1.0  0.50400  0.00411  0.33500  1.0000
  Dy  Dy4       1.0  0.00411  0.83000  0.33500  1.0000
  Dy  Dy5       1.0  0.33000  0.50400  0.33500  1.0000
  Dy  Dy6       1.0  0.83000  0.33000  0.33500  1.0000
  Dy  Dy7       1.0  0.17000  0.67000  0.66500  1.0000
  Dy  Dy8       1.0  0.67000  0.49600  0.66500  1.0000
  Dy  Dy9       1.0  0.99600  0.17000  0.66500  1.0000
  Dy  Dy10      1.0  0.49600  0.99600  0.66500  1.0000
  Sb  Sb1       1.0  0.25000  0.25000  0.50000  1.0000
  Sb  Sb2       1.0  0.75000  0.75000  0.50000  1.0000
