data_image0
_chemical_formula_structural       Nb10P2Si6
_chemical_formula_sum              "Nb10 P2 Si6"
_cell_length_a       7.80342
_cell_length_b       7.80344
_cell_length_c       5.38999
_cell_angle_alpha    90
_cell_angle_beta     90
_cell_angle_gamma    120.001

_space_group_name_H-M_alt    "P 1"
_space_group_IT_number       1

loop_
  _space_group_symop_operation_xyz
  'x, y, z'

loop_
  _atom_site_type_symbol
  _atom_site_label
  _atom_site_symmetry_multiplicity
  _atom_site_fract_x
  _atom_site_fract_y
  _atom_site_fract_z
  _atom_site_occupancy
  Nb  Nb1       1.0  0.33300  0.66700  0.00000  1.0000
  Nb  Nb2       1.0  0.66700  0.33300  0.00000  1.0000
  Nb  Nb3       1.0  0.73500  0.73500  0.25000  1.0000
  Nb  Nb4       1.0  0.00000  0.26500  0.25000  1.0000
  Nb  Nb5       1.0  0.26500  0.00000  0.25000  1.0000
  Nb  Nb6       1.0  0.33300  0.66700  0.50000  1.0000
  Nb  Nb7       1.0  0.66700  0.33300  0.50000  1.0000
  Nb  Nb8       1.0  0.73500  1.00000  0.75000  1.0000
  Nb  Nb9       1.0  1.00000  0.73500  0.75000  1.0000
  Nb  Nb10      1.0  0.26500  0.26500  0.75000  1.0000
  P   P1        1.0  1.00000  1.00000  0.00000  1.0000
  P   P2        1.0  1.00000  1.00000  0.50000  1.0000
  Si  Si1       1.0  0.40000  0.40000  0.25000  1.0000
  Si  Si2       1.0  0.60000  1.00000  0.25000  1.0000
  Si  Si3       1.0  1.00000  0.60000  0.25000  1.0000
  Si  Si4       1.0  0.60000  0.60000  0.75000  1.0000
  Si  Si5       1.0  0.00000  0.40000  0.75000  1.0000
  Si  Si6       1.0  0.40000  0.00000  0.75000  1.0000
