data_image0
_chemical_formula_structural       Ce10Sn6
_chemical_formula_sum              "Ce10 Sn6"
_cell_length_a       8.47023
_cell_length_b       8.47023
_cell_length_c       9.39743
_cell_angle_alpha    116.787
_cell_angle_beta     116.787
_cell_angle_gamma    90

_space_group_name_H-M_alt    "P 1"
_space_group_IT_number       1

loop_
  _space_group_symop_operation_xyz
  'x, y, z'

loop_
  _atom_site_type_symbol
  _atom_site_label
  _atom_site_symmetry_multiplicity
  _atom_site_fract_x
  _atom_site_fract_y
  _atom_site_fract_z
  _atom_site_occupancy
  Ce  Ce1       1.0  0.00000  0.00000  0.00000  1.0000
  Ce  Ce2       1.0  0.50000  0.50000  0.00000  1.0000
  Ce  Ce3       1.0  0.32000  0.48000  0.30000  1.0000
  Ce  Ce4       1.0  0.82000  0.32000  0.30000  1.0000
  Ce  Ce5       1.0  0.48000  0.98000  0.30000  1.0000
  Ce  Ce6       1.0  0.98000  0.82000  0.30000  1.0000
  Ce  Ce7       1.0  0.02010  0.18000  0.70000  1.0000
  Ce  Ce8       1.0  0.52000  0.02010  0.70000  1.0000
  Ce  Ce9       1.0  0.18000  0.68000  0.70000  1.0000
  Ce  Ce10      1.0  0.68000  0.52000  0.70000  1.0000
  Sn  Sn1       1.0  0.37100  0.12900  0.00000  1.0000
  Sn  Sn2       1.0  0.12900  0.62900  0.00000  1.0000
  Sn  Sn3       1.0  0.87100  0.37100  0.00000  1.0000
  Sn  Sn4       1.0  0.62900  0.87100  0.00000  1.0000
  Sn  Sn5       1.0  0.25000  0.25000  0.50000  1.0000
  Sn  Sn6       1.0  0.75000  0.75000  0.50000  1.0000
