data_image0
_chemical_formula_structural       C4N4Na4S4
_chemical_formula_sum              "C4 N4 Na4 S4"
_cell_length_a       4.00511
_cell_length_b       5.58738
_cell_length_c       13.2668
_cell_angle_alpha    90
_cell_angle_beta     90
_cell_angle_gamma    90

_space_group_name_H-M_alt    "P 1"
_space_group_IT_number       1

loop_
  _space_group_symop_operation_xyz
  'x, y, z'

loop_
  _atom_site_type_symbol
  _atom_site_label
  _atom_site_symmetry_multiplicity
  _atom_site_fract_x
  _atom_site_fract_y
  _atom_site_fract_z
  _atom_site_occupancy
  C   C1        1.0  0.25000  0.88100  0.11500  1.0000
  C   C2        1.0  0.75000  0.38100  0.38500  1.0000
  C   C3        1.0  0.25000  0.61900  0.61500  1.0000
  C   C4        1.0  0.75000  0.11900  0.88500  1.0000
  N   N1        1.0  0.25000  0.70500  0.06420  1.0000
  N   N2        1.0  0.75000  0.20500  0.43600  1.0000
  N   N3        1.0  0.25000  0.79500  0.56400  1.0000
  N   N4        1.0  0.75000  0.29500  0.93600  1.0000
  Na  Na1       1.0  0.75000  0.44000  0.10600  1.0000
  Na  Na2       1.0  0.25000  0.94000  0.39400  1.0000
  Na  Na3       1.0  0.75000  0.06000  0.60600  1.0000
  Na  Na4       1.0  0.25000  0.56000  0.89400  1.0000
  S   S1        1.0  0.25000  0.11800  0.18600  1.0000
  S   S2        1.0  0.75000  0.61800  0.31400  1.0000
  S   S3        1.0  0.25000  0.38200  0.68600  1.0000
  S   S4        1.0  0.75000  0.88200  0.81400  1.0000
