data_image0
_chemical_formula_structural       B6Os8Y3
_chemical_formula_sum              "B6 Os8 Y3"
_cell_length_a       5.5182
_cell_length_b       5.52144
_cell_length_c       9.25572
_cell_angle_alpha    98.5667
_cell_angle_beta     107.343
_cell_angle_gamma    60.0194

_space_group_name_H-M_alt    "P 1"
_space_group_IT_number       1

loop_
  _space_group_symop_operation_xyz
  'x, y, z'

loop_
  _atom_site_type_symbol
  _atom_site_label
  _atom_site_symmetry_multiplicity
  _atom_site_fract_x
  _atom_site_fract_y
  _atom_site_fract_z
  _atom_site_occupancy
  B   B1        1.0  0.31800  0.36400  0.00000  1.0000
  B   B2        1.0  0.68200  0.63600  0.00000  1.0000
  B   B3        1.0  0.52600  0.29800  0.35000  1.0000
  B   B4        1.0  0.82400  0.70200  0.35000  1.0000
  B   B5        1.0  0.17600  0.29800  0.65000  1.0000
  B   B6        1.0  0.47400  0.70200  0.65000  1.0000
  Os  Os1       1.0  0.58000  0.00000  0.16000  1.0000
  Os  Os2       1.0  0.09010  0.50000  0.18000  1.0000
  Os  Os3       1.0  0.59000  0.50000  0.18000  1.0000
  Os  Os4       1.0  0.25000  0.50000  0.50000  1.0000
  Os  Os5       1.0  0.75000  0.50000  0.50000  1.0000
  Os  Os6       1.0  0.41000  0.50000  0.82000  1.0000
  Os  Os7       1.0  0.91000  0.50000  0.82000  1.0000
  Os  Os8       1.0  0.42000  0.00000  0.84000  1.0000
  Y   Y1        1.0  0.00000  0.00000  0.00000  1.0000
  Y   Y2        1.0  0.18000  0.00000  0.36000  1.0000
  Y   Y3        1.0  0.82000  0.00000  0.64000  1.0000
