data_image0
_chemical_formula_structural       Ag4C4O8
_chemical_formula_sum              "Ag4 C4 O8"
_cell_length_a       3.37202
_cell_length_b       6.25711
_cell_length_c       9.4793
_cell_angle_alpha    90
_cell_angle_beta     102.729
_cell_angle_gamma    90

_space_group_name_H-M_alt    "P 1"
_space_group_IT_number       1

loop_
  _space_group_symop_operation_xyz
  'x, y, z'

loop_
  _atom_site_type_symbol
  _atom_site_label
  _atom_site_symmetry_multiplicity
  _atom_site_fract_x
  _atom_site_fract_y
  _atom_site_fract_z
  _atom_site_occupancy
  Ag  Ag1       1.0  0.13500  0.49400  0.15200  1.0000
  Ag  Ag2       1.0  0.86500  0.99400  0.34800  1.0000
  Ag  Ag3       1.0  0.13500  0.00569  0.65200  1.0000
  Ag  Ag4       1.0  0.86500  0.50600  0.84800  1.0000
  C   C1        1.0  0.40400  0.88900  0.00282  1.0000
  C   C2        1.0  0.59600  0.38900  0.49700  1.0000
  C   C3        1.0  0.40400  0.61100  0.50300  1.0000
  C   C4        1.0  0.59600  0.11100  0.99700  1.0000
  O   O1        1.0  0.84200  0.17200  0.11100  1.0000
  O   O2        1.0  0.50200  0.78700  0.12100  1.0000
  O   O3        1.0  0.49800  0.28700  0.37900  1.0000
  O   O4        1.0  0.15800  0.67200  0.38900  1.0000
  O   O5        1.0  0.84200  0.32800  0.61100  1.0000
  O   O6        1.0  0.50200  0.71300  0.62100  1.0000
  O   O7        1.0  0.49800  0.21300  0.87900  1.0000
  O   O8        1.0  0.15800  0.82800  0.88900  1.0000
