data_image0
_chemical_formula_structural       Ag2Al2O4
_chemical_formula_sum              "Ag2 Al2 O4"
_cell_length_a       2.89066
_cell_length_b       2.89066
_cell_length_c       12.3039
_cell_angle_alpha    90
_cell_angle_beta     90
_cell_angle_gamma    120

_space_group_name_H-M_alt    "P 1"
_space_group_IT_number       1

loop_
  _space_group_symop_operation_xyz
  'x, y, z'

loop_
  _atom_site_type_symbol
  _atom_site_label
  _atom_site_symmetry_multiplicity
  _atom_site_fract_x
  _atom_site_fract_y
  _atom_site_fract_z
  _atom_site_occupancy
  Ag  Ag1       1.0  0.33300  0.66700  0.25000  1.0000
  Ag  Ag2       1.0  0.66700  0.33300  0.75000  1.0000
  Al  Al1       1.0  0.00000  0.00000  0.00000  1.0000
  Al  Al2       1.0  0.00000  0.00000  0.50000  1.0000
  O   O1        1.0  0.33300  0.66700  0.07780  1.0000
  O   O2        1.0  0.33300  0.66700  0.42200  1.0000
  O   O3        1.0  0.66700  0.33300  0.57800  1.0000
  O   O4        1.0  0.66700  0.33300  0.92200  1.0000
