data_image0
_chemical_formula_structural       Al2Ca2O10Ta2
_chemical_formula_sum              "Al2 Ca2 O10 Ta2"
_cell_length_a       5.57121
_cell_length_b       5.57121
_cell_length_c       7.33724
_cell_angle_alpha    103.996
_cell_angle_beta     103.996
_cell_angle_gamma    106.785

_space_group_name_H-M_alt    "P 1"
_space_group_IT_number       1

loop_
  _space_group_symop_operation_xyz
  'x, y, z'

loop_
  _atom_site_type_symbol
  _atom_site_label
  _atom_site_symmetry_multiplicity
  _atom_site_fract_x
  _atom_site_fract_y
  _atom_site_fract_z
  _atom_site_occupancy
  Al  Al1       1.0  0.68500  0.31500  0.25000  1.0000
  Al  Al2       1.0  0.31500  0.68500  0.75000  1.0000
  Ca  Ca1       1.0  0.33600  0.66400  0.25000  1.0000
  Ca  Ca2       1.0  0.66400  0.33600  0.75000  1.0000
  O   O1        1.0  0.37200  0.25100  0.08090  1.0000
  O   O2        1.0  0.90800  0.31200  0.11600  1.0000
  O   O3        1.0  0.07810  0.92200  0.25000  1.0000
  O   O4        1.0  0.68800  0.09220  0.38400  1.0000
  O   O5        1.0  0.74900  0.62800  0.41900  1.0000
  O   O6        1.0  0.25100  0.37200  0.58100  1.0000
  O   O7        1.0  0.31200  0.90800  0.61600  1.0000
  O   O8        1.0  0.92200  0.07810  0.75000  1.0000
  O   O9        1.0  0.09220  0.68800  0.88400  1.0000
  O   O10       1.0  0.62800  0.74900  0.91900  1.0000
  Ta  Ta1       1.0  0.00000  0.00000  0.00000  1.0000
  Ta  Ta2       1.0  0.00000  0.00000  0.50000  1.0000
