data_image0
_chemical_formula_structural       Bi6PbTe10
_chemical_formula_sum              "Bi6 Pb1 Te10"
_cell_length_a       4.45026
_cell_length_b       4.45026
_cell_length_c       34.7911
_cell_angle_alpha    93.667
_cell_angle_beta     86.333
_cell_angle_gamma    120

_space_group_name_H-M_alt    "P 1"
_space_group_IT_number       1

loop_
  _space_group_symop_operation_xyz
  'x, y, z'

loop_
  _atom_site_type_symbol
  _atom_site_label
  _atom_site_symmetry_multiplicity
  _atom_site_fract_x
  _atom_site_fract_y
  _atom_site_fract_z
  _atom_site_occupancy
  Bi  Bi1       1.0  0.29500  0.70500  0.11600  1.0000
  Bi  Bi2       1.0  0.23500  0.76500  0.29400  1.0000
  Bi  Bi3       1.0  0.53000  0.47000  0.41100  1.0000
  Bi  Bi4       1.0  0.47000  0.53000  0.58900  1.0000
  Bi  Bi5       1.0  0.76500  0.23500  0.70600  1.0000
  Bi  Bi6       1.0  0.70500  0.29500  0.88400  1.0000
  Pb  Pb1       1.0  0.00000  0.00000  0.00000  1.0000
  Te  Te1       1.0  0.64800  0.35200  0.05720  1.0000
  Te  Te2       1.0  0.94500  0.05500  0.16500  1.0000
  Te  Te3       1.0  0.58500  0.41500  0.24400  1.0000
  Te  Te4       1.0  0.88300  0.11700  0.35200  1.0000
  Te  Te5       1.0  0.18000  0.82000  0.46000  1.0000
  Te  Te6       1.0  0.82000  0.18000  0.54000  1.0000
  Te  Te7       1.0  0.11700  0.88300  0.64800  1.0000
  Te  Te8       1.0  0.41500  0.58500  0.75600  1.0000
  Te  Te9       1.0  0.05500  0.94500  0.83500  1.0000
  Te  Te10      1.0  0.35200  0.64800  0.94300  1.0000
