data_image0
_chemical_formula_structural       Ga12RhU4
_chemical_formula_sum              "Ga12 Rh1 U4"
_cell_length_a       7.4392
_cell_length_b       7.4392
_cell_length_c       7.4392
_cell_angle_alpha    109.471
_cell_angle_beta     109.471
_cell_angle_gamma    109.471

_space_group_name_H-M_alt    "P 1"
_space_group_IT_number       1

loop_
  _space_group_symop_operation_xyz
  'x, y, z'

loop_
  _atom_site_type_symbol
  _atom_site_label
  _atom_site_symmetry_multiplicity
  _atom_site_fract_x
  _atom_site_fract_y
  _atom_site_fract_z
  _atom_site_occupancy
  Ga  Ga1       1.0  0.29100  0.29100  0.00000  1.0000
  Ga  Ga2       1.0  0.70900  0.70900  0.00000  1.0000
  Ga  Ga3       1.0  0.75000  0.50000  0.25000  1.0000
  Ga  Ga4       1.0  0.50000  0.75000  0.25000  1.0000
  Ga  Ga5       1.0  0.29100  0.00000  0.29100  1.0000
  Ga  Ga6       1.0  0.00000  0.29100  0.29100  1.0000
  Ga  Ga7       1.0  0.75000  0.25000  0.50000  1.0000
  Ga  Ga8       1.0  0.25000  0.75000  0.50000  1.0000
  Ga  Ga9       1.0  0.70900  0.00000  0.70900  1.0000
  Ga  Ga10      1.0  0.00000  0.70900  0.70900  1.0000
  Ga  Ga11      1.0  0.50000  0.25000  0.75000  1.0000
  Ga  Ga12      1.0  0.25000  0.50000  0.75000  1.0000
  Rh  Rh1       1.0  0.00000  0.00000  0.00000  1.0000
  U   U1        1.0  0.50000  0.00000  0.00000  1.0000
  U   U2        1.0  0.00000  0.50000  0.00000  1.0000
  U   U3        1.0  0.00000  0.00000  0.50000  1.0000
  U   U4        1.0  0.50000  0.50000  0.50000  1.0000
