data_image0
_chemical_formula_structural       C3Ca2Na2O9
_chemical_formula_sum              "C3 Ca2 Na2 O9"
_cell_length_a       4.91227
_cell_length_b       6.5178
_cell_length_c       6.5178
_cell_angle_alpha    114.584
_cell_angle_beta     90
_cell_angle_gamma    90

_space_group_name_H-M_alt    "P 1"
_space_group_IT_number       1

loop_
  _space_group_symop_operation_xyz
  'x, y, z'

loop_
  _atom_site_type_symbol
  _atom_site_label
  _atom_site_symmetry_multiplicity
  _atom_site_fract_x
  _atom_site_fract_y
  _atom_site_fract_z
  _atom_site_occupancy
  C   C1        1.0  0.00000  0.53400  0.12600  1.0000
  C   C2        1.0  0.00000  0.12600  0.53400  1.0000
  C   C3        1.0  0.50000  0.77500  0.77500  1.0000
  Ca  Ca1       1.0  0.50000  0.78500  0.21700  1.0000
  Ca  Ca2       1.0  0.50000  0.21700  0.78500  1.0000
  Na  Na1       1.0  0.00000  0.07370  0.07370  1.0000
  Na  Na2       1.0  0.50000  0.38800  0.38800  1.0000
  O   O1        1.0  0.00000  0.73100  0.12300  1.0000
  O   O2        1.0  0.22900  0.43800  0.13000  1.0000
  O   O3        1.0  0.77100  0.43800  0.13000  1.0000
  O   O4        1.0  0.22900  0.13000  0.43800  1.0000
  O   O5        1.0  0.77100  0.13000  0.43800  1.0000
  O   O6        1.0  0.50000  0.79000  0.58400  1.0000
  O   O7        1.0  0.00000  0.12300  0.73100  1.0000
  O   O8        1.0  0.50000  0.58400  0.79000  1.0000
  O   O9        1.0  0.50000  0.96200  0.96200  1.0000
