data_image0
_chemical_formula_structural       C8Mn4U4
_chemical_formula_sum              "C8 Mn4 U4"
_cell_length_a       5.07377
_cell_length_b       3.26523
_cell_length_c       11.5674
_cell_angle_alpha    90
_cell_angle_beta     90
_cell_angle_gamma    90

_space_group_name_H-M_alt    "P 1"
_space_group_IT_number       1

loop_
  _space_group_symop_operation_xyz
  'x, y, z'

loop_
  _atom_site_type_symbol
  _atom_site_label
  _atom_site_symmetry_multiplicity
  _atom_site_fract_x
  _atom_site_fract_y
  _atom_site_fract_z
  _atom_site_occupancy
  C   C1        1.0  0.75200  0.25000  0.01170  1.0000
  C   C2        1.0  0.07980  0.75000  0.17000  1.0000
  C   C3        1.0  0.58000  0.75000  0.33000  1.0000
  C   C4        1.0  0.25200  0.25000  0.48800  1.0000
  C   C5        1.0  0.74800  0.75000  0.51200  1.0000
  C   C6        1.0  0.42000  0.25000  0.67000  1.0000
  C   C7        1.0  0.92000  0.25000  0.83000  1.0000
  C   C8        1.0  0.24800  0.75000  0.98800  1.0000
  Mn  Mn1       1.0  0.08820  0.25000  0.08460  1.0000
  Mn  Mn2       1.0  0.58800  0.25000  0.41500  1.0000
  Mn  Mn3       1.0  0.41200  0.75000  0.58500  1.0000
  Mn  Mn4       1.0  0.91200  0.75000  0.91500  1.0000
  U   U1        1.0  0.58600  0.75000  0.13700  1.0000
  U   U2        1.0  0.08650  0.75000  0.36300  1.0000
  U   U3        1.0  0.91400  0.25000  0.63700  1.0000
  U   U4        1.0  0.41400  0.25000  0.86300  1.0000
