data_image0
_chemical_formula_structural       Ge6Mg7Sm4
_chemical_formula_sum              "Ge6 Mg7 Sm4"
_cell_length_a       4.40423
_cell_length_b       8.56195
_cell_length_c       10.8862
_cell_angle_alpha    95.2354
_cell_angle_beta     101.671
_cell_angle_gamma    104.904

_space_group_name_H-M_alt    "P 1"
_space_group_IT_number       1

loop_
  _space_group_symop_operation_xyz
  'x, y, z'

loop_
  _atom_site_type_symbol
  _atom_site_label
  _atom_site_symmetry_multiplicity
  _atom_site_fract_x
  _atom_site_fract_y
  _atom_site_fract_z
  _atom_site_occupancy
  Ge  Ge1       1.0  0.87100  0.72100  0.02090  1.0000
  Ge  Ge2       1.0  0.70300  0.09210  0.31300  1.0000
  Ge  Ge3       1.0  0.46800  0.58900  0.34700  1.0000
  Ge  Ge4       1.0  0.53200  0.41100  0.65300  1.0000
  Ge  Ge5       1.0  0.29700  0.90800  0.68700  1.0000
  Ge  Ge6       1.0  0.12900  0.27900  0.97900  1.0000
  Mg  Mg1       1.0  0.09880  0.05830  0.13900  1.0000
  Mg  Mg2       1.0  0.46300  0.77300  0.15300  1.0000
  Mg  Mg3       1.0  0.33400  0.27100  0.39700  1.0000
  Mg  Mg4       1.0  1.00000  0.50000  0.50000  1.0000
  Mg  Mg5       1.0  0.66600  0.72900  0.60300  1.0000
  Mg  Mg6       1.0  0.53700  0.22700  0.84700  1.0000
  Mg  Mg7       1.0  0.90100  0.94200  0.86100  1.0000
  Sm  Sm1       1.0  0.79100  0.42100  0.16200  1.0000
  Sm  Sm2       1.0  0.12000  0.85300  0.38700  1.0000
  Sm  Sm3       1.0  0.88000  0.14700  0.61300  1.0000
  Sm  Sm4       1.0  0.20900  0.57900  0.83800  1.0000
