data_image0
_chemical_formula_structural       I6Sb2
_chemical_formula_sum              "I6 Sb2"
_cell_length_a       7.58787
_cell_length_b       7.58787
_cell_length_c       8.43103
_cell_angle_alpha    116.743
_cell_angle_beta     63.2565
_cell_angle_gamma    120

_space_group_name_H-M_alt    "P 1"
_space_group_IT_number       1

loop_
  _space_group_symop_operation_xyz
  'x, y, z'

loop_
  _atom_site_type_symbol
  _atom_site_label
  _atom_site_symmetry_multiplicity
  _atom_site_fract_x
  _atom_site_fract_y
  _atom_site_fract_z
  _atom_site_occupancy
  I   I1        1.0  0.58100  0.06860  0.25100  1.0000
  I   I2        1.0  0.23600  0.41900  0.25100  1.0000
  I   I3        1.0  0.93100  0.76400  0.25100  1.0000
  I   I4        1.0  0.06860  0.23600  0.74900  1.0000
  I   I5        1.0  0.76400  0.58100  0.74900  1.0000
  I   I6        1.0  0.41900  0.93100  0.74900  1.0000
  Sb  Sb1       1.0  0.16800  0.83200  0.49500  1.0000
  Sb  Sb2       1.0  0.83200  0.16800  0.50500  1.0000
