data_image0
_chemical_formula_structural       Ca2F12Sn4
_chemical_formula_sum              "Ca2 F12 Sn4"
_cell_length_a       4.26452
_cell_length_b       6.949
_cell_length_c       9.34604
_cell_angle_alpha    99.6373
_cell_angle_beta     101.66
_cell_angle_gamma    93.062

_space_group_name_H-M_alt    "P 1"
_space_group_IT_number       1

loop_
  _space_group_symop_operation_xyz
  'x, y, z'

loop_
  _atom_site_type_symbol
  _atom_site_label
  _atom_site_symmetry_multiplicity
  _atom_site_fract_x
  _atom_site_fract_y
  _atom_site_fract_z
  _atom_site_occupancy
  Ca  Ca1       1.0  0.38300  0.25500  0.04550  1.0000
  Ca  Ca2       1.0  0.61700  0.74500  0.95400  1.0000
  F   F1        1.0  0.34900  0.57900  0.10900  1.0000
  F   F2        1.0  0.37600  0.96400  0.11700  1.0000
  F   F3        1.0  0.92900  0.26100  0.14300  1.0000
  F   F4        1.0  0.89300  0.80300  0.20200  1.0000
  F   F5        1.0  0.52000  0.31900  0.31800  1.0000
  F   F6        1.0  0.09240  0.56100  0.39100  1.0000
  F   F7        1.0  0.90800  0.43900  0.60900  1.0000
  F   F8        1.0  0.48000  0.68100  0.68200  1.0000
  F   F9        1.0  0.10700  0.19700  0.79800  1.0000
  F   F10       1.0  0.07120  0.73900  0.85700  1.0000
  F   F11       1.0  0.62400  0.03560  0.88300  1.0000
  F   F12       1.0  0.65100  0.42000  0.89100  1.0000
  Sn  Sn1       1.0  0.39400  0.80100  0.29700  1.0000
  Sn  Sn2       1.0  0.02260  0.25300  0.37600  1.0000
  Sn  Sn3       1.0  0.97800  0.74700  0.62400  1.0000
  Sn  Sn4       1.0  0.60600  0.19900  0.70300  1.0000
