data_image0
_chemical_formula_structural       Br10C2Pr6
_chemical_formula_sum              "Br10 C2 Pr6"
_cell_length_a       7.72105
_cell_length_b       9.19617
_cell_length_c       9.31091
_cell_angle_alpha    107.792
_cell_angle_beta     97.4694
_cell_angle_gamma    105.585

_space_group_name_H-M_alt    "P 1"
_space_group_IT_number       1

loop_
  _space_group_symop_operation_xyz
  'x, y, z'

loop_
  _atom_site_type_symbol
  _atom_site_label
  _atom_site_symmetry_multiplicity
  _atom_site_fract_x
  _atom_site_fract_y
  _atom_site_fract_z
  _atom_site_occupancy
  Br  Br1       1.0  0.45700  0.81800  0.08520  1.0000
  Br  Br2       1.0  0.90800  0.62700  0.17600  1.0000
  Br  Br3       1.0  0.34900  0.46800  0.27900  1.0000
  Br  Br4       1.0  0.82000  0.26900  0.35800  1.0000
  Br  Br5       1.0  0.25200  0.08610  0.46500  1.0000
  Br  Br6       1.0  0.74800  0.91400  0.53500  1.0000
  Br  Br7       1.0  0.18000  0.73100  0.64200  1.0000
  Br  Br8       1.0  0.65100  0.53200  0.72100  1.0000
  Br  Br9       1.0  0.09150  0.37300  0.82400  1.0000
  Br  Br10      1.0  0.54300  0.18200  0.91500  1.0000
  C   C1        1.0  0.09100  0.03310  0.04550  1.0000
  C   C2        1.0  0.90900  0.96700  0.95500  1.0000
  Pr  Pr1       1.0  0.97200  0.28200  0.08290  1.0000
  Pr  Pr2       1.0  0.39000  0.15100  0.20100  1.0000
  Pr  Pr3       1.0  0.88700  0.95600  0.23200  1.0000
  Pr  Pr4       1.0  0.11300  0.04420  0.76800  1.0000
  Pr  Pr5       1.0  0.61000  0.84900  0.79900  1.0000
  Pr  Pr6       1.0  0.02820  0.71800  0.91700  1.0000
