data_image0
_chemical_formula_structural       Ba2La4Mn2S10
_chemical_formula_sum              "Ba2 La4 Mn2 S10"
_cell_length_a       8.00662
_cell_length_b       8.00662
_cell_length_c       8.89595
_cell_angle_alpha    116.745
_cell_angle_beta     116.745
_cell_angle_gamma    90

_space_group_name_H-M_alt    "P 1"
_space_group_IT_number       1

loop_
  _space_group_symop_operation_xyz
  'x, y, z'

loop_
  _atom_site_type_symbol
  _atom_site_label
  _atom_site_symmetry_multiplicity
  _atom_site_fract_x
  _atom_site_fract_y
  _atom_site_fract_z
  _atom_site_occupancy
  Ba  Ba1       1.0  0.25000  0.25000  0.50000  1.0000
  Ba  Ba2       1.0  0.75000  0.75000  0.50000  1.0000
  La  La1       1.0  0.66200  0.16200  0.00000  1.0000
  La  La2       1.0  0.16200  0.33800  0.00000  1.0000
  La  La3       1.0  0.83800  0.66200  0.00000  1.0000
  La  La4       1.0  0.33800  0.83800  0.00000  1.0000
  Mn  Mn1       1.0  0.75000  0.25000  0.50000  1.0000
  Mn  Mn2       1.0  0.25000  0.75000  0.50000  1.0000
  S   S1        1.0  0.00000  0.00000  0.00000  1.0000
  S   S2        1.0  0.50000  0.50000  0.00000  1.0000
  S   S3        1.0  0.48500  0.28600  0.27100  1.0000
  S   S4        1.0  0.98500  0.48500  0.27100  1.0000
  S   S5        1.0  0.28600  0.78600  0.27100  1.0000
  S   S6        1.0  0.78600  0.98500  0.27100  1.0000
  S   S7        1.0  0.21400  0.01540  0.72900  1.0000
  S   S8        1.0  0.71400  0.21400  0.72900  1.0000
  S   S9        1.0  0.01540  0.51500  0.72900  1.0000
  S   S10       1.0  0.51500  0.71400  0.72900  1.0000
