data_image0
_chemical_formula_structural       I12Li4U2
_chemical_formula_sum              "I12 Li4 U2"
_cell_length_a       7.42439
_cell_length_b       7.41787
_cell_length_c       14.3162
_cell_angle_alpha    89.7969
_cell_angle_beta     90.1015
_cell_angle_gamma    119.971

_space_group_name_H-M_alt    "P 1"
_space_group_IT_number       1

loop_
  _space_group_symop_operation_xyz
  'x, y, z'

loop_
  _atom_site_type_symbol
  _atom_site_label
  _atom_site_symmetry_multiplicity
  _atom_site_fract_x
  _atom_site_fract_y
  _atom_site_fract_z
  _atom_site_occupancy
  I   I1        1.0  0.00000  0.33300  0.13000  1.0000
  I   I2        1.0  0.33300  0.00137  0.13000  1.0000
  I   I3        1.0  0.66700  0.66800  0.13000  1.0000
  I   I4        1.0  0.66700  1.00000  0.37000  1.0000
  I   I5        1.0  0.33300  0.33100  0.37000  1.0000
  I   I6        1.0  1.00000  0.66700  0.37000  1.0000
  I   I7        1.0  0.00018  0.33300  0.63000  1.0000
  I   I8        1.0  0.66700  0.66900  0.63000  1.0000
  I   I9        1.0  0.33300  0.00026  0.63000  1.0000
  I   I10       1.0  0.33300  0.33200  0.87000  1.0000
  I   I11       1.0  0.66700  0.99900  0.87000  1.0000
  I   I12       1.0  0.00018  0.66700  0.87000  1.0000
  Li  Li1       1.0  0.66600  0.33300  0.25000  1.0000
  Li  Li2       1.0  0.00072  0.00036  0.25000  1.0000
  Li  Li3       1.0  0.33400  0.66700  0.75000  1.0000
  Li  Li4       1.0  0.99900  1.00000  0.75000  1.0000
  U   U1        1.0  0.33300  0.66700  0.25000  1.0000
  U   U2        1.0  0.66700  0.33300  0.75000  1.0000
