data_image0
_chemical_formula_structural       Bi8Fe12Li12O48
_chemical_formula_sum              "Bi8 Fe12 Li12 O48"
_cell_length_a       10.3349
_cell_length_b       10.3349
_cell_length_c       10.3349
_cell_angle_alpha    109.471
_cell_angle_beta     109.471
_cell_angle_gamma    109.471

_space_group_name_H-M_alt    "P 1"
_space_group_IT_number       1

loop_
  _space_group_symop_operation_xyz
  'x, y, z'

loop_
  _atom_site_type_symbol
  _atom_site_label
  _atom_site_symmetry_multiplicity
  _atom_site_fract_x
  _atom_site_fract_y
  _atom_site_fract_z
  _atom_site_occupancy
  Bi  Bi1       1.0  0.00000  0.00000  0.00000  1.0000
  Bi  Bi2       1.0  0.50000  0.00000  0.00000  1.0000
  Bi  Bi3       1.0  0.50000  0.50000  0.00000  1.0000
  Bi  Bi4       1.0  0.00000  0.50000  0.00000  1.0000
  Bi  Bi5       1.0  0.50000  0.00000  0.50000  1.0000
  Bi  Bi6       1.0  1.00000  0.50000  0.50000  1.0000
  Bi  Bi7       1.0  0.00000  0.00000  0.50000  1.0000
  Bi  Bi8       1.0  0.50000  0.50000  0.50000  1.0000
  Fe  Fe1       1.0  0.37500  0.25000  0.12500  1.0000
  Fe  Fe2       1.0  0.25000  0.87500  0.12500  1.0000
  Fe  Fe3       1.0  0.87500  0.12500  0.25000  1.0000
  Fe  Fe4       1.0  0.37500  0.62500  0.25000  1.0000
  Fe  Fe5       1.0  0.75000  0.62500  0.37500  1.0000
  Fe  Fe6       1.0  0.12500  0.75000  0.37500  1.0000
  Fe  Fe7       1.0  0.87500  0.25000  0.62500  1.0000
  Fe  Fe8       1.0  0.25000  0.37500  0.62500  1.0000
  Fe  Fe9       1.0  0.12500  0.87500  0.75000  1.0000
  Fe  Fe10      1.0  0.62500  0.37500  0.75000  1.0000
  Fe  Fe11      1.0  0.75000  0.12500  0.87500  1.0000
  Fe  Fe12      1.0  0.62500  0.75000  0.87500  1.0000
  Li  Li1       1.0  0.87500  0.75000  0.12500  1.0000
  Li  Li2       1.0  0.75000  0.37500  0.12500  1.0000
  Li  Li3       1.0  0.12500  0.37500  0.25000  1.0000
  Li  Li4       1.0  0.62500  0.87500  0.25000  1.0000
  Li  Li5       1.0  0.25000  0.12500  0.37500  1.0000
  Li  Li6       1.0  0.62500  0.25000  0.37500  1.0000
  Li  Li7       1.0  0.37500  0.75000  0.62500  1.0000
  Li  Li8       1.0  0.75000  0.87500  0.62500  1.0000
  Li  Li9       1.0  0.37500  0.12500  0.75000  1.0000
  Li  Li10      1.0  0.87500  0.62500  0.75000  1.0000
  Li  Li11      1.0  0.12500  0.25000  0.87500  1.0000
  Li  Li12      1.0  0.25000  0.62500  0.87500  1.0000
  O   O1        1.0  0.31600  0.41600  0.04860  1.0000
  O   O2        1.0  0.23200  0.63300  0.04860  1.0000
  O   O3        1.0  0.63300  0.90100  0.08430  1.0000
  O   O4        1.0  0.95100  0.18400  0.08430  1.0000
  O   O5        1.0  0.73200  0.18400  0.09940  1.0000
  O   O6        1.0  0.86700  0.91600  0.09940  1.0000
  O   O7        1.0  0.58400  0.40100  0.13300  1.0000
  O   O8        1.0  0.04860  0.73200  0.13300  1.0000
  O   O9        1.0  0.45100  0.08430  0.18400  1.0000
  O   O10       1.0  0.23200  0.09940  0.18400  1.0000
  O   O11       1.0  0.59900  0.68400  0.23200  1.0000
  O   O12       1.0  0.13300  0.54900  0.23200  1.0000
  O   O13       1.0  0.45100  0.86700  0.26800  1.0000
  O   O14       1.0  0.31600  0.40100  0.26800  1.0000
  O   O15       1.0  0.91600  0.54900  0.31600  1.0000
  O   O16       1.0  0.90100  0.76800  0.31600  1.0000
  O   O17       1.0  0.59900  0.41600  0.36700  1.0000
  O   O18       1.0  0.26800  0.95100  0.36700  1.0000
  O   O19       1.0  0.81600  0.26800  0.40100  1.0000
  O   O20       1.0  0.08430  0.13300  0.40100  1.0000
  O   O21       1.0  0.09940  0.36700  0.41600  1.0000
  O   O22       1.0  0.81600  0.04860  0.41600  1.0000
  O   O23       1.0  0.58400  0.68400  0.45100  1.0000
  O   O24       1.0  0.36700  0.76800  0.45100  1.0000
  O   O25       1.0  0.63300  0.23200  0.54900  1.0000
  O   O26       1.0  0.41600  0.31600  0.54900  1.0000
  O   O27       1.0  0.90100  0.63300  0.58400  1.0000
  O   O28       1.0  0.18400  0.95100  0.58400  1.0000
  O   O29       1.0  0.18400  0.73200  0.59900  1.0000
  O   O30       1.0  0.91600  0.86700  0.59900  1.0000
  O   O31       1.0  0.73200  0.04860  0.63300  1.0000
  O   O32       1.0  0.40100  0.58400  0.63300  1.0000
  O   O33       1.0  0.08430  0.45100  0.68400  1.0000
  O   O34       1.0  0.09940  0.23200  0.68400  1.0000
  O   O35       1.0  0.54900  0.13300  0.73200  1.0000
  O   O36       1.0  0.68400  0.59900  0.73200  1.0000
  O   O37       1.0  0.40100  0.31600  0.76800  1.0000
  O   O38       1.0  0.86700  0.45100  0.76800  1.0000
  O   O39       1.0  0.76800  0.90100  0.81600  1.0000
  O   O40       1.0  0.54900  0.91600  0.81600  1.0000
  O   O41       1.0  0.41600  0.59900  0.86700  1.0000
  O   O42       1.0  0.95100  0.26800  0.86700  1.0000
  O   O43       1.0  0.13300  0.08430  0.90100  1.0000
  O   O44       1.0  0.26800  0.81600  0.90100  1.0000
  O   O45       1.0  0.04860  0.81600  0.91600  1.0000
  O   O46       1.0  0.36700  0.09940  0.91600  1.0000
  O   O47       1.0  0.76800  0.36700  0.95100  1.0000
  O   O48       1.0  0.68400  0.58400  0.95100  1.0000
