data_image0
_chemical_formula_structural       Fe3N8Sr8
_chemical_formula_sum              "Fe3 N8 Sr8"
_cell_length_a       5.32752
_cell_length_b       7.43326
_cell_length_c       9.7121
_cell_angle_alpha    105.282
_cell_angle_beta     105.919
_cell_angle_gamma    90

_space_group_name_H-M_alt    "P 1"
_space_group_IT_number       1

loop_
  _space_group_symop_operation_xyz
  'x, y, z'

loop_
  _atom_site_type_symbol
  _atom_site_label
  _atom_site_symmetry_multiplicity
  _atom_site_fract_x
  _atom_site_fract_y
  _atom_site_fract_z
  _atom_site_occupancy
  Fe  Fe1       1.0  0.50000  0.50000  0.00000  1.0000
  Fe  Fe2       1.0  0.18800  0.20600  0.37600  1.0000
  Fe  Fe3       1.0  0.81200  0.79400  0.62400  1.0000
  N   N1        1.0  0.52700  0.27900  0.05340  1.0000
  N   N2        1.0  0.10800  0.01540  0.21600  1.0000
  N   N3        1.0  0.17900  0.43200  0.35700  1.0000
  N   N4        1.0  0.72300  0.83100  0.44600  1.0000
  N   N5        1.0  0.27700  0.16900  0.55400  1.0000
  N   N6        1.0  0.82100  0.56800  0.64300  1.0000
  N   N7        1.0  0.89200  0.98500  0.78400  1.0000
  N   N8        1.0  0.47300  0.72100  0.94700  1.0000
  Sr  Sr1       1.0  0.03000  0.26400  0.05990  1.0000
  Sr  Sr2       1.0  0.59500  0.96500  0.19000  1.0000
  Sr  Sr3       1.0  0.66700  0.46700  0.33400  1.0000
  Sr  Sr4       1.0  0.20000  0.80500  0.39900  1.0000
  Sr  Sr5       1.0  0.80000  0.19500  0.60100  1.0000
  Sr  Sr6       1.0  0.33300  0.53300  0.66600  1.0000
  Sr  Sr7       1.0  0.40500  0.03500  0.81000  1.0000
  Sr  Sr8       1.0  0.97000  0.73600  0.94000  1.0000
