data_image0
_chemical_formula_structural       Fe17Sm2
_chemical_formula_sum              "Fe17 Sm2"
_cell_length_a       6.39787
_cell_length_b       6.39787
_cell_length_c       6.39787
_cell_angle_alpha    97.0453
_cell_angle_beta     82.9547
_cell_angle_gamma    97.0453

_space_group_name_H-M_alt    "P 1"
_space_group_IT_number       1

loop_
  _space_group_symop_operation_xyz
  'x, y, z'

loop_
  _atom_site_type_symbol
  _atom_site_label
  _atom_site_symmetry_multiplicity
  _atom_site_fract_x
  _atom_site_fract_y
  _atom_site_fract_z
  _atom_site_occupancy
  Fe  Fe1       1.0  0.50000  0.00000  1.00000  1.0000
  Fe  Fe2       1.0  0.29200  0.29200  0.00000  1.0000
  Fe  Fe3       1.0  0.00000  0.50000  0.00000  1.0000
  Fe  Fe4       1.0  0.70800  0.70800  0.00000  1.0000
  Fe  Fe5       1.0  0.09640  0.90400  0.09640  1.0000
  Fe  Fe6       1.0  0.65700  0.34300  0.15600  1.0000
  Fe  Fe7       1.0  0.70800  1.00000  0.29200  1.0000
  Fe  Fe8       1.0  0.00000  0.29200  0.29200  1.0000
  Fe  Fe9       1.0  0.34300  0.15600  0.34300  1.0000
  Fe  Fe10      1.0  0.84400  0.65700  0.34300  1.0000
  Fe  Fe11      1.0  0.00000  0.00000  0.50000  1.0000
  Fe  Fe12      1.0  0.65700  0.84400  0.65700  1.0000
  Fe  Fe13      1.0  0.15600  0.34300  0.65700  1.0000
  Fe  Fe14      1.0  0.00000  0.70800  0.70800  1.0000
  Fe  Fe15      1.0  0.29200  0.00000  0.70800  1.0000
  Fe  Fe16      1.0  0.34300  0.65700  0.84400  1.0000
  Fe  Fe17      1.0  0.90400  0.09640  0.90400  1.0000
  Sm  Sm1       1.0  0.34100  0.65900  0.34100  1.0000
  Sm  Sm2       1.0  0.65900  0.34100  0.65900  1.0000
