data_image0
_chemical_formula_structural       O10Pb6Se2
_chemical_formula_sum              "O10 Pb6 Se2"
_cell_length_a       5.7508
_cell_length_b       7.49899
_cell_length_c       7.49899
_cell_angle_alpha    89.8574
_cell_angle_beta     90
_cell_angle_gamma    90

_space_group_name_H-M_alt    "P 1"
_space_group_IT_number       1

loop_
  _space_group_symop_operation_xyz
  'x, y, z'

loop_
  _atom_site_type_symbol
  _atom_site_label
  _atom_site_symmetry_multiplicity
  _atom_site_fract_x
  _atom_site_fract_y
  _atom_site_fract_z
  _atom_site_occupancy
  O   O1        1.0  0.45200  0.86300  0.13100  1.0000
  O   O2        1.0  0.95200  0.86900  0.13700  1.0000
  O   O3        1.0  0.72200  0.21800  0.21800  1.0000
  O   O4        1.0  0.78600  0.56000  0.30200  1.0000
  O   O5        1.0  0.28600  0.69800  0.44000  1.0000
  O   O6        1.0  0.78600  0.30200  0.56000  1.0000
  O   O7        1.0  0.28600  0.44000  0.69800  1.0000
  O   O8        1.0  0.22200  0.78200  0.78200  1.0000
  O   O9        1.0  0.45200  0.13100  0.86300  1.0000
  O   O10       1.0  0.95200  0.13700  0.86900  1.0000
  Pb  Pb1       1.0  0.19100  0.11900  0.11900  1.0000
  Pb  Pb2       1.0  0.18900  0.63600  0.13100  1.0000
  Pb  Pb3       1.0  0.68900  0.86900  0.36400  1.0000
  Pb  Pb4       1.0  0.18900  0.13100  0.63600  1.0000
  Pb  Pb5       1.0  0.68900  0.36400  0.86900  1.0000
  Pb  Pb6       1.0  0.69100  0.88100  0.88100  1.0000
  Se  Se1       1.0  0.63500  0.37300  0.37300  1.0000
  Se  Se2       1.0  0.13500  0.62700  0.62700  1.0000
