data_image0
_chemical_formula_structural       Cl2F10N2Re2
_chemical_formula_sum              "Cl2 F10 N2 Re2"
_cell_length_a       4.47497
_cell_length_b       7.58026
_cell_length_c       7.3993
_cell_angle_alpha    90
_cell_angle_beta     128.713
_cell_angle_gamma    90

_space_group_name_H-M_alt    "P 1"
_space_group_IT_number       1

loop_
  _space_group_symop_operation_xyz
  'x, y, z'

loop_
  _atom_site_type_symbol
  _atom_site_label
  _atom_site_symmetry_multiplicity
  _atom_site_fract_x
  _atom_site_fract_y
  _atom_site_fract_z
  _atom_site_occupancy
  Cl  Cl1       1.0  0.18200  0.25000  0.74400  1.0000
  Cl  Cl2       1.0  0.81800  0.75000  0.25600  1.0000
  F   F1        1.0  0.33200  0.25000  0.50000  1.0000
  F   F2        1.0  0.66800  0.75000  0.50000  1.0000
  F   F3        1.0  0.85700  0.08140  0.10900  1.0000
  F   F4        1.0  0.14300  0.58100  0.89100  1.0000
  F   F5        1.0  0.14300  0.91900  0.89100  1.0000
  F   F6        1.0  0.85700  0.41900  0.10900  1.0000
  F   F7        1.0  0.60600  0.07150  0.34800  1.0000
  F   F8        1.0  0.39400  0.57100  0.65200  1.0000
  F   F9        1.0  0.39400  0.92900  0.65200  1.0000
  F   F10       1.0  0.60600  0.42900  0.34800  1.0000
  N   N1        1.0  0.17900  0.25000  0.95100  1.0000
  N   N2        1.0  0.82100  0.75000  0.04880  1.0000
  Re  Re1       1.0  0.23700  0.25000  0.20600  1.0000
  Re  Re2       1.0  0.76300  0.75000  0.79400  1.0000
