data_image0
_chemical_formula_structural       Lu10Ni2Pb6
_chemical_formula_sum              "Lu10 Ni2 Pb6"
_cell_length_a       8.99169
_cell_length_b       8.99168
_cell_length_c       6.56183
_cell_angle_alpha    90
_cell_angle_beta     90
_cell_angle_gamma    120.001

_space_group_name_H-M_alt    "P 1"
_space_group_IT_number       1

loop_
  _space_group_symop_operation_xyz
  'x, y, z'

loop_
  _atom_site_type_symbol
  _atom_site_label
  _atom_site_symmetry_multiplicity
  _atom_site_fract_x
  _atom_site_fract_y
  _atom_site_fract_z
  _atom_site_occupancy
  Lu  Lu1       1.0  0.66700  0.33300  0.00000  1.0000
  Lu  Lu2       1.0  0.33300  0.66700  0.00000  1.0000
  Lu  Lu3       1.0  0.23600  1.00000  0.25000  1.0000
  Lu  Lu4       1.0  1.00000  0.23600  0.25000  1.0000
  Lu  Lu5       1.0  0.76400  0.76400  0.25000  1.0000
  Lu  Lu6       1.0  0.66700  0.33300  0.50000  1.0000
  Lu  Lu7       1.0  0.33300  0.66700  0.50000  1.0000
  Lu  Lu8       1.0  0.76400  0.00000  0.75000  1.0000
  Lu  Lu9       1.0  0.23600  0.23600  0.75000  1.0000
  Lu  Lu10      1.0  0.00000  0.76400  0.75000  1.0000
  Ni  Ni1       1.0  1.00000  1.00000  0.00000  1.0000
  Ni  Ni2       1.0  0.00000  0.00000  0.50000  1.0000
  Pb  Pb1       1.0  0.60000  0.00000  0.25000  1.0000
  Pb  Pb2       1.0  0.00000  0.60000  0.25000  1.0000
  Pb  Pb3       1.0  0.40000  0.40000  0.25000  1.0000
  Pb  Pb4       1.0  0.40000  1.00000  0.75000  1.0000
  Pb  Pb5       1.0  1.00000  0.40000  0.75000  1.0000
  Pb  Pb6       1.0  0.60000  0.60000  0.75000  1.0000
