data_image0
_chemical_formula_structural       Ag3C6N9
_chemical_formula_sum              "Ag3 C6 N9"
_cell_length_a       3.5179
_cell_length_b       3.51789
_cell_length_c       23.2082
_cell_angle_alpha    90
_cell_angle_beta     90
_cell_angle_gamma    120

_space_group_name_H-M_alt    "P 1"
_space_group_IT_number       1

loop_
  _space_group_symop_operation_xyz
  'x, y, z'

loop_
  _atom_site_type_symbol
  _atom_site_label
  _atom_site_symmetry_multiplicity
  _atom_site_fract_x
  _atom_site_fract_y
  _atom_site_fract_z
  _atom_site_occupancy
  Ag  Ag1       1.0  0.65700  0.65700  0.00000  1.0000
  Ag  Ag2       1.0  0.34300  0.00000  0.33300  1.0000
  Ag  Ag3       1.0  0.00000  0.34300  0.66700  1.0000
  C   C1        1.0  0.94700  0.38100  0.11800  1.0000
  C   C2        1.0  0.05350  0.43500  0.21600  1.0000
  C   C3        1.0  0.61900  0.56500  0.45100  1.0000
  C   C4        1.0  0.56500  0.61900  0.54900  1.0000
  C   C5        1.0  0.43500  0.05350  0.78400  1.0000
  C   C6        1.0  0.38100  0.94700  0.88200  1.0000
  N   N1        1.0  0.90100  0.46800  0.07000  1.0000
  N   N2        1.0  0.00000  0.24300  0.16700  1.0000
  N   N3        1.0  0.09930  0.56700  0.26300  1.0000
  N   N4        1.0  0.53200  0.43300  0.40300  1.0000
  N   N5        1.0  0.75700  0.75700  0.50000  1.0000
  N   N6        1.0  0.43300  0.53200  0.59700  1.0000
  N   N7        1.0  0.56700  0.09930  0.73700  1.0000
  N   N8        1.0  0.24300  0.00000  0.83300  1.0000
  N   N9        1.0  0.46800  0.90100  0.93000  1.0000
