data_image0
_chemical_formula_structural       C6I4O6Os2
_chemical_formula_sum              "C6 I4 O6 Os2"
_cell_length_a       6.7067
_cell_length_b       6.7067
_cell_length_c       9.70136
_cell_angle_alpha    104.178
_cell_angle_beta     75.8222
_cell_angle_gamma    110.11

_space_group_name_H-M_alt    "P 1"
_space_group_IT_number       1

loop_
  _space_group_symop_operation_xyz
  'x, y, z'

loop_
  _atom_site_type_symbol
  _atom_site_label
  _atom_site_symmetry_multiplicity
  _atom_site_fract_x
  _atom_site_fract_y
  _atom_site_fract_z
  _atom_site_occupancy
  C   C1        1.0  0.41200  0.22200  0.14200  1.0000
  C   C2        1.0  0.77800  0.58800  0.14200  1.0000
  C   C3        1.0  0.73900  0.26100  0.28500  1.0000
  C   C4        1.0  0.26100  0.73900  0.71500  1.0000
  C   C5        1.0  0.22200  0.41200  0.85800  1.0000
  C   C6        1.0  0.58800  0.77800  0.85800  1.0000
  I   I1        1.0  0.31800  0.68200  0.26900  1.0000
  I   I2        1.0  0.25600  0.25600  0.50000  1.0000
  I   I3        1.0  0.74400  0.74400  0.50000  1.0000
  I   I4        1.0  0.68200  0.31800  0.73100  1.0000
  O   O1        1.0  0.31000  0.09110  0.06270  1.0000
  O   O2        1.0  0.90900  0.69000  0.06270  1.0000
  O   O3        1.0  0.84500  0.15500  0.28300  1.0000
  O   O4        1.0  0.15500  0.84500  0.71700  1.0000
  O   O5        1.0  0.09110  0.31000  0.93700  1.0000
  O   O6        1.0  0.69000  0.90900  0.93700  1.0000
  Os  Os1       1.0  0.56700  0.43300  0.27900  1.0000
  Os  Os2       1.0  0.43300  0.56700  0.72100  1.0000
