data_image0
_chemical_formula_structural       Ge16S32
_chemical_formula_sum              "Ge16 S32"
_cell_length_a       12.2693
_cell_length_b       12.2693
_cell_length_c       12.2693
_cell_angle_alpha    127.025
_cell_angle_beta     127.025
_cell_angle_gamma    78.2107

_space_group_name_H-M_alt    "P 1"
_space_group_IT_number       1

loop_
  _space_group_symop_operation_xyz
  'x, y, z'

loop_
  _atom_site_type_symbol
  _atom_site_label
  _atom_site_symmetry_multiplicity
  _atom_site_fract_x
  _atom_site_fract_y
  _atom_site_fract_z
  _atom_site_occupancy
  Ge  Ge1       1.0  0.41000  0.43600  0.72300  1.0000
  Ge  Ge2       1.0  0.21300  0.68700  0.77700  1.0000
  Ge  Ge3       1.0  0.09020  0.81300  0.02590  1.0000
  Ge  Ge4       1.0  0.28700  0.06420  0.47400  1.0000
  Ge  Ge5       1.0  0.06420  0.09020  0.77700  1.0000
  Ge  Ge6       1.0  0.81300  0.28700  0.72300  1.0000
  Ge  Ge7       1.0  0.68700  0.41000  0.47400  1.0000
  Ge  Ge8       1.0  0.43600  0.21300  0.02590  1.0000
  Ge  Ge9       1.0  0.59000  0.56400  0.27700  1.0000
  Ge  Ge10      1.0  0.78700  0.31300  0.22300  1.0000
  Ge  Ge11      1.0  0.91000  0.18700  0.97400  1.0000
  Ge  Ge12      1.0  0.71300  0.93600  0.52600  1.0000
  Ge  Ge13      1.0  0.93600  0.91000  0.22300  1.0000
  Ge  Ge14      1.0  0.18700  0.71300  0.27700  1.0000
  Ge  Ge15      1.0  0.31300  0.59000  0.52600  1.0000
  Ge  Ge16      1.0  0.56400  0.78700  0.97400  1.0000
  S   S1        1.0  0.38400  0.40300  0.03550  1.0000
  S   S2        1.0  0.86700  0.34900  0.46500  1.0000
  S   S3        1.0  0.11600  0.15100  0.01810  1.0000
  S   S4        1.0  0.63300  0.09740  0.48200  1.0000
  S   S5        1.0  0.09740  0.11600  0.46500  1.0000
  S   S6        1.0  0.15100  0.63300  0.03550  1.0000
  S   S7        1.0  0.34900  0.38400  0.48200  1.0000
  S   S8        1.0  0.40300  0.86700  0.01810  1.0000
  S   S9        1.0  0.61600  0.59700  0.96500  1.0000
  S   S10       1.0  0.13300  0.65100  0.53500  1.0000
  S   S11       1.0  0.88400  0.84900  0.98200  1.0000
  S   S12       1.0  0.36700  0.90300  0.51800  1.0000
  S   S13       1.0  0.90300  0.88400  0.53500  1.0000
  S   S14       1.0  0.84900  0.36700  0.96500  1.0000
  S   S15       1.0  0.65100  0.61600  0.51800  1.0000
  S   S16       1.0  0.59700  0.13300  0.98200  1.0000
  S   S17       1.0  0.25000  0.53000  0.28000  1.0000
  S   S18       1.0  0.75000  0.97000  0.22000  1.0000
  S   S19       1.0  0.97000  0.25000  0.22000  1.0000
  S   S20       1.0  0.53000  0.75000  0.28000  1.0000
  S   S21       1.0  0.75000  0.47000  0.72000  1.0000
  S   S22       1.0  0.25000  0.03000  0.78000  1.0000
  S   S23       1.0  0.03000  0.75000  0.78000  1.0000
  S   S24       1.0  0.47000  0.25000  0.72000  1.0000
  S   S25       1.0  0.26300  0.01310  0.25000  1.0000
  S   S26       1.0  0.23700  0.48700  0.75000  1.0000
  S   S27       1.0  0.48700  0.23700  0.25000  1.0000
  S   S28       1.0  0.01310  0.26300  0.75000  1.0000
  S   S29       1.0  0.73700  0.98700  0.75000  1.0000
  S   S30       1.0  0.76300  0.51300  0.25000  1.0000
  S   S31       1.0  0.51300  0.76300  0.75000  1.0000
  S   S32       1.0  0.98700  0.73700  0.25000  1.0000
