data_image0
_chemical_formula_structural       Cs4Ni6S8
_chemical_formula_sum              "Cs4 Ni6 S8"
_cell_length_a       5.85737
_cell_length_b       5.85746
_cell_length_c       15.0419
_cell_angle_alpha    90
_cell_angle_beta     90
_cell_angle_gamma    119.999

_space_group_name_H-M_alt    "P 1"
_space_group_IT_number       1

loop_
  _space_group_symop_operation_xyz
  'x, y, z'

loop_
  _atom_site_type_symbol
  _atom_site_label
  _atom_site_symmetry_multiplicity
  _atom_site_fract_x
  _atom_site_fract_y
  _atom_site_fract_z
  _atom_site_occupancy
  Cs  Cs1       1.0  0.66700  0.33300  0.08710  1.0000
  Cs  Cs2       1.0  0.66700  0.33300  0.41300  1.0000
  Cs  Cs3       1.0  0.33300  0.66700  0.58700  1.0000
  Cs  Cs4       1.0  0.33300  0.66700  0.91300  1.0000
  Ni  Ni1       1.0  0.16600  0.33300  0.25000  1.0000
  Ni  Ni2       1.0  0.16600  0.83400  0.25000  1.0000
  Ni  Ni3       1.0  0.66700  0.83400  0.25000  1.0000
  Ni  Ni4       1.0  0.33300  0.16600  0.75000  1.0000
  Ni  Ni5       1.0  0.83400  0.16600  0.75000  1.0000
  Ni  Ni6       1.0  0.83400  0.66700  0.75000  1.0000
  S   S1        1.0  0.33300  0.66700  0.15500  1.0000
  S   S2        1.0  1.00000  1.00000  0.15500  1.0000
  S   S3        1.0  1.00000  1.00000  0.34500  1.0000
  S   S4        1.0  0.33300  0.66700  0.34500  1.0000
  S   S5        1.0  0.66700  0.33300  0.65500  1.0000
  S   S6        1.0  0.00000  0.00000  0.65500  1.0000
  S   S7        1.0  0.00000  0.00000  0.84500  1.0000
  S   S8        1.0  0.66700  0.33300  0.84500  1.0000
