data_image0
_chemical_formula_structural       C2I10La6
_chemical_formula_sum              "C2 I10 La6"
_cell_length_a       9.82801
_cell_length_b       9.92494
_cell_length_c       8.09642
_cell_angle_alpha    97.3435
_cell_angle_beta     105.195
_cell_angle_gamma    107.493

_space_group_name_H-M_alt    "P 1"
_space_group_IT_number       1

loop_
  _space_group_symop_operation_xyz
  'x, y, z'

loop_
  _atom_site_type_symbol
  _atom_site_label
  _atom_site_symmetry_multiplicity
  _atom_site_fract_x
  _atom_site_fract_y
  _atom_site_fract_z
  _atom_site_occupancy
  C   C1        1.0  0.03080  0.04150  0.08680  1.0000
  C   C2        1.0  0.96900  0.95800  0.91300  1.0000
  I   I1        1.0  0.37200  0.81800  0.08990  1.0000
  I   I2        1.0  0.72800  0.63900  0.18300  1.0000
  I   I3        1.0  0.08660  0.46600  0.25900  1.0000
  I   I4        1.0  0.46600  0.27700  0.35300  1.0000
  I   I5        1.0  0.80900  0.09210  0.45500  1.0000
  I   I6        1.0  0.19100  0.90800  0.54500  1.0000
  I   I7        1.0  0.53400  0.72300  0.64700  1.0000
  I   I8        1.0  0.91300  0.53400  0.74100  1.0000
  I   I9        1.0  0.27200  0.36100  0.81700  1.0000
  I   I10       1.0  0.62800  0.18200  0.91000  1.0000
  La  La1       1.0  0.72900  0.92200  0.02820  1.0000
  La  La2       1.0  0.03980  0.77400  0.10700  1.0000
  La  La3       1.0  0.13900  0.18500  0.37800  1.0000
  La  La4       1.0  0.86100  0.81500  0.62200  1.0000
  La  La5       1.0  0.96000  0.22600  0.89300  1.0000
  La  La6       1.0  0.27100  0.07810  0.97200  1.0000
