data_image0
_chemical_formula_structural       LaO11Sr2Ta3
_chemical_formula_sum              "La1 O11 Sr2 Ta3"
_cell_length_a       3.96784
_cell_length_b       5.6812
_cell_length_c       11.1643
_cell_angle_alpha    104.74
_cell_angle_beta     100.236
_cell_angle_gamma    90

_space_group_name_H-M_alt    "P 1"
_space_group_IT_number       1

loop_
  _space_group_symop_operation_xyz
  'x, y, z'

loop_
  _atom_site_type_symbol
  _atom_site_label
  _atom_site_symmetry_multiplicity
  _atom_site_fract_x
  _atom_site_fract_y
  _atom_site_fract_z
  _atom_site_occupancy
  La  La1       1.0  0.00000  0.50000  0.00000  1.0000
  O   O1        1.0  0.00000  0.00000  0.00000  1.0000
  O   O2        1.0  0.56100  0.32400  0.12200  1.0000
  O   O3        1.0  0.56100  0.79700  0.12200  1.0000
  O   O4        1.0  0.12200  0.62200  0.24500  1.0000
  O   O5        1.0  0.69700  0.45600  0.39500  1.0000
  O   O6        1.0  0.69700  0.93900  0.39500  1.0000
  O   O7        1.0  0.30300  0.06080  0.60500  1.0000
  O   O8        1.0  0.30300  0.54400  0.60500  1.0000
  O   O9        1.0  0.87800  0.37800  0.75500  1.0000
  O   O10       1.0  0.43900  0.20300  0.87800  1.0000
  O   O11       1.0  0.43900  0.67600  0.87800  1.0000
  Sr  Sr1       1.0  0.20100  0.20100  0.40200  1.0000
  Sr  Sr2       1.0  0.79900  0.79900  0.59800  1.0000
  Ta  Ta1       1.0  0.50000  0.00000  0.00000  1.0000
  Ta  Ta2       1.0  0.63800  0.63800  0.27500  1.0000
  Ta  Ta3       1.0  0.36200  0.36200  0.72500  1.0000
