data_image0
_chemical_formula_structural       Lu14Te2
_chemical_formula_sum              "Lu14 Te2"
_cell_length_a       3.78534
_cell_length_b       6.5426
_cell_length_c       19.9031
_cell_angle_alpha    90
_cell_angle_beta     90
_cell_angle_gamma    73.1849

_space_group_name_H-M_alt    "P 1"
_space_group_IT_number       1

loop_
  _space_group_symop_operation_xyz
  'x, y, z'

loop_
  _atom_site_type_symbol
  _atom_site_label
  _atom_site_symmetry_multiplicity
  _atom_site_fract_x
  _atom_site_fract_y
  _atom_site_fract_z
  _atom_site_occupancy
  Lu  Lu1       1.0  0.64200  0.71500  0.01240  1.0000
  Lu  Lu2       1.0  0.98000  0.04070  0.10800  1.0000
  Lu  Lu3       1.0  0.24500  0.50900  0.14600  1.0000
  Lu  Lu4       1.0  0.56200  0.87600  0.25000  1.0000
  Lu  Lu5       1.0  0.24500  0.50900  0.35400  1.0000
  Lu  Lu6       1.0  0.98000  0.04070  0.39200  1.0000
  Lu  Lu7       1.0  0.64200  0.71500  0.48800  1.0000
  Lu  Lu8       1.0  0.35800  0.28500  0.51200  1.0000
  Lu  Lu9       1.0  0.02030  0.95900  0.60800  1.0000
  Lu  Lu10      1.0  0.75500  0.49100  0.64600  1.0000
  Lu  Lu11      1.0  0.43800  0.12400  0.75000  1.0000
  Lu  Lu12      1.0  0.75500  0.49100  0.85400  1.0000
  Lu  Lu13      1.0  0.02030  0.95900  0.89200  1.0000
  Lu  Lu14      1.0  0.35800  0.28500  0.98800  1.0000
  Te  Te1       1.0  0.85200  0.29600  0.25000  1.0000
  Te  Te2       1.0  0.14800  0.70400  0.75000  1.0000
