data_image0
_chemical_formula_structural       C2Nd10Si6
_chemical_formula_sum              "C2 Nd10 Si6"
_cell_length_a       8.78689
_cell_length_b       8.7869
_cell_length_c       6.74782
_cell_angle_alpha    90
_cell_angle_beta     90
_cell_angle_gamma    120

_space_group_name_H-M_alt    "P 1"
_space_group_IT_number       1

loop_
  _space_group_symop_operation_xyz
  'x, y, z'

loop_
  _atom_site_type_symbol
  _atom_site_label
  _atom_site_symmetry_multiplicity
  _atom_site_fract_x
  _atom_site_fract_y
  _atom_site_fract_z
  _atom_site_occupancy
  C   C1        1.0  1.00000  1.00000  0.00000  1.0000
  C   C2        1.0  0.00000  0.00000  0.50000  1.0000
  Nd  Nd1       1.0  0.66700  0.33300  0.00000  1.0000
  Nd  Nd2       1.0  0.33300  0.66700  0.00000  1.0000
  Nd  Nd3       1.0  1.00000  0.22400  0.25000  1.0000
  Nd  Nd4       1.0  0.22400  1.00000  0.25000  1.0000
  Nd  Nd5       1.0  0.77600  0.77600  0.25000  1.0000
  Nd  Nd6       1.0  0.66700  0.33300  0.50000  1.0000
  Nd  Nd7       1.0  0.33300  0.66700  0.50000  1.0000
  Nd  Nd8       1.0  0.77600  0.00000  0.75000  1.0000
  Nd  Nd9       1.0  0.00000  0.77600  0.75000  1.0000
  Nd  Nd10      1.0  0.22400  0.22400  0.75000  1.0000
  Si  Si1       1.0  0.41200  0.41200  0.25000  1.0000
  Si  Si2       1.0  1.00000  0.58800  0.25000  1.0000
  Si  Si3       1.0  0.58800  1.00000  0.25000  1.0000
  Si  Si4       1.0  0.58800  0.58800  0.75000  1.0000
  Si  Si5       1.0  0.41200  0.00000  0.75000  1.0000
  Si  Si6       1.0  0.00000  0.41200  0.75000  1.0000
