data_image0
_chemical_formula_structural       Ga6Ni4Ti8
_chemical_formula_sum              "Ga6 Ni4 Ti8"
_cell_length_a       7.30861
_cell_length_b       7.30861
_cell_length_c       5.61676
_cell_angle_alpha    90
_cell_angle_beta     90
_cell_angle_gamma    119.999

_space_group_name_H-M_alt    "P 1"
_space_group_IT_number       1

loop_
  _space_group_symop_operation_xyz
  'x, y, z'

loop_
  _atom_site_type_symbol
  _atom_site_label
  _atom_site_symmetry_multiplicity
  _atom_site_fract_x
  _atom_site_fract_y
  _atom_site_fract_z
  _atom_site_occupancy
  Ga  Ga1       1.0  0.31400  0.00002  0.25000  1.0000
  Ga  Ga2       1.0  0.00002  0.31400  0.25000  1.0000
  Ga  Ga3       1.0  0.68600  0.68600  0.25000  1.0000
  Ga  Ga4       1.0  0.68600  0.68600  0.75000  1.0000
  Ga  Ga5       1.0  0.31400  0.00002  0.75000  1.0000
  Ga  Ga6       1.0  0.00002  0.31400  0.75000  1.0000
  Ni  Ni1       1.0  0.66700  0.33300  0.24800  1.0000
  Ni  Ni2       1.0  0.33300  0.66700  0.24800  1.0000
  Ni  Ni3       1.0  0.66700  0.33300  0.75200  1.0000
  Ni  Ni4       1.0  0.33300  0.66700  0.75200  1.0000
  Ti  Ti1       1.0  1.00000  1.00000  0.00000  1.0000
  Ti  Ti2       1.0  0.63400  0.00001  0.00000  1.0000
  Ti  Ti3       1.0  0.36600  0.36600  0.00000  1.0000
  Ti  Ti4       1.0  0.00001  0.63400  0.00000  1.0000
  Ti  Ti5       1.0  0.63400  0.00001  0.50000  1.0000
  Ti  Ti6       1.0  0.00002  0.00002  0.50000  1.0000
  Ti  Ti7       1.0  0.36600  0.36600  0.50000  1.0000
  Ti  Ti8       1.0  0.00001  0.63400  0.50000  1.0000
