data_image0
_chemical_formula_structural       Br6OTe8W
_chemical_formula_sum              "Br6 O1 Te8 W1"
_cell_length_a       4.01137
_cell_length_b       9.53871
_cell_length_c       14.9086
_cell_angle_alpha    92.3527
_cell_angle_beta     97.7316
_cell_angle_gamma    102.138

_space_group_name_H-M_alt    "P 1"
_space_group_IT_number       1

loop_
  _space_group_symop_operation_xyz
  'x, y, z'

loop_
  _atom_site_type_symbol
  _atom_site_label
  _atom_site_symmetry_multiplicity
  _atom_site_fract_x
  _atom_site_fract_y
  _atom_site_fract_z
  _atom_site_occupancy
  Br  Br1       1.0  0.37100  0.73400  0.01330  1.0000
  Br  Br2       1.0  0.60900  0.04580  0.17000  1.0000
  Br  Br3       1.0  0.85900  0.31000  0.40600  1.0000
  Br  Br4       1.0  0.14300  0.69000  0.59400  1.0000
  Br  Br5       1.0  0.39300  0.95400  0.83000  1.0000
  Br  Br6       1.0  0.62400  0.26600  0.98700  1.0000
  O   O1        1.0  0.98100  0.00000  0.00000  1.0000
  Te  Te1       1.0  0.89600  0.60700  0.18500  1.0000
  Te  Te2       1.0  0.37900  0.47500  0.28300  1.0000
  Te  Te3       1.0  0.12400  0.90200  0.34200  1.0000
  Te  Te4       1.0  0.62100  0.78900  0.45000  1.0000
  Te  Te5       1.0  0.38200  0.21100  0.55000  1.0000
  Te  Te6       1.0  0.87900  0.09770  0.65800  1.0000
  Te  Te7       1.0  0.62200  0.52500  0.71700  1.0000
  Te  Te8       1.0  0.10500  0.39300  0.81500  1.0000
  W   W1        1.0  0.41900  0.00000  0.00000  1.0000
