data_image0
_chemical_formula_structural       O12UY6
_chemical_formula_sum              "O12 U1 Y6"
_cell_length_a       6.53937
_cell_length_b       6.53937
_cell_length_c       6.53937
_cell_angle_alpha    99.0521
_cell_angle_beta     99.0521
_cell_angle_gamma    99.0521

_space_group_name_H-M_alt    "P 1"
_space_group_IT_number       1

loop_
  _space_group_symop_operation_xyz
  'x, y, z'

loop_
  _atom_site_type_symbol
  _atom_site_label
  _atom_site_symmetry_multiplicity
  _atom_site_fract_x
  _atom_site_fract_y
  _atom_site_fract_z
  _atom_site_occupancy
  O   O1        1.0  0.92300  0.68900  0.04680  1.0000
  O   O2        1.0  0.31100  0.95300  0.07710  1.0000
  O   O3        1.0  0.58700  0.42800  0.17700  1.0000
  O   O4        1.0  0.95300  0.07710  0.31100  1.0000
  O   O5        1.0  0.57200  0.82300  0.41300  1.0000
  O   O6        1.0  0.17700  0.58700  0.42800  1.0000
  O   O7        1.0  0.82300  0.41300  0.57200  1.0000
  O   O8        1.0  0.42800  0.17700  0.58700  1.0000
  O   O9        1.0  0.04680  0.92300  0.68900  1.0000
  O   O10       1.0  0.41300  0.57200  0.82300  1.0000
  O   O11       1.0  0.68900  0.04680  0.92300  1.0000
  O   O12       1.0  0.07710  0.31100  0.95300  1.0000
  U   U1        1.0  0.00000  0.00000  0.00000  1.0000
  Y   Y1        1.0  0.32100  0.61000  0.14500  1.0000
  Y   Y2        1.0  0.61000  0.14500  0.32100  1.0000
  Y   Y3        1.0  0.85500  0.67900  0.39000  1.0000
  Y   Y4        1.0  0.14500  0.32100  0.61000  1.0000
  Y   Y5        1.0  0.39000  0.85500  0.67900  1.0000
  Y   Y6        1.0  0.67900  0.39000  0.85500  1.0000
