data_image0
_chemical_formula_structural       AgCr2H4O10Sc
_chemical_formula_sum              "Ag1 Cr2 H4 O10 Sc1"
_cell_length_a       5.55568
_cell_length_b       5.95877
_cell_length_c       7.30591
_cell_angle_alpha    110.689
_cell_angle_beta     90.0963
_cell_angle_gamma    117.626

_space_group_name_H-M_alt    "P 1"
_space_group_IT_number       1

loop_
  _space_group_symop_operation_xyz
  'x, y, z'

loop_
  _atom_site_type_symbol
  _atom_site_label
  _atom_site_symmetry_multiplicity
  _atom_site_fract_x
  _atom_site_fract_y
  _atom_site_fract_z
  _atom_site_occupancy
  Ag  Ag1       1.0  1.00000  1.00000  0.50000  1.0000
  Cr  Cr1       1.0  0.63500  0.23500  0.31800  1.0000
  Cr  Cr2       1.0  0.36500  0.76500  0.68200  1.0000
  H   H1        1.0  0.76300  0.50000  0.03970  1.0000
  H   H2        1.0  0.28600  0.56900  0.20300  1.0000
  H   H3        1.0  0.71400  0.43100  0.79700  1.0000
  H   H4        1.0  0.23700  0.50000  0.96000  1.0000
  O   O1        1.0  0.21600  0.42600  0.06430  1.0000
  O   O2        1.0  0.31300  0.02730  0.17700  1.0000
  O   O3        1.0  0.82600  0.07270  0.25500  1.0000
  O   O4        1.0  0.78800  0.52300  0.28200  1.0000
  O   O5        1.0  0.38600  0.69600  0.44900  1.0000
  O   O6        1.0  0.61400  0.30400  0.55100  1.0000
  O   O7        1.0  0.21200  0.47700  0.71800  1.0000
  O   O8        1.0  0.17400  0.92700  0.74500  1.0000
  O   O9        1.0  0.68700  0.97300  0.82300  1.0000
  O   O10       1.0  0.78400  0.57400  0.93600  1.0000
  Sc  Sc1       1.0  0.00000  0.00000  0.00000  1.0000
