data_image0
_chemical_formula_structural       Ca4N6
_chemical_formula_sum              "Ca4 N6"
_cell_length_a       4.94471
_cell_length_b       5.51538
_cell_length_c       6.53472
_cell_angle_alpha    114.931
_cell_angle_beta     68.3832
_cell_angle_gamma    123.918

_space_group_name_H-M_alt    "P 1"
_space_group_IT_number       1

loop_
  _space_group_symop_operation_xyz
  'x, y, z'

loop_
  _atom_site_type_symbol
  _atom_site_label
  _atom_site_symmetry_multiplicity
  _atom_site_fract_x
  _atom_site_fract_y
  _atom_site_fract_z
  _atom_site_occupancy
  Ca  Ca1       1.0  0.64100  0.32600  0.12100  1.0000
  Ca  Ca2       1.0  0.85100  0.03260  0.29800  1.0000
  Ca  Ca3       1.0  0.14100  0.93500  0.62000  1.0000
  Ca  Ca4       1.0  0.35100  0.61600  0.79800  1.0000
  N   N1        1.0  0.27200  0.84700  0.21700  1.0000
  N   N2        1.0  0.15400  0.56100  0.24800  1.0000
  N   N3        1.0  0.33300  0.55900  0.36600  1.0000
  N   N4        1.0  0.77200  0.14200  0.71700  1.0000
  N   N5        1.0  0.65400  0.34100  0.74800  1.0000
  N   N6        1.0  0.83300  0.64000  0.86600  1.0000
