data_image0
_chemical_formula_structural       Al10C6N2
_chemical_formula_sum              "Al10 C6 N2"
_cell_length_a       3.2977
_cell_length_b       3.29768
_cell_length_c       21.7621
_cell_angle_alpha    90
_cell_angle_beta     90
_cell_angle_gamma    120

_space_group_name_H-M_alt    "P 1"
_space_group_IT_number       1

loop_
  _space_group_symop_operation_xyz
  'x, y, z'

loop_
  _atom_site_type_symbol
  _atom_site_label
  _atom_site_symmetry_multiplicity
  _atom_site_fract_x
  _atom_site_fract_y
  _atom_site_fract_z
  _atom_site_occupancy
  Al  Al1       1.0  0.33300  0.66700  0.04460  1.0000
  Al  Al2       1.0  0.00000  0.00000  0.15900  1.0000
  Al  Al3       1.0  0.33300  0.66700  0.26300  1.0000
  Al  Al4       1.0  0.00000  0.00000  0.34800  1.0000
  Al  Al5       1.0  0.33300  0.66700  0.45300  1.0000
  Al  Al6       1.0  0.66700  0.33300  0.54500  1.0000
  Al  Al7       1.0  0.00002  0.00003  0.65900  1.0000
  Al  Al8       1.0  0.66700  0.33300  0.76300  1.0000
  Al  Al9       1.0  0.00002  0.00003  0.84800  1.0000
  Al  Al10      1.0  0.66700  0.33300  0.95300  1.0000
  C   C1        1.0  0.00000  0.00000  0.00211  1.0000
  C   C2        1.0  0.00000  0.00000  0.24900  1.0000
  C   C3        1.0  0.33300  0.66700  0.36600  1.0000
  C   C4        1.0  0.00000  0.00000  0.50200  1.0000
  C   C5        1.0  0.00002  0.00003  0.74900  1.0000
  C   C6        1.0  0.66700  0.33300  0.86600  1.0000
  N   N1        1.0  0.33300  0.66700  0.13000  1.0000
  N   N2        1.0  0.66700  0.33300  0.63000  1.0000
