data_image0
_chemical_formula_structural       Er10Ni4Te4
_chemical_formula_sum              "Er10 Ni4 Te4"
_cell_length_a       3.95351
_cell_length_b       7.68892
_cell_length_c       14.838
_cell_angle_alpha    90
_cell_angle_beta     90
_cell_angle_gamma    75.1025

_space_group_name_H-M_alt    "P 1"
_space_group_IT_number       1

loop_
  _space_group_symop_operation_xyz
  'x, y, z'

loop_
  _atom_site_type_symbol
  _atom_site_label
  _atom_site_symmetry_multiplicity
  _atom_site_fract_x
  _atom_site_fract_y
  _atom_site_fract_z
  _atom_site_occupancy
  Er  Er1       1.0  0.03990  0.92000  0.12500  1.0000
  Er  Er2       1.0  0.74100  0.51900  0.12900  1.0000
  Er  Er3       1.0  0.39400  0.21300  0.25000  1.0000
  Er  Er4       1.0  0.74100  0.51900  0.37100  1.0000
  Er  Er5       1.0  0.03990  0.92000  0.37500  1.0000
  Er  Er6       1.0  0.96000  0.07990  0.62500  1.0000
  Er  Er7       1.0  0.25900  0.48100  0.62900  1.0000
  Er  Er8       1.0  0.60600  0.78700  0.75000  1.0000
  Er  Er9       1.0  0.25900  0.48100  0.87100  1.0000
  Er  Er10      1.0  0.96000  0.07990  0.87500  1.0000
  Ni  Ni1       1.0  0.18700  0.62600  0.25000  1.0000
  Ni  Ni2       1.0  0.58600  0.82700  0.25000  1.0000
  Ni  Ni3       1.0  0.41400  0.17300  0.75000  1.0000
  Ni  Ni4       1.0  0.81300  0.37400  0.75000  1.0000
  Te  Te1       1.0  0.38500  0.23100  0.03930  1.0000
  Te  Te2       1.0  0.38500  0.23100  0.46100  1.0000
  Te  Te3       1.0  0.61500  0.76900  0.53900  1.0000
  Te  Te4       1.0  0.61500  0.76900  0.96100  1.0000
