data_image0
_chemical_formula_structural       Er10Ni2Pb6
_chemical_formula_sum              "Er10 Ni2 Pb6"
_cell_length_a       9.08748
_cell_length_b       9.08748
_cell_length_c       6.64119
_cell_angle_alpha    90
_cell_angle_beta     90
_cell_angle_gamma    120.001

_space_group_name_H-M_alt    "P 1"
_space_group_IT_number       1

loop_
  _space_group_symop_operation_xyz
  'x, y, z'

loop_
  _atom_site_type_symbol
  _atom_site_label
  _atom_site_symmetry_multiplicity
  _atom_site_fract_x
  _atom_site_fract_y
  _atom_site_fract_z
  _atom_site_occupancy
  Er  Er1       1.0  0.66700  0.33300  0.00000  1.0000
  Er  Er2       1.0  0.33300  0.66700  0.00000  1.0000
  Er  Er3       1.0  0.76200  0.76200  0.25000  1.0000
  Er  Er4       1.0  0.23800  1.00000  0.25000  1.0000
  Er  Er5       1.0  1.00000  0.23800  0.25000  1.0000
  Er  Er6       1.0  0.66700  0.33300  0.50000  1.0000
  Er  Er7       1.0  0.33300  0.66700  0.50000  1.0000
  Er  Er8       1.0  0.23800  0.23800  0.75000  1.0000
  Er  Er9       1.0  0.76200  0.00000  0.75000  1.0000
  Er  Er10      1.0  0.00000  0.76200  0.75000  1.0000
  Ni  Ni1       1.0  1.00000  1.00000  0.00000  1.0000
  Ni  Ni2       1.0  0.00000  0.00000  0.50000  1.0000
  Pb  Pb1       1.0  0.60100  0.00000  0.25000  1.0000
  Pb  Pb2       1.0  0.00000  0.60100  0.25000  1.0000
  Pb  Pb3       1.0  0.39900  0.39900  0.25000  1.0000
  Pb  Pb4       1.0  0.39900  1.00000  0.75000  1.0000
  Pb  Pb5       1.0  1.00000  0.39900  0.75000  1.0000
  Pb  Pb6       1.0  0.60100  0.60100  0.75000  1.0000
