data_image0
_chemical_formula_structural       Ga13Nb5
_chemical_formula_sum              "Ga13 Nb5"
_cell_length_a       20.357
_cell_length_b       3.79454
_cell_length_c       3.78617
_cell_angle_alpha    90
_cell_angle_beta     90
_cell_angle_gamma    95.3477

_space_group_name_H-M_alt    "P 1"
_space_group_IT_number       1

loop_
  _space_group_symop_operation_xyz
  'x, y, z'

loop_
  _atom_site_type_symbol
  _atom_site_label
  _atom_site_symmetry_multiplicity
  _atom_site_fract_x
  _atom_site_fract_y
  _atom_site_fract_z
  _atom_site_occupancy
  Ga  Ga1       1.0  0.10900  0.05470  0.00000  1.0000
  Ga  Ga2       1.0  0.33000  0.16500  0.00000  1.0000
  Ga  Ga3       1.0  0.77700  0.38800  0.00000  1.0000
  Ga  Ga4       1.0  0.22300  0.61200  0.00000  1.0000
  Ga  Ga5       1.0  0.67000  0.83500  0.00000  1.0000
  Ga  Ga6       1.0  0.89100  0.94500  0.00000  1.0000
  Ga  Ga7       1.0  0.00000  0.00000  0.50000  1.0000
  Ga  Ga8       1.0  0.45600  0.22800  0.50000  1.0000
  Ga  Ga9       1.0  0.67100  0.33500  0.50000  1.0000
  Ga  Ga10      1.0  0.89000  0.44500  0.50000  1.0000
  Ga  Ga11      1.0  0.11000  0.55500  0.50000  1.0000
  Ga  Ga12      1.0  0.32900  0.66500  0.50000  1.0000
  Ga  Ga13      1.0  0.54400  0.77200  0.50000  1.0000
  Nb  Nb1       1.0  0.56700  0.28300  0.00000  1.0000
  Nb  Nb2       1.0  0.00000  0.50000  0.00000  1.0000
  Nb  Nb3       1.0  0.43300  0.71700  0.00000  1.0000
  Nb  Nb4       1.0  0.21700  0.10800  0.50000  1.0000
  Nb  Nb5       1.0  0.78300  0.89200  0.50000  1.0000
