data_image0
_chemical_formula_structural       As2F14Pb2
_chemical_formula_sum              "As2 F14 Pb2"
_cell_length_a       4.50127
_cell_length_b       7.04809
_cell_length_c       7.17112
_cell_angle_alpha    106.796
_cell_angle_beta     101.874
_cell_angle_gamma    90.5713

_space_group_name_H-M_alt    "P 1"
_space_group_IT_number       1

loop_
  _space_group_symop_operation_xyz
  'x, y, z'

loop_
  _atom_site_type_symbol
  _atom_site_label
  _atom_site_symmetry_multiplicity
  _atom_site_fract_x
  _atom_site_fract_y
  _atom_site_fract_z
  _atom_site_occupancy
  As  As1       1.0  0.34900  0.18500  0.28400  1.0000
  As  As2       1.0  0.65100  0.81500  0.71600  1.0000
  F   F1        1.0  0.10800  0.18400  0.05660  1.0000
  F   F2        1.0  0.28300  0.57400  0.09350  1.0000
  F   F3        1.0  0.47600  0.95500  0.17100  1.0000
  F   F4        1.0  0.64100  0.30900  0.22700  1.0000
  F   F5        1.0  0.05970  0.06080  0.34700  1.0000
  F   F6        1.0  0.21200  0.41400  0.40300  1.0000
  F   F7        1.0  0.41700  0.80300  0.48200  1.0000
  F   F8        1.0  0.58300  0.19700  0.51800  1.0000
  F   F9        1.0  0.78800  0.58600  0.59700  1.0000
  F   F10       1.0  0.94000  0.93900  0.65300  1.0000
  F   F11       1.0  0.35900  0.69100  0.77300  1.0000
  F   F12       1.0  0.52400  0.04490  0.82900  1.0000
  F   F13       1.0  0.71700  0.42600  0.90600  1.0000
  F   F14       1.0  0.89200  0.81600  0.94300  1.0000
  Pb  Pb1       1.0  0.83200  0.65800  0.22000  1.0000
  Pb  Pb2       1.0  0.16800  0.34200  0.78000  1.0000
