data_image0
_chemical_formula_structural       Cs2Te10U2Zr2
_chemical_formula_sum              "Cs2 Te10 U2 Zr2"
_cell_length_a       6.30735
_cell_length_b       8.63657
_cell_length_c       10.5825
_cell_angle_alpha    90
_cell_angle_beta     90
_cell_angle_gamma    90

_space_group_name_H-M_alt    "P 1"
_space_group_IT_number       1

loop_
  _space_group_symop_operation_xyz
  'x, y, z'

loop_
  _atom_site_type_symbol
  _atom_site_label
  _atom_site_symmetry_multiplicity
  _atom_site_fract_x
  _atom_site_fract_y
  _atom_site_fract_z
  _atom_site_occupancy
  Cs  Cs1       1.0  0.75000  0.50000  0.21400  1.0000
  Cs  Cs2       1.0  0.25000  0.50000  0.78600  1.0000
  Te  Te1       1.0  0.25000  0.24600  0.12100  1.0000
  Te  Te2       1.0  0.25000  0.75400  0.12100  1.0000
  Te  Te3       1.0  0.75000  0.00000  0.23300  1.0000
  Te  Te4       1.0  0.00000  0.24100  0.50000  1.0000
  Te  Te5       1.0  0.50000  0.24100  0.50000  1.0000
  Te  Te6       1.0  0.00000  0.75900  0.50000  1.0000
  Te  Te7       1.0  0.50000  0.75900  0.50000  1.0000
  Te  Te8       1.0  0.25000  0.00000  0.76700  1.0000
  Te  Te9       1.0  0.75000  0.24600  0.87900  1.0000
  Te  Te10      1.0  0.75000  0.75400  0.87900  1.0000
  U   U1        1.0  0.25000  0.00000  0.33400  1.0000
  U   U2        1.0  0.75000  0.00000  0.66600  1.0000
  Zr  Zr1       1.0  0.00000  0.00000  0.00000  1.0000
  Zr  Zr2       1.0  0.50000  0.00000  0.00000  1.0000
