data_image0
_chemical_formula_structural       Ba2CaCu2O8Tl2
_chemical_formula_sum              "Ba2 Ca1 Cu2 O8 Tl2"
_cell_length_a       3.83334
_cell_length_b       3.83334
_cell_length_c       15.1464
_cell_angle_alpha    97.2699
_cell_angle_beta     97.2699
_cell_angle_gamma    90

_space_group_name_H-M_alt    "P 1"
_space_group_IT_number       1

loop_
  _space_group_symop_operation_xyz
  'x, y, z'

loop_
  _atom_site_type_symbol
  _atom_site_label
  _atom_site_symmetry_multiplicity
  _atom_site_fract_x
  _atom_site_fract_y
  _atom_site_fract_z
  _atom_site_occupancy
  Ba  Ba1       1.0  0.11800  0.11800  0.23500  1.0000
  Ba  Ba2       1.0  0.88200  0.88200  0.76500  1.0000
  Ca  Ca1       1.0  0.00000  0.00000  0.00000  1.0000
  Cu  Cu1       1.0  0.55100  0.55100  0.10200  1.0000
  Cu  Cu2       1.0  0.44900  0.44900  0.89800  1.0000
  O   O1        1.0  0.55200  0.05180  0.10400  1.0000
  O   O2        1.0  0.05180  0.55200  0.10400  1.0000
  O   O3        1.0  0.64400  0.64400  0.28800  1.0000
  O   O4        1.0  0.21800  0.21800  0.43600  1.0000
  O   O5        1.0  0.78200  0.78200  0.56400  1.0000
  O   O6        1.0  0.35600  0.35600  0.71200  1.0000
  O   O7        1.0  0.94800  0.44800  0.89600  1.0000
  O   O8        1.0  0.44800  0.94800  0.89600  1.0000
  Tl  Tl1       1.0  0.71200  0.71200  0.42400  1.0000
  Tl  Tl2       1.0  0.28800  0.28800  0.57600  1.0000
