data_image0
_chemical_formula_structural       Cs4Ir2Na4O8
_chemical_formula_sum              "Cs4 Ir2 Na4 O8"
_cell_length_a       5.9001
_cell_length_b       6.65285
_cell_length_c       9.59088
_cell_angle_alpha    102.695
_cell_angle_beta     90
_cell_angle_gamma    116.323

_space_group_name_H-M_alt    "P 1"
_space_group_IT_number       1

loop_
  _space_group_symop_operation_xyz
  'x, y, z'

loop_
  _atom_site_type_symbol
  _atom_site_label
  _atom_site_symmetry_multiplicity
  _atom_site_fract_x
  _atom_site_fract_y
  _atom_site_fract_z
  _atom_site_occupancy
  Cs  Cs1       1.0  0.33800  0.67500  0.13800  1.0000
  Cs  Cs2       1.0  0.67200  0.34300  0.24100  1.0000
  Cs  Cs3       1.0  0.32800  0.65700  0.75900  1.0000
  Cs  Cs4       1.0  0.66200  0.32500  0.86200  1.0000
  Ir  Ir1       1.0  0.00000  0.00000  0.00000  1.0000
  Ir  Ir2       1.0  0.50000  0.00000  0.50000  1.0000
  Na  Na1       1.0  0.97500  0.94900  0.34300  1.0000
  Na  Na2       1.0  0.21600  0.43200  0.42600  1.0000
  Na  Na3       1.0  0.78400  0.56800  0.57400  1.0000
  Na  Na4       1.0  0.02540  0.05080  0.65700  1.0000
  O   O1        1.0  0.87300  0.74700  0.09340  1.0000
  O   O2        1.0  0.10600  0.21300  0.18900  1.0000
  O   O3        1.0  0.15000  0.76400  0.46800  1.0000
  O   O4        1.0  0.61300  0.76400  0.46800  1.0000
  O   O5        1.0  0.38700  0.23600  0.53200  1.0000
  O   O6        1.0  0.85000  0.23600  0.53200  1.0000
  O   O7        1.0  0.89400  0.78700  0.81100  1.0000
  O   O8        1.0  0.12700  0.25300  0.90700  1.0000
