data_image0
_chemical_formula_structural       C2F6Hg2O6S2
_chemical_formula_sum              "C2 F6 Hg2 O6 S2"
_cell_length_a       4.94127
_cell_length_b       9.72409
_cell_length_c       4.89185
_cell_angle_alpha    95.7574
_cell_angle_beta     94.1824
_cell_angle_gamma    93.3134

_space_group_name_H-M_alt    "P 1"
_space_group_IT_number       1

loop_
  _space_group_symop_operation_xyz
  'x, y, z'

loop_
  _atom_site_type_symbol
  _atom_site_label
  _atom_site_symmetry_multiplicity
  _atom_site_fract_x
  _atom_site_fract_y
  _atom_site_fract_z
  _atom_site_occupancy
  C   C1        1.0  0.22200  0.12100  0.33600  1.0000
  C   C2        1.0  0.77800  0.87900  0.66400  1.0000
  F   F1        1.0  0.99800  0.12200  0.16300  1.0000
  F   F2        1.0  0.36400  0.01340  0.25100  1.0000
  F   F3        1.0  0.84700  0.89000  0.40500  1.0000
  F   F4        1.0  0.15300  0.11000  0.59500  1.0000
  F   F5        1.0  0.63600  0.98700  0.74900  1.0000
  F   F6        1.0  0.00212  0.87800  0.83700  1.0000
  Hg  Hg1       1.0  0.12800  0.59300  0.16800  1.0000
  Hg  Hg2       1.0  0.87200  0.40700  0.83200  1.0000
  O   O1        1.0  0.45700  0.29900  0.04880  1.0000
  O   O2        1.0  0.27600  0.39000  0.48400  1.0000
  O   O3        1.0  0.68300  0.25700  0.49400  1.0000
  O   O4        1.0  0.31700  0.74300  0.50600  1.0000
  O   O5        1.0  0.72400  0.61000  0.51600  1.0000
  O   O6        1.0  0.54300  0.70100  0.95100  1.0000
  S   S1        1.0  0.42800  0.28600  0.33800  1.0000
  S   S2        1.0  0.57200  0.71400  0.66200  1.0000
