data_image0
_chemical_formula_structural       Fe5H12La
_chemical_formula_sum              "Fe5 H12 La1"
_cell_length_a       5.71078
_cell_length_b       5.71077
_cell_length_c       4.20264
_cell_angle_alpha    90
_cell_angle_beta     90
_cell_angle_gamma    120.007

_space_group_name_H-M_alt    "P 1"
_space_group_IT_number       1

loop_
  _space_group_symop_operation_xyz
  'x, y, z'

loop_
  _atom_site_type_symbol
  _atom_site_label
  _atom_site_symmetry_multiplicity
  _atom_site_fract_x
  _atom_site_fract_y
  _atom_site_fract_z
  _atom_site_occupancy
  Fe  Fe1       1.0  0.66700  0.33300  0.00000  1.0000
  Fe  Fe2       1.0  0.33300  0.66700  0.00000  1.0000
  Fe  Fe3       1.0  0.50000  0.00001  0.50000  1.0000
  Fe  Fe4       1.0  0.50000  0.50000  0.50000  1.0000
  Fe  Fe5       1.0  0.00001  0.50000  0.50000  1.0000
  H   H1        1.0  0.42200  0.21100  0.26600  1.0000
  H   H2        1.0  0.21100  0.42200  0.26600  1.0000
  H   H3        1.0  0.78900  0.57800  0.26600  1.0000
  H   H4        1.0  0.57800  0.78900  0.26600  1.0000
  H   H5        1.0  0.78900  0.21100  0.26600  1.0000
  H   H6        1.0  0.21100  0.78900  0.26600  1.0000
  H   H7        1.0  0.78900  0.21100  0.73400  1.0000
  H   H8        1.0  0.21100  0.78900  0.73400  1.0000
  H   H9        1.0  0.78900  0.57800  0.73400  1.0000
  H   H10       1.0  0.57800  0.78900  0.73400  1.0000
  H   H11       1.0  0.42200  0.21100  0.73400  1.0000
  H   H12       1.0  0.21100  0.42200  0.73400  1.0000
  La  La1       1.0  0.00000  0.00000  0.00000  1.0000
