data_image0
_chemical_formula_structural       Pb10Rh8
_chemical_formula_sum              "Pb10 Rh8"
_cell_length_a       5.74714
_cell_length_b       5.74714
_cell_length_c       13.7492
_cell_angle_alpha    96.0824
_cell_angle_beta     96.0824
_cell_angle_gamma    119.539

_space_group_name_H-M_alt    "P 1"
_space_group_IT_number       1

loop_
  _space_group_symop_operation_xyz
  'x, y, z'

loop_
  _atom_site_type_symbol
  _atom_site_label
  _atom_site_symmetry_multiplicity
  _atom_site_fract_x
  _atom_site_fract_y
  _atom_site_fract_z
  _atom_site_occupancy
  Pb  Pb1       1.0  0.83600  0.16400  0.00000  1.0000
  Pb  Pb2       1.0  0.16400  0.83600  0.00000  1.0000
  Pb  Pb3       1.0  0.58800  0.58800  0.17600  1.0000
  Pb  Pb4       1.0  0.00000  0.33300  0.33300  1.0000
  Pb  Pb5       1.0  0.33300  0.00000  0.33300  1.0000
  Pb  Pb6       1.0  0.71300  0.71300  0.42700  1.0000
  Pb  Pb7       1.0  0.28700  0.28700  0.57300  1.0000
  Pb  Pb8       1.0  0.66700  0.00032  0.66700  1.0000
  Pb  Pb9       1.0  0.00032  0.66700  0.66700  1.0000
  Pb  Pb10      1.0  0.41200  0.41200  0.82400  1.0000
  Rh  Rh1       1.0  0.58200  0.08170  0.16300  1.0000
  Rh  Rh2       1.0  0.08170  0.58200  0.16300  1.0000
  Rh  Rh3       1.0  0.08390  0.08390  0.16800  1.0000
  Rh  Rh4       1.0  0.75000  0.25000  0.50000  1.0000
  Rh  Rh5       1.0  0.25000  0.75000  0.50000  1.0000
  Rh  Rh6       1.0  0.91600  0.91600  0.83200  1.0000
  Rh  Rh7       1.0  0.91800  0.41800  0.83700  1.0000
  Rh  Rh8       1.0  0.41800  0.91800  0.83700  1.0000
