data_image0
_chemical_formula_structural       K4Pd6Se8
_chemical_formula_sum              "K4 Pd6 Se8"
_cell_length_a       6.39478
_cell_length_b       6.41139
_cell_length_c       13.6058
_cell_angle_alpha    96.7303
_cell_angle_beta     76.4082
_cell_angle_gamma    119.914

_space_group_name_H-M_alt    "P 1"
_space_group_IT_number       1

loop_
  _space_group_symop_operation_xyz
  'x, y, z'

loop_
  _atom_site_type_symbol
  _atom_site_label
  _atom_site_symmetry_multiplicity
  _atom_site_fract_x
  _atom_site_fract_y
  _atom_site_fract_z
  _atom_site_occupancy
  K   K1        1.0  0.44900  0.25000  0.10100  1.0000
  K   K2        1.0  0.30100  0.25000  0.39900  1.0000
  K   K3        1.0  0.69900  0.75000  0.60100  1.0000
  K   K4        1.0  0.55100  0.75000  0.89900  1.0000
  Pd  Pd1       1.0  0.87600  0.75000  0.24800  1.0000
  Pd  Pd2       1.0  0.87500  0.25000  0.25000  1.0000
  Pd  Pd3       1.0  0.37400  0.75000  0.25200  1.0000
  Pd  Pd4       1.0  0.62600  0.25000  0.74800  1.0000
  Pd  Pd5       1.0  0.12500  0.75000  0.75000  1.0000
  Pd  Pd6       1.0  0.12400  0.25000  0.75200  1.0000
  Se  Se1       1.0  0.11000  0.58300  0.12400  1.0000
  Se  Se2       1.0  0.76600  0.91700  0.12400  1.0000
  Se  Se3       1.0  0.97300  0.58300  0.37600  1.0000
  Se  Se4       1.0  0.65100  0.91700  0.37600  1.0000
  Se  Se5       1.0  0.34900  0.08300  0.62400  1.0000
  Se  Se6       1.0  0.02690  0.41700  0.62400  1.0000
  Se  Se7       1.0  0.23400  0.08300  0.87600  1.0000
  Se  Se8       1.0  0.89000  0.41700  0.87600  1.0000
