data_image0
_chemical_formula_structural       H6K2Li4O6
_chemical_formula_sum              "H6 K2 Li4 O6"
_cell_length_a       6.03497
_cell_length_b       5.55001
_cell_length_c       6.13014
_cell_angle_alpha    90
_cell_angle_beta     100.768
_cell_angle_gamma    90

_space_group_name_H-M_alt    "P 1"
_space_group_IT_number       1

loop_
  _space_group_symop_operation_xyz
  'x, y, z'

loop_
  _atom_site_type_symbol
  _atom_site_label
  _atom_site_symmetry_multiplicity
  _atom_site_fract_x
  _atom_site_fract_y
  _atom_site_fract_z
  _atom_site_occupancy
  H   H1        1.0  0.10200  0.75000  0.12800  1.0000
  H   H2        1.0  0.42700  0.25000  0.13100  1.0000
  H   H3        1.0  0.19100  0.75000  0.23300  1.0000
  H   H4        1.0  0.80900  0.25000  0.76700  1.0000
  H   H5        1.0  0.57300  0.75000  0.86900  1.0000
  H   H6        1.0  0.89800  0.25000  0.87200  1.0000
  K   K1        1.0  0.73500  0.75000  0.49500  1.0000
  K   K2        1.0  0.26500  0.25000  0.50500  1.0000
  Li  Li1       1.0  0.68500  0.05050  0.11600  1.0000
  Li  Li2       1.0  0.68500  0.44900  0.11600  1.0000
  Li  Li3       1.0  0.31500  0.55100  0.88400  1.0000
  Li  Li4       1.0  0.31500  0.94900  0.88400  1.0000
  O   O1        1.0  0.58700  0.75000  0.03310  1.0000
  O   O2        1.0  0.86800  0.25000  0.30900  1.0000
  O   O3        1.0  0.64200  0.25000  0.38500  1.0000
  O   O4        1.0  0.35800  0.75000  0.61500  1.0000
  O   O5        1.0  0.13200  0.75000  0.69100  1.0000
  O   O6        1.0  0.41300  0.25000  0.96700  1.0000
