data_image0
_chemical_formula_structural       Eu2I12U2
_chemical_formula_sum              "Eu2 I12 U2"
_cell_length_a       7.94539
_cell_length_b       7.94539
_cell_length_c       15.3407
_cell_angle_alpha    95.6486
_cell_angle_beta     95.6486
_cell_angle_gamma    119.588

_space_group_name_H-M_alt    "P 1"
_space_group_IT_number       1

loop_
  _space_group_symop_operation_xyz
  'x, y, z'

loop_
  _atom_site_type_symbol
  _atom_site_label
  _atom_site_symmetry_multiplicity
  _atom_site_fract_x
  _atom_site_fract_y
  _atom_site_fract_z
  _atom_site_occupancy
  Eu  Eu1       1.0  0.33300  0.66300  0.49900  1.0000
  Eu  Eu2       1.0  0.16300  0.83300  0.99900  1.0000
  I   I1        1.0  0.55800  0.20000  0.11500  1.0000
  I   I2        1.0  0.17600  0.52300  0.11600  1.0000
  I   I3        1.0  0.88600  0.91000  0.11700  1.0000
  I   I4        1.0  0.60700  0.58400  0.37900  1.0000
  I   I5        1.0  0.32200  0.97100  0.38000  1.0000
  I   I6        1.0  0.93900  0.29500  0.38300  1.0000
  I   I7        1.0  0.70000  0.05830  0.61500  1.0000
  I   I8        1.0  0.02260  0.67600  0.61600  1.0000
  I   I9        1.0  0.41000  0.38600  0.61700  1.0000
  I   I10       1.0  0.08410  0.10700  0.87900  1.0000
  I   I11       1.0  0.47100  0.82200  0.88000  1.0000
  I   I12       1.0  0.79500  0.43900  0.88300  1.0000
  U   U1        1.0  0.66600  0.32900  0.49800  1.0000
  U   U2        1.0  0.82900  0.16600  0.99800  1.0000
