data_image0
_chemical_formula_structural       I2Li2Mo2O12
_chemical_formula_sum              "I2 Li2 Mo2 O12"
_cell_length_a       5.40852
_cell_length_b       5.27911
_cell_length_c       8.88261
_cell_angle_alpha    90
_cell_angle_beta     107.099
_cell_angle_gamma    90

_space_group_name_H-M_alt    "P 1"
_space_group_IT_number       1

loop_
  _space_group_symop_operation_xyz
  'x, y, z'

loop_
  _atom_site_type_symbol
  _atom_site_label
  _atom_site_symmetry_multiplicity
  _atom_site_fract_x
  _atom_site_fract_y
  _atom_site_fract_z
  _atom_site_occupancy
  I   I1        1.0  0.37700  0.37900  0.33700  1.0000
  I   I2        1.0  0.62300  0.87900  0.66300  1.0000
  Li  Li1       1.0  0.00077  0.80600  0.41900  1.0000
  Li  Li2       1.0  0.99900  0.30600  0.58100  1.0000
  Mo  Mo1       1.0  0.76400  0.11400  0.03550  1.0000
  Mo  Mo2       1.0  0.23600  0.61400  0.96400  1.0000
  O   O1        1.0  0.50900  0.32300  0.04710  1.0000
  O   O2        1.0  0.02450  0.33700  0.05000  1.0000
  O   O3        1.0  0.36000  0.66900  0.21500  1.0000
  O   O4        1.0  0.85800  0.98000  0.22300  1.0000
  O   O5        1.0  0.11300  0.46100  0.41500  1.0000
  O   O6        1.0  0.65400  0.48700  0.49700  1.0000
  O   O7        1.0  0.34600  0.98700  0.50300  1.0000
  O   O8        1.0  0.88700  0.96100  0.58500  1.0000
  O   O9        1.0  0.14200  0.48000  0.77700  1.0000
  O   O10       1.0  0.64000  0.16900  0.78500  1.0000
  O   O11       1.0  0.97600  0.83700  0.95000  1.0000
  O   O12       1.0  0.49100  0.82300  0.95300  1.0000
