data_image0
_chemical_formula_structural       B2C8HgN8
_chemical_formula_sum              "B2 C8 Hg1 N8"
_cell_length_a       7.82838
_cell_length_b       7.82841
_cell_length_c       5.9035
_cell_angle_alpha    90
_cell_angle_beta     90.0007
_cell_angle_gamma    120

_space_group_name_H-M_alt    "P 1"
_space_group_IT_number       1

loop_
  _space_group_symop_operation_xyz
  'x, y, z'

loop_
  _atom_site_type_symbol
  _atom_site_label
  _atom_site_symmetry_multiplicity
  _atom_site_fract_x
  _atom_site_fract_y
  _atom_site_fract_z
  _atom_site_occupancy
  B   B1        1.0  0.66700  0.33300  0.37400  1.0000
  B   B2        1.0  0.33300  0.66700  0.62600  1.0000
  C   C1        1.0  0.44800  0.22400  0.28600  1.0000
  C   C2        1.0  0.77600  0.55200  0.28600  1.0000
  C   C3        1.0  0.77600  0.22400  0.28600  1.0000
  C   C4        1.0  0.33300  0.66700  0.35900  1.0000
  C   C5        1.0  0.66700  0.33300  0.64100  1.0000
  C   C6        1.0  0.22400  0.44800  0.71400  1.0000
  C   C7        1.0  0.22400  0.77600  0.71400  1.0000
  C   C8        1.0  0.55200  0.77600  0.71400  1.0000
  Hg  Hg1       1.0  0.00000  0.00000  0.00000  1.0000
  N   N1        1.0  0.33300  0.66700  0.16100  1.0000
  N   N2        1.0  0.28400  0.14200  0.23000  1.0000
  N   N3        1.0  0.85800  0.71600  0.23000  1.0000
  N   N4        1.0  0.85800  0.14200  0.23000  1.0000
  N   N5        1.0  0.14200  0.85800  0.77000  1.0000
  N   N6        1.0  0.14200  0.28400  0.77000  1.0000
  N   N7        1.0  0.71600  0.85800  0.77000  1.0000
  N   N8        1.0  0.66700  0.33300  0.83900  1.0000
