data_image0
_chemical_formula_structural       Ce2Fe15Ga2
_chemical_formula_sum              "Ce2 Fe15 Ga2"
_cell_length_a       6.50226
_cell_length_b       6.50226
_cell_length_c       6.50226
_cell_angle_alpha    97.2023
_cell_angle_beta     82.7977
_cell_angle_gamma    97.2023

_space_group_name_H-M_alt    "P 1"
_space_group_IT_number       1

loop_
  _space_group_symop_operation_xyz
  'x, y, z'

loop_
  _atom_site_type_symbol
  _atom_site_label
  _atom_site_symmetry_multiplicity
  _atom_site_fract_x
  _atom_site_fract_y
  _atom_site_fract_z
  _atom_site_occupancy
  Ce  Ce1       1.0  0.34700  0.65300  0.34700  1.0000
  Ce  Ce2       1.0  0.65300  0.34700  0.65300  1.0000
  Fe  Fe1       1.0  1.00000  0.50000  1.00000  1.0000
  Fe  Fe2       1.0  0.28800  0.28800  0.00000  1.0000
  Fe  Fe3       1.0  0.71200  0.71200  0.00000  1.0000
  Fe  Fe4       1.0  0.50000  1.00000  1.00000  1.0000
  Fe  Fe5       1.0  0.66000  0.34000  0.15500  1.0000
  Fe  Fe6       1.0  0.00000  0.28800  0.28800  1.0000
  Fe  Fe7       1.0  0.71200  1.00000  0.28800  1.0000
  Fe  Fe8       1.0  0.34000  0.15500  0.34000  1.0000
  Fe  Fe9       1.0  0.84500  0.66000  0.34000  1.0000
  Fe  Fe10      1.0  1.00000  1.00000  0.50000  1.0000
  Fe  Fe11      1.0  0.15500  0.34000  0.66000  1.0000
  Fe  Fe12      1.0  0.66000  0.84500  0.66000  1.0000
  Fe  Fe13      1.0  1.00000  0.71200  0.71200  1.0000
  Fe  Fe14      1.0  0.28800  1.00000  0.71200  1.0000
  Fe  Fe15      1.0  0.34000  0.66000  0.84500  1.0000
  Ga  Ga1       1.0  0.10300  0.89700  0.10300  1.0000
  Ga  Ga2       1.0  0.89700  0.10300  0.89700  1.0000
