data_image0
_chemical_formula_structural       Fe4K6O8
_chemical_formula_sum              "Fe4 K6 O8"
_cell_length_a       5.97187
_cell_length_b       6.42714
_cell_length_c       8.97388
_cell_angle_alpha    98.8927
_cell_angle_beta     70.565
_cell_angle_gamma    117.683

_space_group_name_H-M_alt    "P 1"
_space_group_IT_number       1

loop_
  _space_group_symop_operation_xyz
  'x, y, z'

loop_
  _atom_site_type_symbol
  _atom_site_label
  _atom_site_symmetry_multiplicity
  _atom_site_fract_x
  _atom_site_fract_y
  _atom_site_fract_z
  _atom_site_occupancy
  Fe  Fe1       1.0  0.18300  0.75000  0.13500  1.0000
  Fe  Fe2       1.0  0.56700  0.75000  0.36500  1.0000
  Fe  Fe3       1.0  0.43300  0.25000  0.63500  1.0000
  Fe  Fe4       1.0  0.81700  0.25000  0.86500  1.0000
  K   K1        1.0  0.23400  0.25000  0.03230  1.0000
  K   K2        1.0  0.62500  0.25000  0.25000  1.0000
  K   K3        1.0  0.01620  0.25000  0.46800  1.0000
  K   K4        1.0  0.98400  0.75000  0.53200  1.0000
  K   K5        1.0  0.37500  0.75000  0.75000  1.0000
  K   K6        1.0  0.76600  0.75000  0.96800  1.0000
  O   O1        1.0  0.50000  0.00000  0.00000  1.0000
  O   O2        1.0  1.00000  0.50000  0.00000  1.0000
  O   O3        1.0  0.30500  0.60900  0.25000  1.0000
  O   O4        1.0  0.94500  0.89100  0.25000  1.0000
  O   O5        1.0  0.50000  0.00000  0.50000  1.0000
  O   O6        1.0  0.50000  0.50000  0.50000  1.0000
  O   O7        1.0  0.05450  0.10900  0.75000  1.0000
  O   O8        1.0  0.69500  0.39100  0.75000  1.0000
