data_image0
_chemical_formula_structural       Sb8Zr10
_chemical_formula_sum              "Sb8 Zr10"
_cell_length_a       8.83869
_cell_length_b       8.83869
_cell_length_c       5.95872
_cell_angle_alpha    90
_cell_angle_beta     90
_cell_angle_gamma    120.001

_space_group_name_H-M_alt    "P 1"
_space_group_IT_number       1

loop_
  _space_group_symop_operation_xyz
  'x, y, z'

loop_
  _atom_site_type_symbol
  _atom_site_label
  _atom_site_symmetry_multiplicity
  _atom_site_fract_x
  _atom_site_fract_y
  _atom_site_fract_z
  _atom_site_occupancy
  Sb  Sb1       1.0  0.00000  0.00000  0.00000  1.0000
  Sb  Sb2       1.0  0.61100  0.00000  0.25000  1.0000
  Sb  Sb3       1.0  0.00000  0.61100  0.25000  1.0000
  Sb  Sb4       1.0  0.38900  0.38900  0.25000  1.0000
  Sb  Sb5       1.0  1.00000  1.00000  0.50000  1.0000
  Sb  Sb6       1.0  0.38900  1.00000  0.75000  1.0000
  Sb  Sb7       1.0  1.00000  0.38900  0.75000  1.0000
  Sb  Sb8       1.0  0.61100  0.61100  0.75000  1.0000
  Zr  Zr1       1.0  0.66700  0.33300  0.00000  1.0000
  Zr  Zr2       1.0  0.33300  0.66700  0.00000  1.0000
  Zr  Zr3       1.0  0.28100  1.00000  0.25000  1.0000
  Zr  Zr4       1.0  1.00000  0.28100  0.25000  1.0000
  Zr  Zr5       1.0  0.71900  0.71900  0.25000  1.0000
  Zr  Zr6       1.0  0.66700  0.33300  0.50000  1.0000
  Zr  Zr7       1.0  0.33300  0.66700  0.50000  1.0000
  Zr  Zr8       1.0  0.71900  0.00000  0.75000  1.0000
  Zr  Zr9       1.0  0.28100  0.28100  0.75000  1.0000
  Zr  Zr10      1.0  0.00000  0.71900  0.75000  1.0000
