data_image0
_chemical_formula_structural       Ge4Ru2Sm3
_chemical_formula_sum              "Ge4 Ru2 Sm3"
_cell_length_a       4.36929
_cell_length_b       5.9044
_cell_length_c       8.30487
_cell_angle_alpha    107.763
_cell_angle_beta     90
_cell_angle_gamma    111.716

_space_group_name_H-M_alt    "P 1"
_space_group_IT_number       1

loop_
  _space_group_symop_operation_xyz
  'x, y, z'

loop_
  _atom_site_type_symbol
  _atom_site_label
  _atom_site_symmetry_multiplicity
  _atom_site_fract_x
  _atom_site_fract_y
  _atom_site_fract_z
  _atom_site_occupancy
  Ge  Ge1       1.0  0.71400  0.42700  0.08040  1.0000
  Ge  Ge2       1.0  0.09870  0.19700  0.40200  1.0000
  Ge  Ge3       1.0  0.90100  0.80300  0.59700  1.0000
  Ge  Ge4       1.0  0.28600  0.57300  0.92000  1.0000
  Ru  Ru1       1.0  0.68500  0.37000  0.36100  1.0000
  Ru  Ru2       1.0  0.31500  0.63000  0.63900  1.0000
  Sm  Sm1       1.0  0.00000  0.00000  0.00000  1.0000
  Sm  Sm2       1.0  0.38000  0.76100  0.30300  1.0000
  Sm  Sm3       1.0  0.62000  0.23900  0.69700  1.0000
