data_image0
_chemical_formula_structural       C8Ca2O8
_chemical_formula_sum              "C8 Ca2 O8"
_cell_length_a       7.03432
_cell_length_b       6.82737
_cell_length_c       6.82737
_cell_angle_alpha    90
_cell_angle_beta     119.031
_cell_angle_gamma    119.031

_space_group_name_H-M_alt    "P 1"
_space_group_IT_number       1

loop_
  _space_group_symop_operation_xyz
  'x, y, z'

loop_
  _atom_site_type_symbol
  _atom_site_label
  _atom_site_symmetry_multiplicity
  _atom_site_fract_x
  _atom_site_fract_y
  _atom_site_fract_z
  _atom_site_occupancy
  C   C1        1.0  0.85100  0.92600  0.17600  1.0000
  C   C2        1.0  0.13100  0.06560  0.31600  1.0000
  C   C3        1.0  0.35100  0.67600  0.42600  1.0000
  C   C4        1.0  0.36900  0.18400  0.43400  1.0000
  C   C5        1.0  0.63100  0.81600  0.56600  1.0000
  C   C6        1.0  0.64900  0.32400  0.57400  1.0000
  C   C7        1.0  0.86900  0.93400  0.68400  1.0000
  C   C8        1.0  0.14900  0.07430  0.82400  1.0000
  Ca  Ca1       1.0  0.75000  0.37500  0.12500  1.0000
  Ca  Ca2       1.0  0.25000  0.62500  0.87500  1.0000
  O   O1        1.0  0.73200  0.02880  0.11600  1.0000
  O   O2        1.0  0.73200  0.70400  0.11600  1.0000
  O   O3        1.0  0.23200  0.61600  0.20400  1.0000
  O   O4        1.0  0.76800  0.38400  0.47100  1.0000
  O   O5        1.0  0.23200  0.61600  0.52900  1.0000
  O   O6        1.0  0.76800  0.38400  0.79600  1.0000
  O   O7        1.0  0.26800  0.29600  0.88400  1.0000
  O   O8        1.0  0.26800  0.97100  0.88400  1.0000
