data_image0
_chemical_formula_structural       Cs2Cu2La4Se8
_chemical_formula_sum              "Cs2 Cu2 La4 Se8"
_cell_length_a       4.34235
_cell_length_b       7.89106
_cell_length_c       14.8786
_cell_angle_alpha    90
_cell_angle_beta     90
_cell_angle_gamma    74.0294

_space_group_name_H-M_alt    "P 1"
_space_group_IT_number       1

loop_
  _space_group_symop_operation_xyz
  'x, y, z'

loop_
  _atom_site_type_symbol
  _atom_site_label
  _atom_site_symmetry_multiplicity
  _atom_site_fract_x
  _atom_site_fract_y
  _atom_site_fract_z
  _atom_site_occupancy
  Cs  Cs1       1.0  0.89500  0.21100  0.25000  1.0000
  Cs  Cs2       1.0  0.10500  0.78900  0.75000  1.0000
  Cu  Cu1       1.0  0.16500  0.67000  0.25000  1.0000
  Cu  Cu2       1.0  0.83500  0.33000  0.75000  1.0000
  La  La1       1.0  0.63500  0.73000  0.06100  1.0000
  La  La2       1.0  0.63500  0.73000  0.43900  1.0000
  La  La3       1.0  0.36500  0.27000  0.56100  1.0000
  La  La4       1.0  0.36500  0.27000  0.93900  1.0000
  Se  Se1       1.0  0.00000  0.00000  0.00000  1.0000
  Se  Se2       1.0  0.25900  0.48200  0.11200  1.0000
  Se  Se3       1.0  0.57900  0.84100  0.25000  1.0000
  Se  Se4       1.0  0.25900  0.48200  0.38800  1.0000
  Se  Se5       1.0  0.00000  0.00000  0.50000  1.0000
  Se  Se6       1.0  0.74100  0.51800  0.61200  1.0000
  Se  Se7       1.0  0.42100  0.15900  0.75000  1.0000
  Se  Se8       1.0  0.74100  0.51800  0.88800  1.0000
