data_image0
_chemical_formula_structural       Ca2F12Ga2Li2
_chemical_formula_sum              "Ca2 F12 Ga2 Li2"
_cell_length_a       5.01161
_cell_length_b       5.0117
_cell_length_c       9.53997
_cell_angle_alpha    89.999
_cell_angle_beta     90.0005
_cell_angle_gamma    120.001

_space_group_name_H-M_alt    "P 1"
_space_group_IT_number       1

loop_
  _space_group_symop_operation_xyz
  'x, y, z'

loop_
  _atom_site_type_symbol
  _atom_site_label
  _atom_site_symmetry_multiplicity
  _atom_site_fract_x
  _atom_site_fract_y
  _atom_site_fract_z
  _atom_site_occupancy
  Ca  Ca1       1.0  0.00000  0.00000  0.00000  1.0000
  Ca  Ca2       1.0  0.00000  0.00000  0.50000  1.0000
  F   F1        1.0  0.36500  0.01020  0.13700  1.0000
  F   F2        1.0  0.64500  0.63500  0.13700  1.0000
  F   F3        1.0  0.99000  0.35500  0.13700  1.0000
  F   F4        1.0  0.99000  0.63500  0.36300  1.0000
  F   F5        1.0  0.64500  0.01020  0.36300  1.0000
  F   F6        1.0  0.36500  0.35500  0.36300  1.0000
  F   F7        1.0  0.63500  0.64500  0.63700  1.0000
  F   F8        1.0  0.35500  0.99000  0.63700  1.0000
  F   F9        1.0  0.01020  0.36500  0.63700  1.0000
  F   F10       1.0  0.01020  0.64500  0.86300  1.0000
  F   F11       1.0  0.35500  0.36500  0.86300  1.0000
  F   F12       1.0  0.63500  0.99000  0.86300  1.0000
  Ga  Ga1       1.0  0.66700  0.33300  0.25000  1.0000
  Ga  Ga2       1.0  0.33300  0.66700  0.75000  1.0000
  Li  Li1       1.0  0.33300  0.66700  0.25000  1.0000
  Li  Li2       1.0  0.66700  0.33300  0.75000  1.0000
