data_image0
_chemical_formula_structural       Cu3Na7O8
_chemical_formula_sum              "Cu3 Na7 O8"
_cell_length_a       5.52184
_cell_length_b       6.05223
_cell_length_c       7.85918
_cell_angle_alpha    110.161
_cell_angle_beta     109.032
_cell_angle_gamma    90.7365

_space_group_name_H-M_alt    "P 1"
_space_group_IT_number       1

loop_
  _space_group_symop_operation_xyz
  'x, y, z'

loop_
  _atom_site_type_symbol
  _atom_site_label
  _atom_site_symmetry_multiplicity
  _atom_site_fract_x
  _atom_site_fract_y
  _atom_site_fract_z
  _atom_site_occupancy
  Cu  Cu1       1.0  0.00000  0.00000  0.00000  1.0000
  Cu  Cu2       1.0  0.74500  0.24900  0.23800  1.0000
  Cu  Cu3       1.0  0.25500  0.75100  0.76200  1.0000
  Na  Na1       1.0  0.74800  0.63300  0.05760  1.0000
  Na  Na2       1.0  0.37600  0.83700  0.29000  1.0000
  Na  Na3       1.0  0.28000  0.38800  0.38300  1.0000
  Na  Na4       1.0  1.00000  0.00000  0.50000  1.0000
  Na  Na5       1.0  0.72000  0.61200  0.61700  1.0000
  Na  Na6       1.0  0.62400  0.16300  0.71000  1.0000
  Na  Na7       1.0  0.25200  0.36700  0.94200  1.0000
  O   O1        1.0  0.87200  0.28300  0.05110  1.0000
  O   O2        1.0  0.96400  0.01160  0.22400  1.0000
  O   O3        1.0  0.57300  0.50300  0.25100  1.0000
  O   O4        1.0  0.65100  0.19400  0.42300  1.0000
  O   O5        1.0  0.34900  0.80600  0.57700  1.0000
  O   O6        1.0  0.42700  0.49700  0.74900  1.0000
  O   O7        1.0  0.03550  0.98800  0.77600  1.0000
  O   O8        1.0  0.12800  0.71700  0.94900  1.0000
