data_image0
_chemical_formula_structural       Ce4Cu10Zn4
_chemical_formula_sum              "Ce4 Cu10 Zn4"
_cell_length_a       5.29648
_cell_length_b       5.29648
_cell_length_c       13.096
_cell_angle_alpha    78.3334
_cell_angle_beta     90
_cell_angle_gamma    120

_space_group_name_H-M_alt    "P 1"
_space_group_IT_number       1

loop_
  _space_group_symop_operation_xyz
  'x, y, z'

loop_
  _atom_site_type_symbol
  _atom_site_label
  _atom_site_symmetry_multiplicity
  _atom_site_fract_x
  _atom_site_fract_y
  _atom_site_fract_z
  _atom_site_occupancy
  Ce  Ce1       1.0  0.94800  0.89500  0.15700  1.0000
  Ce  Ce2       1.0  0.85200  0.70500  0.44300  1.0000
  Ce  Ce3       1.0  0.14800  0.29500  0.55700  1.0000
  Ce  Ce4       1.0  0.05240  0.10500  0.84300  1.0000
  Cu  Cu1       1.0  0.61200  0.22300  0.16500  1.0000
  Cu  Cu2       1.0  0.27800  0.55500  0.16700  1.0000
  Cu  Cu3       1.0  0.89200  0.28300  0.32500  1.0000
  Cu  Cu4       1.0  0.39200  0.28300  0.32500  1.0000
  Cu  Cu5       1.0  0.39200  0.78400  0.32500  1.0000
  Cu  Cu6       1.0  0.60800  0.21600  0.67500  1.0000
  Cu  Cu7       1.0  0.60800  0.71700  0.67500  1.0000
  Cu  Cu8       1.0  0.10800  0.71700  0.67500  1.0000
  Cu  Cu9       1.0  0.72200  0.44500  0.83300  1.0000
  Cu  Cu10      1.0  0.38800  0.77700  0.83500  1.0000
  Zn  Zn1       1.0  0.00000  0.50000  0.00000  1.0000
  Zn  Zn2       1.0  0.50000  0.50000  0.00000  1.0000
  Zn  Zn3       1.0  0.50000  0.00000  0.00000  1.0000
  Zn  Zn4       1.0  0.50000  0.00000  0.50000  1.0000
