data_image0
_chemical_formula_structural       Lu12Ni4Sn2
_chemical_formula_sum              "Lu12 Ni4 Sn2"
_cell_length_a       8.21092
_cell_length_b       8.21092
_cell_length_c       8.21092
_cell_angle_alpha    112.566
_cell_angle_beta     105.77
_cell_angle_gamma    110.15

_space_group_name_H-M_alt    "P 1"
_space_group_IT_number       1

loop_
  _space_group_symop_operation_xyz
  'x, y, z'

loop_
  _atom_site_type_symbol
  _atom_site_label
  _atom_site_symmetry_multiplicity
  _atom_site_fract_x
  _atom_site_fract_y
  _atom_site_fract_z
  _atom_site_occupancy
  Lu  Lu1       1.0  0.32600  0.80700  0.13300  1.0000
  Lu  Lu2       1.0  0.18200  0.39000  0.20800  1.0000
  Lu  Lu3       1.0  0.81800  0.02520  0.20800  1.0000
  Lu  Lu4       1.0  0.55900  0.29300  0.26600  1.0000
  Lu  Lu5       1.0  0.97300  0.70700  0.26600  1.0000
  Lu  Lu6       1.0  0.67400  0.80700  0.48100  1.0000
  Lu  Lu7       1.0  0.32600  0.19300  0.51900  1.0000
  Lu  Lu8       1.0  0.02660  0.29300  0.73400  1.0000
  Lu  Lu9       1.0  0.44100  0.70700  0.73400  1.0000
  Lu  Lu10      1.0  0.18200  0.97500  0.79200  1.0000
  Lu  Lu11      1.0  0.81800  0.61000  0.79200  1.0000
  Lu  Lu12      1.0  0.67400  0.19300  0.86700  1.0000
  Ni  Ni1       1.0  0.12600  0.00000  0.12600  1.0000
  Ni  Ni2       1.0  0.35100  0.85100  0.50000  1.0000
  Ni  Ni3       1.0  0.64900  0.14900  0.50000  1.0000
  Ni  Ni4       1.0  0.87400  0.00000  0.87400  1.0000
  Sn  Sn1       1.0  0.50000  0.50000  0.00000  1.0000
  Sn  Sn2       1.0  0.00000  0.50000  0.50000  1.0000
