data_image0
_chemical_formula_structural       As6Cu4O2U4
_chemical_formula_sum              "As6 Cu4 O2 U4"
_cell_length_a       3.9489
_cell_length_b       3.9489
_cell_length_c       18.6031
_cell_angle_alpha    90
_cell_angle_beta     90
_cell_angle_gamma    90

_space_group_name_H-M_alt    "P 1"
_space_group_IT_number       1

loop_
  _space_group_symop_operation_xyz
  'x, y, z'

loop_
  _atom_site_type_symbol
  _atom_site_label
  _atom_site_symmetry_multiplicity
  _atom_site_fract_x
  _atom_site_fract_y
  _atom_site_fract_z
  _atom_site_occupancy
  As  As1       1.0  0.75000  0.75000  0.14400  1.0000
  As  As2       1.0  0.25000  0.25000  0.30900  1.0000
  As  As3       1.0  0.75000  0.25000  0.50000  1.0000
  As  As4       1.0  0.25000  0.75000  0.50000  1.0000
  As  As5       1.0  0.75000  0.75000  0.69100  1.0000
  As  As6       1.0  0.25000  0.25000  0.85600  1.0000
  Cu  Cu1       1.0  0.75000  0.25000  0.22400  1.0000
  Cu  Cu2       1.0  0.25000  0.75000  0.22400  1.0000
  Cu  Cu3       1.0  0.75000  0.25000  0.77600  1.0000
  Cu  Cu4       1.0  0.25000  0.75000  0.77600  1.0000
  O   O1        1.0  0.75000  0.25000  0.00000  1.0000
  O   O2        1.0  0.25000  0.75000  0.00000  1.0000
  U   U1        1.0  0.25000  0.25000  0.07200  1.0000
  U   U2        1.0  0.75000  0.75000  0.37100  1.0000
  U   U3        1.0  0.25000  0.25000  0.62900  1.0000
  U   U4        1.0  0.75000  0.75000  0.92800  1.0000
