data_image0
_chemical_formula_structural       H4Ni2O10Se2
_chemical_formula_sum              "H4 Ni2 O10 Se2"
_cell_length_a       5.07195
_cell_length_b       5.07195
_cell_length_c       7.95118
_cell_angle_alpha    109.851
_cell_angle_beta     109.851
_cell_angle_gamma    90.1917

_space_group_name_H-M_alt    "P 1"
_space_group_IT_number       1

loop_
  _space_group_symop_operation_xyz
  'x, y, z'

loop_
  _atom_site_type_symbol
  _atom_site_label
  _atom_site_symmetry_multiplicity
  _atom_site_fract_x
  _atom_site_fract_y
  _atom_site_fract_z
  _atom_site_occupancy
  H   H1        1.0  0.73500  0.99900  0.00421  1.0000
  H   H2        1.0  0.00111  0.26500  0.49600  1.0000
  H   H3        1.0  0.99900  0.73500  0.50400  1.0000
  H   H4        1.0  0.26500  0.00111  0.99600  1.0000
  Ni  Ni1       1.0  0.00000  0.50000  0.00000  1.0000
  Ni  Ni2       1.0  0.50000  0.00000  0.50000  1.0000
  O   O1        1.0  0.23400  0.19700  0.06590  1.0000
  O   O2        1.0  0.74400  0.35200  0.10600  1.0000
  O   O3        1.0  0.31600  0.68400  0.25000  1.0000
  O   O4        1.0  0.64800  0.25600  0.39400  1.0000
  O   O5        1.0  0.80300  0.76600  0.43400  1.0000
  O   O6        1.0  0.19700  0.23400  0.56600  1.0000
  O   O7        1.0  0.35200  0.74400  0.60600  1.0000
  O   O8        1.0  0.68400  0.31600  0.75000  1.0000
  O   O9        1.0  0.25600  0.64800  0.89400  1.0000
  O   O10       1.0  0.76600  0.80300  0.93400  1.0000
  Se  Se1       1.0  0.55800  0.44200  0.25000  1.0000
  Se  Se2       1.0  0.44200  0.55800  0.75000  1.0000
