data_image0
_chemical_formula_structural       Fe2Se10U4
_chemical_formula_sum              "Fe2 Se10 U4"
_cell_length_a       6.39868
_cell_length_b       7.30666
_cell_length_c       8.28354
_cell_angle_alpha    97.2386
_cell_angle_beta     112.72
_cell_angle_gamma    90

_space_group_name_H-M_alt    "P 1"
_space_group_IT_number       1

loop_
  _space_group_symop_operation_xyz
  'x, y, z'

loop_
  _atom_site_type_symbol
  _atom_site_label
  _atom_site_symmetry_multiplicity
  _atom_site_fract_x
  _atom_site_fract_y
  _atom_site_fract_z
  _atom_site_occupancy
  Fe  Fe1       1.0  0.50000  0.50000  0.50000  1.0000
  Fe  Fe2       1.0  1.00000  1.00000  0.50000  1.0000
  Se  Se1       1.0  0.90100  0.25000  0.00000  1.0000
  Se  Se2       1.0  0.09920  0.75000  0.00000  1.0000
  Se  Se3       1.0  0.47900  0.42700  0.18200  1.0000
  Se  Se4       1.0  0.70200  0.92700  0.18200  1.0000
  Se  Se5       1.0  0.13400  0.31300  0.44200  1.0000
  Se  Se6       1.0  0.30800  0.81300  0.44200  1.0000
  Se  Se7       1.0  0.69200  0.18700  0.55800  1.0000
  Se  Se8       1.0  0.86600  0.68700  0.55800  1.0000
  Se  Se9       1.0  0.29800  0.07350  0.81800  1.0000
  Se  Se10      1.0  0.52100  0.57300  0.81800  1.0000
  U   U1        1.0  0.90500  0.59100  0.21700  1.0000
  U   U2        1.0  0.31200  0.09100  0.21700  1.0000
  U   U3        1.0  0.09480  0.40900  0.78300  1.0000
  U   U4        1.0  0.68800  0.90900  0.78300  1.0000
