data_image0
_chemical_formula_structural       Fe2S10U4
_chemical_formula_sum              "Fe2 S10 U4"
_cell_length_a       6.01215
_cell_length_b       6.93422
_cell_length_c       7.83306
_cell_angle_alpha    96.9785
_cell_angle_beta     112.567
_cell_angle_gamma    90

_space_group_name_H-M_alt    "P 1"
_space_group_IT_number       1

loop_
  _space_group_symop_operation_xyz
  'x, y, z'

loop_
  _atom_site_type_symbol
  _atom_site_label
  _atom_site_symmetry_multiplicity
  _atom_site_fract_x
  _atom_site_fract_y
  _atom_site_fract_z
  _atom_site_occupancy
  Fe  Fe1       1.0  0.00000  1.00000  0.50000  1.0000
  Fe  Fe2       1.0  0.50000  0.50000  0.50000  1.0000
  S   S1        1.0  0.09530  0.75000  1.00000  1.0000
  S   S2        1.0  0.90500  0.25000  1.00000  1.0000
  S   S3        1.0  0.70800  0.92700  0.18300  1.0000
  S   S4        1.0  0.47500  0.42700  0.18300  1.0000
  S   S5        1.0  0.13500  0.30900  0.44200  1.0000
  S   S6        1.0  0.30700  0.80900  0.44200  1.0000
  S   S7        1.0  0.86500  0.69100  0.55800  1.0000
  S   S8        1.0  0.69300  0.19100  0.55800  1.0000
  S   S9        1.0  0.52500  0.57300  0.81700  1.0000
  S   S10       1.0  0.29200  0.07330  0.81700  1.0000
  U   U1        1.0  0.90300  0.58600  0.21800  1.0000
  U   U2        1.0  0.31500  0.08570  0.21800  1.0000
  U   U3        1.0  0.09710  0.41400  0.78200  1.0000
  U   U4        1.0  0.68500  0.91400  0.78200  1.0000
