data_image0
_chemical_formula_structural       Cr2La4O12
_chemical_formula_sum              "Cr2 La4 O12"
_cell_length_a       4.38101
_cell_length_b       7.4861
_cell_length_c       8.40561
_cell_angle_alpha    106.52
_cell_angle_beta     90
_cell_angle_gamma    107.014

_space_group_name_H-M_alt    "P 1"
_space_group_IT_number       1

loop_
  _space_group_symop_operation_xyz
  'x, y, z'

loop_
  _atom_site_type_symbol
  _atom_site_label
  _atom_site_symmetry_multiplicity
  _atom_site_fract_x
  _atom_site_fract_y
  _atom_site_fract_z
  _atom_site_occupancy
  Cr  Cr1       1.0  0.04340  1.00000  0.25000  1.0000
  Cr  Cr2       1.0  0.95700  0.00000  0.75000  1.0000
  La  La1       1.0  0.66200  0.33900  0.08470  1.0000
  La  La2       1.0  0.32300  0.66100  0.41500  1.0000
  La  La3       1.0  0.67700  0.33900  0.58500  1.0000
  La  La4       1.0  0.33800  0.66100  0.91500  1.0000
  O   O1        1.0  0.26700  0.99800  0.09010  1.0000
  O   O2        1.0  0.22300  0.48700  0.12200  1.0000
  O   O3        1.0  0.73200  0.80000  0.20100  1.0000
  O   O4        1.0  0.93200  0.20000  0.29900  1.0000
  O   O5        1.0  0.73600  0.51300  0.37800  1.0000
  O   O6        1.0  0.26900  0.00208  0.41000  1.0000
  O   O7        1.0  0.73100  0.99800  0.59000  1.0000
  O   O8        1.0  0.26400  0.48700  0.62200  1.0000
  O   O9        1.0  0.06760  0.80000  0.70100  1.0000
  O   O10       1.0  0.26800  0.20000  0.79900  1.0000
  O   O11       1.0  0.77700  0.51300  0.87800  1.0000
  O   O12       1.0  0.73300  0.00208  0.91000  1.0000
