data_image0
_chemical_formula_structural       BI12Zr6
_chemical_formula_sum              "B1 I12 Zr6"
_cell_length_a       11.1377
_cell_length_b       11.1377
_cell_length_c       11.1377
_cell_angle_alpha    110.285
_cell_angle_beta     110.285
_cell_angle_gamma    110.285

_space_group_name_H-M_alt    "P 1"
_space_group_IT_number       1

loop_
  _space_group_symop_operation_xyz
  'x, y, z'

loop_
  _atom_site_type_symbol
  _atom_site_label
  _atom_site_symmetry_multiplicity
  _atom_site_fract_x
  _atom_site_fract_y
  _atom_site_fract_z
  _atom_site_occupancy
  B   B1        1.0  0.00000  0.00000  0.00000  1.0000
  I   I1        1.0  0.18700  0.75400  0.05850  1.0000
  I   I2        1.0  0.75400  0.05850  0.18700  1.0000
  I   I3        1.0  0.26800  0.45400  0.20900  1.0000
  I   I4        1.0  0.94200  0.81300  0.24600  1.0000
  I   I5        1.0  0.45400  0.20900  0.26800  1.0000
  I   I6        1.0  0.20900  0.26800  0.45400  1.0000
  I   I7        1.0  0.79100  0.73200  0.54600  1.0000
  I   I8        1.0  0.54600  0.79100  0.73200  1.0000
  I   I9        1.0  0.05850  0.18700  0.75400  1.0000
  I   I10       1.0  0.73200  0.54600  0.79100  1.0000
  I   I11       1.0  0.24600  0.94200  0.81300  1.0000
  I   I12       1.0  0.81300  0.24600  0.94200  1.0000
  Zr  Zr1       1.0  0.20600  0.15900  0.00889  1.0000
  Zr  Zr2       1.0  0.00889  0.20600  0.15900  1.0000
  Zr  Zr3       1.0  0.15900  0.00889  0.20600  1.0000
  Zr  Zr4       1.0  0.84100  0.99100  0.79400  1.0000
  Zr  Zr5       1.0  0.99100  0.79400  0.84100  1.0000
  Zr  Zr6       1.0  0.79400  0.84100  0.99100  1.0000
