data_image0
_chemical_formula_structural       As8V12
_chemical_formula_sum              "As8 V12"
_cell_length_a       9.40872
_cell_length_b       9.40872
_cell_length_c       3.28536
_cell_angle_alpha    90
_cell_angle_beta     90
_cell_angle_gamma    90

_space_group_name_H-M_alt    "P 1"
_space_group_IT_number       1

loop_
  _space_group_symop_operation_xyz
  'x, y, z'

loop_
  _atom_site_type_symbol
  _atom_site_label
  _atom_site_symmetry_multiplicity
  _atom_site_fract_x
  _atom_site_fract_y
  _atom_site_fract_z
  _atom_site_occupancy
  As  As1       1.0  0.28600  0.03970  0.00000  1.0000
  As  As2       1.0  0.96000  0.28600  0.00000  1.0000
  As  As3       1.0  0.03970  0.71400  0.00000  1.0000
  As  As4       1.0  0.71400  0.96000  0.00000  1.0000
  As  As5       1.0  0.59000  0.24500  0.50000  1.0000
  As  As6       1.0  0.24500  0.41000  0.50000  1.0000
  As  As7       1.0  0.75500  0.59000  0.50000  1.0000
  As  As8       1.0  0.41000  0.75500  0.50000  1.0000
  V   V1        1.0  0.00000  0.00000  0.00000  1.0000
  V   V2        1.0  0.39800  0.28500  0.00000  1.0000
  V   V3        1.0  0.71500  0.39800  0.00000  1.0000
  V   V4        1.0  0.28500  0.60200  0.00000  1.0000
  V   V5        1.0  0.60200  0.71500  0.00000  1.0000
  V   V6        1.0  0.50000  0.00000  0.50000  1.0000
  V   V7        1.0  0.82200  0.13200  0.50000  1.0000
  V   V8        1.0  0.13200  0.17800  0.50000  1.0000
  V   V9        1.0  0.00000  0.50000  0.50000  1.0000
  V   V10       1.0  0.50000  0.50000  0.50000  1.0000
  V   V11       1.0  0.86800  0.82200  0.50000  1.0000
  V   V12       1.0  0.17800  0.86800  0.50000  1.0000
