data_image0
_chemical_formula_structural       Bi8Li12Mn12O48
_chemical_formula_sum              "Bi8 Li12 Mn12 O48"
_cell_length_a       10.3869
_cell_length_b       10.3869
_cell_length_c       10.3869
_cell_angle_alpha    109.471
_cell_angle_beta     109.471
_cell_angle_gamma    109.471

_space_group_name_H-M_alt    "P 1"
_space_group_IT_number       1

loop_
  _space_group_symop_operation_xyz
  'x, y, z'

loop_
  _atom_site_type_symbol
  _atom_site_label
  _atom_site_symmetry_multiplicity
  _atom_site_fract_x
  _atom_site_fract_y
  _atom_site_fract_z
  _atom_site_occupancy
  Bi  Bi1       1.0  0.00000  0.00000  0.00000  1.0000
  Bi  Bi2       1.0  0.50000  0.00000  0.00000  1.0000
  Bi  Bi3       1.0  0.00000  0.50000  0.00000  1.0000
  Bi  Bi4       1.0  0.50000  0.50000  0.00000  1.0000
  Bi  Bi5       1.0  0.00000  0.00000  0.50000  1.0000
  Bi  Bi6       1.0  0.50000  0.50000  0.50000  1.0000
  Bi  Bi7       1.0  0.50000  0.00000  0.50000  1.0000
  Bi  Bi8       1.0  0.00000  0.50000  0.50000  1.0000
  Li  Li1       1.0  0.75000  0.37500  0.12500  1.0000
  Li  Li2       1.0  0.87500  0.75000  0.12500  1.0000
  Li  Li3       1.0  0.12500  0.37500  0.25000  1.0000
  Li  Li4       1.0  0.62500  0.87500  0.25000  1.0000
  Li  Li5       1.0  0.62500  0.25000  0.37500  1.0000
  Li  Li6       1.0  0.25000  0.12500  0.37500  1.0000
  Li  Li7       1.0  0.75000  0.87500  0.62500  1.0000
  Li  Li8       1.0  0.37500  0.75000  0.62500  1.0000
  Li  Li9       1.0  0.37500  0.12500  0.75000  1.0000
  Li  Li10      1.0  0.87500  0.62500  0.75000  1.0000
  Li  Li11      1.0  0.12500  0.25000  0.87500  1.0000
  Li  Li12      1.0  0.25000  0.62500  0.87500  1.0000
  Mn  Mn1       1.0  0.25000  0.87500  0.12500  1.0000
  Mn  Mn2       1.0  0.37500  0.25000  0.12500  1.0000
  Mn  Mn3       1.0  0.37500  0.62500  0.25000  1.0000
  Mn  Mn4       1.0  0.87500  0.12500  0.25000  1.0000
  Mn  Mn5       1.0  0.75000  0.62500  0.37500  1.0000
  Mn  Mn6       1.0  0.12500  0.75000  0.37500  1.0000
  Mn  Mn7       1.0  0.25000  0.37500  0.62500  1.0000
  Mn  Mn8       1.0  0.87500  0.25000  0.62500  1.0000
  Mn  Mn9       1.0  0.12500  0.87500  0.75000  1.0000
  Mn  Mn10      1.0  0.62500  0.37500  0.75000  1.0000
  Mn  Mn11      1.0  0.75000  0.12500  0.87500  1.0000
  Mn  Mn12      1.0  0.62500  0.75000  0.87500  1.0000
  O   O1        1.0  0.23500  0.62600  0.05070  1.0000
  O   O2        1.0  0.31600  0.42500  0.05070  1.0000
  O   O3        1.0  0.62600  0.89100  0.07550  1.0000
  O   O4        1.0  0.94900  0.18400  0.07550  1.0000
  O   O5        1.0  0.87400  0.92500  0.10900  1.0000
  O   O6        1.0  0.73500  0.18400  0.10900  1.0000
  O   O7        1.0  0.05070  0.73500  0.12600  1.0000
  O   O8        1.0  0.57500  0.39100  0.12600  1.0000
  O   O9        1.0  0.44900  0.07550  0.18400  1.0000
  O   O10       1.0  0.23500  0.10900  0.18400  1.0000
  O   O11       1.0  0.12600  0.55100  0.23500  1.0000
  O   O12       1.0  0.60900  0.68400  0.23500  1.0000
  O   O13       1.0  0.44900  0.87400  0.26500  1.0000
  O   O14       1.0  0.31600  0.39100  0.26500  1.0000
  O   O15       1.0  0.89100  0.76500  0.31600  1.0000
  O   O16       1.0  0.92500  0.55100  0.31600  1.0000
  O   O17       1.0  0.60900  0.42500  0.37400  1.0000
  O   O18       1.0  0.26500  0.94900  0.37400  1.0000
  O   O19       1.0  0.07550  0.12600  0.39100  1.0000
  O   O20       1.0  0.81600  0.26500  0.39100  1.0000
  O   O21       1.0  0.81600  0.05070  0.42500  1.0000
  O   O22       1.0  0.10900  0.37400  0.42500  1.0000
  O   O23       1.0  0.57500  0.68400  0.44900  1.0000
  O   O24       1.0  0.37400  0.76500  0.44900  1.0000
  O   O25       1.0  0.62600  0.23500  0.55100  1.0000
  O   O26       1.0  0.42500  0.31600  0.55100  1.0000
  O   O27       1.0  0.89100  0.62600  0.57500  1.0000
  O   O28       1.0  0.18400  0.94900  0.57500  1.0000
  O   O29       1.0  0.18400  0.73500  0.60900  1.0000
  O   O30       1.0  0.92500  0.87400  0.60900  1.0000
  O   O31       1.0  0.39100  0.57500  0.62600  1.0000
  O   O32       1.0  0.73500  0.05070  0.62600  1.0000
  O   O33       1.0  0.10900  0.23500  0.68400  1.0000
  O   O34       1.0  0.07550  0.44900  0.68400  1.0000
  O   O35       1.0  0.68400  0.60900  0.73500  1.0000
  O   O36       1.0  0.55100  0.12600  0.73500  1.0000
  O   O37       1.0  0.87400  0.44900  0.76500  1.0000
  O   O38       1.0  0.39100  0.31600  0.76500  1.0000
  O   O39       1.0  0.76500  0.89100  0.81600  1.0000
  O   O40       1.0  0.55100  0.92500  0.81600  1.0000
  O   O41       1.0  0.94900  0.26500  0.87400  1.0000
  O   O42       1.0  0.42500  0.60900  0.87400  1.0000
  O   O43       1.0  0.12600  0.07550  0.89100  1.0000
  O   O44       1.0  0.26500  0.81600  0.89100  1.0000
  O   O45       1.0  0.37400  0.10900  0.92500  1.0000
  O   O46       1.0  0.05070  0.81600  0.92500  1.0000
  O   O47       1.0  0.76500  0.37400  0.94900  1.0000
  O   O48       1.0  0.68400  0.57500  0.94900  1.0000
