data_image0
_chemical_formula_structural       Mn4O12Se4
_chemical_formula_sum              "Mn4 O12 Se4"
_cell_length_a       6.05565
_cell_length_b       7.83183
_cell_length_c       5.15298
_cell_angle_alpha    90
_cell_angle_beta     90
_cell_angle_gamma    90

_space_group_name_H-M_alt    "P 1"
_space_group_IT_number       1

loop_
  _space_group_symop_operation_xyz
  'x, y, z'

loop_
  _atom_site_type_symbol
  _atom_site_label
  _atom_site_symmetry_multiplicity
  _atom_site_fract_x
  _atom_site_fract_y
  _atom_site_fract_z
  _atom_site_occupancy
  Mn  Mn1       1.0  0.50000  0.00000  0.00000  1.0000
  Mn  Mn2       1.0  0.50000  0.50000  0.00000  1.0000
  Mn  Mn3       1.0  0.00000  0.00000  0.50000  1.0000
  Mn  Mn4       1.0  0.00000  0.50000  0.50000  1.0000
  O   O1        1.0  0.82200  0.58100  0.13800  1.0000
  O   O2        1.0  0.82200  0.91900  0.13800  1.0000
  O   O3        1.0  0.57900  0.25000  0.18800  1.0000
  O   O4        1.0  0.07930  0.25000  0.31200  1.0000
  O   O5        1.0  0.32200  0.58100  0.36200  1.0000
  O   O6        1.0  0.32200  0.91900  0.36200  1.0000
  O   O7        1.0  0.67800  0.08090  0.63800  1.0000
  O   O8        1.0  0.67800  0.41900  0.63800  1.0000
  O   O9        1.0  0.92100  0.75000  0.68800  1.0000
  O   O10       1.0  0.42100  0.75000  0.81200  1.0000
  O   O11       1.0  0.17800  0.08090  0.86200  1.0000
  O   O12       1.0  0.17800  0.41900  0.86200  1.0000
  Se  Se1       1.0  0.98200  0.75000  0.01760  1.0000
  Se  Se2       1.0  0.48200  0.75000  0.48200  1.0000
  Se  Se3       1.0  0.51800  0.25000  0.51800  1.0000
  Se  Se4       1.0  0.01840  0.25000  0.98200  1.0000
