data_image0
_chemical_formula_structural       C4Eu4N8
_chemical_formula_sum              "C4 Eu4 N8"
_cell_length_a       12.5992
_cell_length_b       4.07301
_cell_length_c       4.72127
_cell_angle_alpha    90
_cell_angle_beta     90
_cell_angle_gamma    90

_space_group_name_H-M_alt    "P 1"
_space_group_IT_number       1

loop_
  _space_group_symop_operation_xyz
  'x, y, z'

loop_
  _atom_site_type_symbol
  _atom_site_label
  _atom_site_symmetry_multiplicity
  _atom_site_fract_x
  _atom_site_fract_y
  _atom_site_fract_z
  _atom_site_occupancy
  C   C1        1.0  0.31800  0.25000  0.20900  1.0000
  C   C2        1.0  0.81800  0.25000  0.29100  1.0000
  C   C3        1.0  0.18200  0.75000  0.70900  1.0000
  C   C4        1.0  0.68200  0.75000  0.79100  1.0000
  Eu  Eu1       1.0  0.10200  0.25000  0.21300  1.0000
  Eu  Eu2       1.0  0.60200  0.25000  0.28700  1.0000
  Eu  Eu3       1.0  0.39800  0.75000  0.71300  1.0000
  Eu  Eu4       1.0  0.89800  0.75000  0.78700  1.0000
  N   N1        1.0  0.39900  0.25000  0.02510  1.0000
  N   N2        1.0  0.90500  0.25000  0.12100  1.0000
  N   N3        1.0  0.40500  0.25000  0.37900  1.0000
  N   N4        1.0  0.89900  0.25000  0.47500  1.0000
  N   N5        1.0  0.10100  0.75000  0.52500  1.0000
  N   N6        1.0  0.59500  0.75000  0.62100  1.0000
  N   N7        1.0  0.09470  0.75000  0.87900  1.0000
  N   N8        1.0  0.60100  0.75000  0.97500  1.0000
