data_image0
_chemical_formula_structural       H16Si4
_chemical_formula_sum              "H16 Si4"
_cell_length_a       6.5625
_cell_length_b       4.37519
_cell_length_c       6.59269
_cell_angle_alpha    90.0146
_cell_angle_beta     104.152
_cell_angle_gamma    90.0237

_space_group_name_H-M_alt    "P 1"
_space_group_IT_number       1

loop_
  _space_group_symop_operation_xyz
  'x, y, z'

loop_
  _atom_site_type_symbol
  _atom_site_label
  _atom_site_symmetry_multiplicity
  _atom_site_fract_x
  _atom_site_fract_y
  _atom_site_fract_z
  _atom_site_occupancy
  H   H1        1.0  0.19800  0.08260  0.04610  1.0000
  H   H2        1.0  0.68700  0.39700  0.07840  1.0000
  H   H3        1.0  0.06090  0.57000  0.18300  1.0000
  H   H4        1.0  0.57500  0.91200  0.19600  1.0000
  H   H5        1.0  0.42500  0.41200  0.30400  1.0000
  H   H6        1.0  0.93900  0.07030  0.31700  1.0000
  H   H7        1.0  0.31300  0.89700  0.42200  1.0000
  H   H8        1.0  0.80200  0.58300  0.45400  1.0000
  H   H9        1.0  0.19800  0.41700  0.54600  1.0000
  H   H10       1.0  0.68700  0.10300  0.57800  1.0000
  H   H11       1.0  0.06090  0.93000  0.68300  1.0000
  H   H12       1.0  0.57500  0.58800  0.69600  1.0000
  H   H13       1.0  0.42500  0.08780  0.80400  1.0000
  H   H14       1.0  0.93900  0.43000  0.81700  1.0000
  H   H15       1.0  0.31300  0.60300  0.92200  1.0000
  H   H16       1.0  0.80200  0.91700  0.95400  1.0000
  Si  Si1       1.0  0.75100  0.07490  0.13600  1.0000
  Si  Si2       1.0  0.24900  0.57500  0.36400  1.0000
  Si  Si3       1.0  0.75100  0.42500  0.63600  1.0000
  Si  Si4       1.0  0.24900  0.92500  0.86400  1.0000
