data_image0
_chemical_formula_structural       Er4Mo6Si8
_chemical_formula_sum              "Er4 Mo6 Si8"
_cell_length_a       6.83781
_cell_length_b       6.71914
_cell_length_c       6.90302
_cell_angle_alpha    90
_cell_angle_beta     90
_cell_angle_gamma    108.95

_space_group_name_H-M_alt    "P 1"
_space_group_IT_number       1

loop_
  _space_group_symop_operation_xyz
  'x, y, z'

loop_
  _atom_site_type_symbol
  _atom_site_label
  _atom_site_symmetry_multiplicity
  _atom_site_fract_x
  _atom_site_fract_y
  _atom_site_fract_z
  _atom_site_occupancy
  Er  Er1       1.0  0.19100  0.06120  0.17100  1.0000
  Er  Er2       1.0  0.19100  0.56100  0.32900  1.0000
  Er  Er3       1.0  0.80900  0.43900  0.67100  1.0000
  Er  Er4       1.0  0.80900  0.93900  0.82900  1.0000
  Mo  Mo1       1.0  0.50000  0.50000  0.00000  1.0000
  Mo  Mo2       1.0  0.75200  0.25100  0.16300  1.0000
  Mo  Mo3       1.0  0.75200  0.75100  0.33700  1.0000
  Mo  Mo4       1.0  0.50000  1.00000  0.50000  1.0000
  Mo  Mo5       1.0  0.24800  0.24900  0.66300  1.0000
  Mo  Mo6       1.0  0.24800  0.74900  0.83700  1.0000
  Si  Si1       1.0  0.91100  0.63400  0.04380  1.0000
  Si  Si2       1.0  0.50400  0.87100  0.13100  1.0000
  Si  Si3       1.0  0.50400  0.37100  0.36900  1.0000
  Si  Si4       1.0  0.91100  0.13400  0.45600  1.0000
  Si  Si5       1.0  0.08920  0.86600  0.54400  1.0000
  Si  Si6       1.0  0.49600  0.62900  0.63100  1.0000
  Si  Si7       1.0  0.49600  0.12900  0.86900  1.0000
  Si  Si8       1.0  0.08920  0.36600  0.95600  1.0000
