data_image0
_chemical_formula_structural       O12Se4Zn4
_chemical_formula_sum              "O12 Se4 Zn4"
_cell_length_a       5.90589
_cell_length_b       7.63035
_cell_length_c       5.05884
_cell_angle_alpha    90
_cell_angle_beta     90
_cell_angle_gamma    90

_space_group_name_H-M_alt    "P 1"
_space_group_IT_number       1

loop_
  _space_group_symop_operation_xyz
  'x, y, z'

loop_
  _atom_site_type_symbol
  _atom_site_label
  _atom_site_symmetry_multiplicity
  _atom_site_fract_x
  _atom_site_fract_y
  _atom_site_fract_z
  _atom_site_occupancy
  O   O1        1.0  0.81700  0.57600  0.13900  1.0000
  O   O2        1.0  0.81700  0.92400  0.13900  1.0000
  O   O3        1.0  0.57700  0.25000  0.17900  1.0000
  O   O4        1.0  0.07700  0.25000  0.32100  1.0000
  O   O5        1.0  0.31700  0.57600  0.36100  1.0000
  O   O6        1.0  0.31700  0.92400  0.36100  1.0000
  O   O7        1.0  0.68300  0.07630  0.63900  1.0000
  O   O8        1.0  0.68300  0.42400  0.63900  1.0000
  O   O9        1.0  0.92300  0.75000  0.67900  1.0000
  O   O10       1.0  0.42300  0.75000  0.82100  1.0000
  O   O11       1.0  0.18300  0.07630  0.86100  1.0000
  O   O12       1.0  0.18300  0.42400  0.86100  1.0000
  Se  Se1       1.0  0.98200  0.75000  0.01680  1.0000
  Se  Se2       1.0  0.48200  0.75000  0.48300  1.0000
  Se  Se3       1.0  0.51800  0.25000  0.51700  1.0000
  Se  Se4       1.0  0.01780  0.25000  0.98300  1.0000
  Zn  Zn1       1.0  0.50000  0.00000  0.00000  1.0000
  Zn  Zn2       1.0  0.50000  0.50000  0.00000  1.0000
  Zn  Zn3       1.0  0.00000  0.00000  0.50000  1.0000
  Zn  Zn4       1.0  0.00000  0.50000  0.50000  1.0000
