data_image0
_chemical_formula_structural       Cu2H4O10S2
_chemical_formula_sum              "Cu2 H4 O10 S2"
_cell_length_a       5.00475
_cell_length_b       5.10643
_cell_length_c       7.5371
_cell_angle_alpha    109.681
_cell_angle_beta     109.209
_cell_angle_gamma    89.9486

_space_group_name_H-M_alt    "P 1"
_space_group_IT_number       1

loop_
  _space_group_symop_operation_xyz
  'x, y, z'

loop_
  _atom_site_type_symbol
  _atom_site_label
  _atom_site_symmetry_multiplicity
  _atom_site_fract_x
  _atom_site_fract_y
  _atom_site_fract_z
  _atom_site_occupancy
  Cu  Cu1       1.0  0.00000  0.00000  0.00000  1.0000
  Cu  Cu2       1.0  0.50000  0.50000  0.50000  1.0000
  H   H1        1.0  0.13900  0.58300  0.20200  1.0000
  H   H2        1.0  0.98900  0.48200  0.33100  1.0000
  H   H3        1.0  0.01070  0.51800  0.66900  1.0000
  H   H4        1.0  0.86100  0.41700  0.79800  1.0000
  O   O1        1.0  0.75300  0.82500  0.09820  1.0000
  O   O2        1.0  0.29500  0.83200  0.14300  1.0000
  O   O3        1.0  0.13800  0.44100  0.26500  1.0000
  O   O4        1.0  0.66800  0.23700  0.33100  1.0000
  O   O5        1.0  0.71100  0.79900  0.40300  1.0000
  O   O6        1.0  0.28900  0.20100  0.59700  1.0000
  O   O7        1.0  0.33200  0.76300  0.66900  1.0000
  O   O8        1.0  0.86200  0.55900  0.73500  1.0000
  O   O9        1.0  0.70500  0.16800  0.85700  1.0000
  O   O10       1.0  0.24700  0.17500  0.90200  1.0000
  S   S1        1.0  0.61000  0.92200  0.24600  1.0000
  S   S2        1.0  0.39000  0.07810  0.75400  1.0000
