data_image0
_chemical_formula_structural       Ba6Ni3Si9
_chemical_formula_sum              "Ba6 Ni3 Si9"
_cell_length_a       11.432
_cell_length_b       11.432
_cell_length_c       3.91983
_cell_angle_alpha    90
_cell_angle_beta     90
_cell_angle_gamma    120

_space_group_name_H-M_alt    "P 1"
_space_group_IT_number       1

loop_
  _space_group_symop_operation_xyz
  'x, y, z'

loop_
  _atom_site_type_symbol
  _atom_site_label
  _atom_site_symmetry_multiplicity
  _atom_site_fract_x
  _atom_site_fract_y
  _atom_site_fract_z
  _atom_site_occupancy
  Ba  Ba1       1.0  0.28700  1.00000  0.00000  1.0000
  Ba  Ba2       1.0  0.61800  0.00001  0.00000  1.0000
  Ba  Ba3       1.0  1.00000  0.28700  0.00000  1.0000
  Ba  Ba4       1.0  0.38200  0.38200  0.00000  1.0000
  Ba  Ba5       1.0  0.00001  0.61800  0.00000  1.0000
  Ba  Ba6       1.0  0.71300  0.71300  0.00000  1.0000
  Ni  Ni1       1.0  0.00000  0.00000  0.00000  1.0000
  Ni  Ni2       1.0  0.66700  0.33300  0.00000  1.0000
  Ni  Ni3       1.0  0.33300  0.66700  0.00000  1.0000
  Si  Si1       1.0  0.87600  1.00000  0.50000  1.0000
  Si  Si2       1.0  0.12400  0.12400  0.50000  1.0000
  Si  Si3       1.0  0.53600  0.22000  0.50000  1.0000
  Si  Si4       1.0  0.78000  0.31600  0.50000  1.0000
  Si  Si5       1.0  0.68400  0.46400  0.50000  1.0000
  Si  Si6       1.0  0.22000  0.53600  0.50000  1.0000
  Si  Si7       1.0  0.46400  0.68400  0.50000  1.0000
  Si  Si8       1.0  0.31600  0.78000  0.50000  1.0000
  Si  Si9       1.0  1.00000  0.87600  0.50000  1.0000
