data_image0
_chemical_formula_structural       Sb16Te3
_chemical_formula_sum              "Sb16 Te3"
_cell_length_a       4.37317
_cell_length_b       4.37316
_cell_length_c       36.9084
_cell_angle_alpha    86.6029
_cell_angle_beta     93.3964
_cell_angle_gamma    120

_space_group_name_H-M_alt    "P 1"
_space_group_IT_number       1

loop_
  _space_group_symop_operation_xyz
  'x, y, z'

loop_
  _atom_site_type_symbol
  _atom_site_label
  _atom_site_symmetry_multiplicity
  _atom_site_fract_x
  _atom_site_fract_y
  _atom_site_fract_z
  _atom_site_occupancy
  Sb  Sb1       1.0  0.68400  0.31600  0.05320  1.0000
  Sb  Sb2       1.0  0.05560  0.94400  0.16700  1.0000
  Sb  Sb3       1.0  0.73600  0.26400  0.20900  1.0000
  Sb  Sb4       1.0  0.42400  0.57600  0.27100  1.0000
  Sb  Sb5       1.0  0.10400  0.89600  0.31300  1.0000
  Sb  Sb6       1.0  0.79200  0.20800  0.37500  1.0000
  Sb  Sb7       1.0  0.47200  0.52800  0.41700  1.0000
  Sb  Sb8       1.0  0.16000  0.84000  0.47900  1.0000
  Sb  Sb9       1.0  0.84000  0.16000  0.52100  1.0000
  Sb  Sb10      1.0  0.52800  0.47200  0.58300  1.0000
  Sb  Sb11      1.0  0.20800  0.79200  0.62500  1.0000
  Sb  Sb12      1.0  0.89600  0.10400  0.68700  1.0000
  Sb  Sb13      1.0  0.57600  0.42400  0.72900  1.0000
  Sb  Sb14      1.0  0.26400  0.73600  0.79100  1.0000
  Sb  Sb15      1.0  0.94400  0.05560  0.83300  1.0000
  Sb  Sb16      1.0  0.31600  0.68400  0.94700  1.0000
  Te  Te1       1.0  0.00000  0.00000  0.00000  1.0000
  Te  Te2       1.0  0.36600  0.63400  0.09950  1.0000
  Te  Te3       1.0  0.63400  0.36600  0.90100  1.0000
