data_image0
_chemical_formula_structural       Ca2Cl2CuO10Te4
_chemical_formula_sum              "Ca2 Cl2 Cu1 O10 Te4"
_cell_length_a       5.37749
_cell_length_b       7.1987
_cell_length_c       8.57419
_cell_angle_alpha    69.9721
_cell_angle_beta     78.5492
_cell_angle_gamma    77.3925

_space_group_name_H-M_alt    "P 1"
_space_group_IT_number       1

loop_
  _space_group_symop_operation_xyz
  'x, y, z'

loop_
  _atom_site_type_symbol
  _atom_site_label
  _atom_site_symmetry_multiplicity
  _atom_site_fract_x
  _atom_site_fract_y
  _atom_site_fract_z
  _atom_site_occupancy
  Ca  Ca1       1.0  0.17900  0.10000  0.09830  1.0000
  Ca  Ca2       1.0  0.82100  0.90000  0.90200  1.0000
  Cl  Cl1       1.0  0.87700  0.40600  0.36100  1.0000
  Cl  Cl2       1.0  0.12300  0.59400  0.63900  1.0000
  Cu  Cu1       1.0  0.00000  1.00000  0.50000  1.0000
  O   O1        1.0  0.31900  0.40600  0.02200  1.0000
  O   O2        1.0  0.17000  0.80100  0.03620  1.0000
  O   O3        1.0  0.54600  0.82200  0.18200  1.0000
  O   O4        1.0  0.89400  0.95000  0.31800  1.0000
  O   O5        1.0  0.34700  0.05420  0.37400  1.0000
  O   O6        1.0  0.65300  0.94600  0.62600  1.0000
  O   O7        1.0  0.10600  0.04950  0.68200  1.0000
  O   O8        1.0  0.45400  0.17800  0.81800  1.0000
  O   O9        1.0  0.83000  0.19900  0.96400  1.0000
  O   O10       1.0  0.68100  0.59400  0.97800  1.0000
  Te  Te1       1.0  0.38300  0.58100  0.15500  1.0000
  Te  Te2       1.0  0.61000  0.81400  0.40300  1.0000
  Te  Te3       1.0  0.39000  0.18600  0.59700  1.0000
  Te  Te4       1.0  0.61700  0.41900  0.84500  1.0000
