data_image0
_chemical_formula_structural       Ca2Li2O10Ta3
_chemical_formula_sum              "Ca2 Li2 O10 Ta3"
_cell_length_a       3.94892
_cell_length_b       3.94892
_cell_length_c       13.3294
_cell_angle_alpha    98.5185
_cell_angle_beta     98.5185
_cell_angle_gamma    90

_space_group_name_H-M_alt    "P 1"
_space_group_IT_number       1

loop_
  _space_group_symop_operation_xyz
  'x, y, z'

loop_
  _atom_site_type_symbol
  _atom_site_label
  _atom_site_symmetry_multiplicity
  _atom_site_fract_x
  _atom_site_fract_y
  _atom_site_fract_z
  _atom_site_occupancy
  Ca  Ca1       1.0  0.58500  0.58500  0.17000  1.0000
  Ca  Ca2       1.0  0.41500  0.41500  0.83000  1.0000
  Li  Li1       1.0  0.75000  0.25000  0.50000  1.0000
  Li  Li2       1.0  0.25000  0.75000  0.50000  1.0000
  O   O1        1.0  0.50000  0.00000  0.00000  1.0000
  O   O2        1.0  0.00000  0.50000  0.00000  1.0000
  O   O3        1.0  0.07560  0.07560  0.15100  1.0000
  O   O4        1.0  0.64600  0.14600  0.29100  1.0000
  O   O5        1.0  0.14600  0.64600  0.29100  1.0000
  O   O6        1.0  0.22900  0.22900  0.45700  1.0000
  O   O7        1.0  0.77100  0.77100  0.54300  1.0000
  O   O8        1.0  0.85400  0.35400  0.70900  1.0000
  O   O9        1.0  0.35400  0.85400  0.70900  1.0000
  O   O10       1.0  0.92400  0.92400  0.84900  1.0000
  Ta  Ta1       1.0  0.00000  0.00000  0.00000  1.0000
  Ta  Ta2       1.0  0.15600  0.15600  0.31300  1.0000
  Ta  Ta3       1.0  0.84400  0.84400  0.68700  1.0000
