data_image0
_chemical_formula_structural       B6Fe12Nd
_chemical_formula_sum              "B6 Fe12 Nd1"
_cell_length_a       6.0643
_cell_length_b       6.0643
_cell_length_c       6.0643
_cell_angle_alpha    104.315
_cell_angle_beta     104.315
_cell_angle_gamma    104.315

_space_group_name_H-M_alt    "P 1"
_space_group_IT_number       1

loop_
  _space_group_symop_operation_xyz
  'x, y, z'

loop_
  _atom_site_type_symbol
  _atom_site_label
  _atom_site_symmetry_multiplicity
  _atom_site_fract_x
  _atom_site_fract_y
  _atom_site_fract_z
  _atom_site_occupancy
  B   B1        1.0  0.68600  0.23100  0.23100  1.0000
  B   B2        1.0  0.23100  0.68600  0.23100  1.0000
  B   B3        1.0  0.76900  0.76900  0.31400  1.0000
  B   B4        1.0  0.23100  0.23100  0.68600  1.0000
  B   B5        1.0  0.76900  0.31400  0.76900  1.0000
  B   B6        1.0  0.31400  0.76900  0.76900  1.0000
  Fe  Fe1       1.0  0.86900  0.50000  0.13100  1.0000
  Fe  Fe2       1.0  0.50000  0.86900  0.13100  1.0000
  Fe  Fe3       1.0  0.45600  0.45600  0.18800  1.0000
  Fe  Fe4       1.0  0.45600  0.18800  0.45600  1.0000
  Fe  Fe5       1.0  0.18800  0.45600  0.45600  1.0000
  Fe  Fe6       1.0  0.86900  0.13100  0.50000  1.0000
  Fe  Fe7       1.0  0.13100  0.86900  0.50000  1.0000
  Fe  Fe8       1.0  0.81200  0.54400  0.54400  1.0000
  Fe  Fe9       1.0  0.54400  0.81200  0.54400  1.0000
  Fe  Fe10      1.0  0.54400  0.54400  0.81200  1.0000
  Fe  Fe11      1.0  0.50000  0.13100  0.86900  1.0000
  Fe  Fe12      1.0  0.13100  0.50000  0.86900  1.0000
  Nd  Nd1       1.0  0.00000  0.00000  0.00000  1.0000
