data_image0
_chemical_formula_structural       Ba4S12Te4
_chemical_formula_sum              "Ba4 S12 Te4"
_cell_length_a       7.44955
_cell_length_b       6.98537
_cell_length_c       11.1414
_cell_angle_alpha    90
_cell_angle_beta     90
_cell_angle_gamma    90

_space_group_name_H-M_alt    "P 1"
_space_group_IT_number       1

loop_
  _space_group_symop_operation_xyz
  'x, y, z'

loop_
  _atom_site_type_symbol
  _atom_site_label
  _atom_site_symmetry_multiplicity
  _atom_site_fract_x
  _atom_site_fract_y
  _atom_site_fract_z
  _atom_site_occupancy
  Ba  Ba1       1.0  0.24300  0.75000  0.08660  1.0000
  Ba  Ba2       1.0  0.74300  0.75000  0.41300  1.0000
  Ba  Ba3       1.0  0.25700  0.25000  0.58700  1.0000
  Ba  Ba4       1.0  0.75700  0.25000  0.91300  1.0000
  S   S1        1.0  0.37000  0.25000  0.05710  1.0000
  S   S2        1.0  0.87600  0.51300  0.15900  1.0000
  S   S3        1.0  0.87600  0.98700  0.15900  1.0000
  S   S4        1.0  0.37600  0.51300  0.34100  1.0000
  S   S5        1.0  0.37600  0.98700  0.34100  1.0000
  S   S6        1.0  0.87000  0.25000  0.44300  1.0000
  S   S7        1.0  0.13000  0.75000  0.55700  1.0000
  S   S8        1.0  0.62400  0.01290  0.65900  1.0000
  S   S9        1.0  0.62400  0.48700  0.65900  1.0000
  S   S10       1.0  0.12400  0.01290  0.84100  1.0000
  S   S11       1.0  0.12400  0.48700  0.84100  1.0000
  S   S12       1.0  0.63000  0.75000  0.94300  1.0000
  Te  Te1       1.0  0.52600  0.25000  0.24500  1.0000
  Te  Te2       1.0  0.02650  0.25000  0.25500  1.0000
  Te  Te3       1.0  0.97400  0.75000  0.74500  1.0000
  Te  Te4       1.0  0.47400  0.75000  0.75500  1.0000
