data_image0
_chemical_formula_structural       Ca2Na2O10Ta3
_chemical_formula_sum              "Ca2 Na2 O10 Ta3"
_cell_length_a       3.94527
_cell_length_b       3.94527
_cell_length_c       14.4101
_cell_angle_alpha    97.8681
_cell_angle_beta     97.8681
_cell_angle_gamma    90

_space_group_name_H-M_alt    "P 1"
_space_group_IT_number       1

loop_
  _space_group_symop_operation_xyz
  'x, y, z'

loop_
  _atom_site_type_symbol
  _atom_site_label
  _atom_site_symmetry_multiplicity
  _atom_site_fract_x
  _atom_site_fract_y
  _atom_site_fract_z
  _atom_site_occupancy
  Ca  Ca1       1.0  0.57600  0.57600  0.15300  1.0000
  Ca  Ca2       1.0  0.42400  0.42400  0.84700  1.0000
  Na  Na1       1.0  0.71100  0.71100  0.42200  1.0000
  Na  Na2       1.0  0.28900  0.28900  0.57800  1.0000
  O   O1        1.0  0.50000  0.00000  0.00000  1.0000
  O   O2        1.0  0.00000  0.50000  0.00000  1.0000
  O   O3        1.0  0.06940  0.06940  0.13900  1.0000
  O   O4        1.0  0.63400  0.13400  0.26900  1.0000
  O   O5        1.0  0.13400  0.63400  0.26900  1.0000
  O   O6        1.0  0.21100  0.21100  0.42100  1.0000
  O   O7        1.0  0.78900  0.78900  0.57900  1.0000
  O   O8        1.0  0.86600  0.36600  0.73100  1.0000
  O   O9        1.0  0.36600  0.86600  0.73100  1.0000
  O   O10       1.0  0.93100  0.93100  0.86100  1.0000
  Ta  Ta1       1.0  0.00000  0.00000  0.00000  1.0000
  Ta  Ta2       1.0  0.14500  0.14500  0.29000  1.0000
  Ta  Ta3       1.0  0.85500  0.85500  0.71000  1.0000
