data_image0
_chemical_formula_structural       F12O3U3
_chemical_formula_sum              "F12 O3 U3"
_cell_length_a       5.34071
_cell_length_b       7.63915
_cell_length_c       7.63915
_cell_angle_alpha    114.742
_cell_angle_beta     103.476
_cell_angle_gamma    103.476

_space_group_name_H-M_alt    "P 1"
_space_group_IT_number       1

loop_
  _space_group_symop_operation_xyz
  'x, y, z'

loop_
  _atom_site_type_symbol
  _atom_site_label
  _atom_site_symmetry_multiplicity
  _atom_site_fract_x
  _atom_site_fract_y
  _atom_site_fract_z
  _atom_site_occupancy
  F   F1        1.0  0.61800  0.77700  1.00000  1.0000
  F   F2        1.0  0.14700  0.79900  0.00000  1.0000
  F   F3        1.0  0.18200  0.53300  0.19100  1.0000
  F   F4        1.0  0.34900  0.20100  0.20100  1.0000
  F   F5        1.0  0.84100  0.22300  0.22300  1.0000
  F   F6        1.0  0.99200  0.80900  0.34300  1.0000
  F   F7        1.0  0.64900  0.65700  0.46700  1.0000
  F   F8        1.0  0.18200  0.19100  0.53300  1.0000
  F   F9        1.0  0.64900  0.46700  0.65700  1.0000
  F   F10       1.0  0.61800  0.00000  0.77700  1.0000
  F   F11       1.0  0.14700  0.00000  0.79900  1.0000
  F   F12       1.0  0.99200  0.34300  0.80900  1.0000
  O   O1        1.0  0.58000  0.40600  1.00000  1.0000
  O   O2        1.0  0.58000  0.00000  0.40600  1.0000
  O   O3        1.0  0.17400  0.59400  0.59400  1.0000
  U   U1        1.0  0.85100  0.59500  1.00000  1.0000
  U   U2        1.0  0.25600  0.40500  0.40500  1.0000
  U   U3        1.0  0.85100  0.00000  0.59500  1.0000
