data_image0
_chemical_formula_structural       C4CaMg3O12
_chemical_formula_sum              "C4 Ca1 Mg3 O12"
_cell_length_a       6.05122
_cell_length_b       6.05122
_cell_length_c       6.05122
_cell_angle_alpha    103.438
_cell_angle_beta     103.438
_cell_angle_gamma    103.438

_space_group_name_H-M_alt    "P 1"
_space_group_IT_number       1

loop_
  _space_group_symop_operation_xyz
  'x, y, z'

loop_
  _atom_site_type_symbol
  _atom_site_label
  _atom_site_symmetry_multiplicity
  _atom_site_fract_x
  _atom_site_fract_y
  _atom_site_fract_z
  _atom_site_occupancy
  C   C1        1.0  0.50000  0.95700  0.04310  1.0000
  C   C2        1.0  0.50000  0.50000  0.50000  1.0000
  C   C3        1.0  0.95700  0.04310  0.50000  1.0000
  C   C4        1.0  0.04310  0.50000  0.95700  1.0000
  Ca  Ca1       1.0  0.00000  0.00000  0.00000  1.0000
  Mg  Mg1       1.0  0.54200  0.45800  1.00000  1.0000
  Mg  Mg2       1.0  1.00000  0.54200  0.45800  1.0000
  Mg  Mg3       1.0  0.45800  1.00000  0.54200  1.0000
  O   O1        1.0  0.62000  0.80700  0.02410  1.0000
  O   O2        1.0  0.90700  0.50000  0.09330  1.0000
  O   O3        1.0  0.38000  0.97600  0.19300  1.0000
  O   O4        1.0  0.63600  0.50000  0.36400  1.0000
  O   O5        1.0  0.97600  0.19300  0.38000  1.0000
  O   O6        1.0  0.36400  0.63600  0.50000  1.0000
  O   O7        1.0  0.09330  0.90700  0.50000  1.0000
  O   O8        1.0  0.80700  0.02420  0.62000  1.0000
  O   O9        1.0  0.50000  0.36400  0.63600  1.0000
  O   O10       1.0  0.02410  0.62000  0.80700  1.0000
  O   O11       1.0  0.50000  0.09330  0.90700  1.0000
  O   O12       1.0  0.19300  0.38000  0.97600  1.0000
