data_image0
_chemical_formula_structural       F10H8K2
_chemical_formula_sum              "F10 H8 K2"
_cell_length_a       7.33784
_cell_length_b       5.83741
_cell_length_c       5.83733
_cell_angle_alpha    90.0089
_cell_angle_beta     113.424
_cell_angle_gamma    113.438

_space_group_name_H-M_alt    "P 1"
_space_group_IT_number       1

loop_
  _space_group_symop_operation_xyz
  'x, y, z'

loop_
  _atom_site_type_symbol
  _atom_site_label
  _atom_site_symmetry_multiplicity
  _atom_site_fract_x
  _atom_site_fract_y
  _atom_site_fract_z
  _atom_site_occupancy
  F   F1        1.0  0.02440  0.75800  0.03430  1.0000
  F   F2        1.0  0.47600  0.51000  0.24200  1.0000
  F   F3        1.0  0.52400  0.03420  0.26700  1.0000
  F   F4        1.0  0.25000  0.62500  0.37500  1.0000
  F   F5        1.0  0.02440  0.26700  0.49000  1.0000
  F   F6        1.0  0.97600  0.73300  0.51000  1.0000
  F   F7        1.0  0.75000  0.37500  0.62500  1.0000
  F   F8        1.0  0.47600  0.96600  0.73300  1.0000
  F   F9        1.0  0.52400  0.49000  0.75800  1.0000
  F   F10       1.0  0.97600  0.24200  0.96600  1.0000
  H   H1        1.0  0.11600  0.70100  0.17500  1.0000
  H   H2        1.0  0.38400  0.55900  0.29900  1.0000
  H   H3        1.0  0.61600  0.17500  0.41500  1.0000
  H   H4        1.0  0.11600  0.41500  0.44100  1.0000
  H   H5        1.0  0.88400  0.58500  0.55900  1.0000
  H   H6        1.0  0.38400  0.82500  0.58500  1.0000
  H   H7        1.0  0.61600  0.44100  0.70100  1.0000
  H   H8        1.0  0.88400  0.29900  0.82500  1.0000
  K   K1        1.0  0.75000  0.87500  0.12500  1.0000
  K   K2        1.0  0.25000  0.12500  0.87500  1.0000
