data_image0
_chemical_formula_structural       Ca2H4MnO10P2
_chemical_formula_sum              "Ca2 H4 Mn1 O10 P2"
_cell_length_a       5.73342
_cell_length_b       6.51481
_cell_length_c       5.48442
_cell_angle_alpha    102.457
_cell_angle_beta     108.566
_cell_angle_gamma    90.1127

_space_group_name_H-M_alt    "P 1"
_space_group_IT_number       1

loop_
  _space_group_symop_operation_xyz
  'x, y, z'

loop_
  _atom_site_type_symbol
  _atom_site_label
  _atom_site_symmetry_multiplicity
  _atom_site_fract_x
  _atom_site_fract_y
  _atom_site_fract_z
  _atom_site_occupancy
  Ca  Ca1       1.0  0.60000  0.23300  0.33200  1.0000
  Ca  Ca2       1.0  0.40000  0.76700  0.66800  1.0000
  H   H1        1.0  0.28400  0.65600  0.08380  1.0000
  H   H2        1.0  0.93300  0.44000  0.19100  1.0000
  H   H3        1.0  0.06680  0.56000  0.80900  1.0000
  H   H4        1.0  0.71600  0.34400  0.91600  1.0000
  Mn  Mn1       1.0  0.00000  0.00000  0.00000  1.0000
  O   O1        1.0  0.84400  0.30300  0.06730  1.0000
  O   O2        1.0  0.69100  0.88200  0.11800  1.0000
  O   O3        1.0  0.53900  0.59800  0.30100  1.0000
  O   O4        1.0  0.99997  0.66900  0.38300  1.0000
  O   O5        1.0  0.24800  0.06780  0.39700  1.0000
  O   O6        1.0  0.75200  0.93200  0.60300  1.0000
  O   O7        1.0  0.00003  0.33100  0.61700  1.0000
  O   O8        1.0  0.46100  0.40200  0.69900  1.0000
  O   O9        1.0  0.30900  0.11800  0.88200  1.0000
  O   O10       1.0  0.15600  0.69700  0.93300  1.0000
  P   P1        1.0  0.75300  0.76600  0.35000  1.0000
  P   P2        1.0  0.24700  0.23400  0.65000  1.0000
