data_image0
_chemical_formula_structural       Cr2Na2O12Si4
_chemical_formula_sum              "Cr2 Na2 O12 Si4"
_cell_length_a       5.27242
_cell_length_b       6.47612
_cell_length_c       6.47612
_cell_angle_alpha    95.4278
_cell_angle_beta     102.761
_cell_angle_gamma    77.2393

_space_group_name_H-M_alt    "P 1"
_space_group_IT_number       1

loop_
  _space_group_symop_operation_xyz
  'x, y, z'

loop_
  _atom_site_type_symbol
  _atom_site_label
  _atom_site_symmetry_multiplicity
  _atom_site_fract_x
  _atom_site_fract_y
  _atom_site_fract_z
  _atom_site_occupancy
  Cr  Cr1       1.0  0.75000  0.09190  0.09190  1.0000
  Cr  Cr2       1.0  0.25000  0.90800  0.90800  1.0000
  Na  Na1       1.0  0.25000  0.30100  0.30100  1.0000
  Na  Na2       1.0  0.75000  0.69900  0.69900  1.0000
  O   O1        1.0  0.63900  0.80500  0.03210  1.0000
  O   O2        1.0  0.80800  0.38100  0.09770  1.0000
  O   O3        1.0  0.13900  0.96800  0.19500  1.0000
  O   O4        1.0  0.50700  0.63200  0.34300  1.0000
  O   O5        1.0  0.00736  0.65700  0.36800  1.0000
  O   O6        1.0  0.69200  0.09770  0.38100  1.0000
  O   O7        1.0  0.30800  0.90200  0.61900  1.0000
  O   O8        1.0  0.99300  0.34300  0.63200  1.0000
  O   O9        1.0  0.49300  0.36800  0.65700  1.0000
  O   O10       1.0  0.86100  0.03210  0.80500  1.0000
  O   O11       1.0  0.19200  0.61900  0.90200  1.0000
  O   O12       1.0  0.36100  0.19500  0.96800  1.0000
  Si  Si1       1.0  0.73500  0.61500  0.20100  1.0000
  Si  Si2       1.0  0.23500  0.79900  0.38500  1.0000
  Si  Si3       1.0  0.76500  0.20100  0.61500  1.0000
  Si  Si4       1.0  0.26500  0.38500  0.79900  1.0000
