data_image0
_chemical_formula_structural       B5CaClH2O10Sr
_chemical_formula_sum              "B5 Ca1 Cl1 H2 O10 Sr1"
_cell_length_a       6.58
_cell_length_b       6.43143
_cell_length_c       6.36167
_cell_angle_alpha    60.8003
_cell_angle_beta     61.3732
_cell_angle_gamma    77.6816

_space_group_name_H-M_alt    "P 1"
_space_group_IT_number       1

loop_
  _space_group_symop_operation_xyz
  'x, y, z'

loop_
  _atom_site_type_symbol
  _atom_site_label
  _atom_site_symmetry_multiplicity
  _atom_site_fract_x
  _atom_site_fract_y
  _atom_site_fract_z
  _atom_site_occupancy
  B   B1        1.0  0.16200  0.50000  0.00280  1.0000
  B   B2        1.0  0.22500  0.27200  0.40600  1.0000
  B   B3        1.0  0.82700  0.39400  0.44000  1.0000
  B   B4        1.0  0.37600  0.35800  0.64900  1.0000
  B   B5        1.0  0.26700  0.94300  0.78900  1.0000
  Ca  Ca1       1.0  0.25700  0.83700  0.30200  1.0000
  Cl  Cl1       1.0  0.79200  0.87600  0.54400  1.0000
  H   H1        1.0  0.73300  0.83100  0.22700  1.0000
  H   H2        1.0  0.75900  0.89300  0.94100  1.0000
  O   O1        1.0  0.67000  0.92800  0.09550  1.0000
  O   O2        1.0  0.27700  0.30200  0.14500  1.0000
  O   O3        1.0  0.90200  0.47000  0.17100  1.0000
  O   O4        1.0  0.38800  0.41100  0.39100  1.0000
  O   O5        1.0  0.98400  0.33400  0.54600  1.0000
  O   O6        1.0  0.25200  0.01220  0.55700  1.0000
  O   O7        1.0  0.60400  0.39800  0.61600  1.0000
  O   O8        1.0  0.20800  0.51700  0.74900  1.0000
  O   O9        1.0  0.30300  0.10600  0.84900  1.0000
  O   O10       1.0  0.23000  0.71500  0.98800  1.0000
  Sr  Sr1       1.0  0.71300  0.37800  0.96700  1.0000
