data_image0
_chemical_formula_structural       Bi4O12V2
_chemical_formula_sum              "Bi4 O12 V2"
_cell_length_a       5.45169
_cell_length_b       5.46452
_cell_length_c       8.15166
_cell_angle_alpha    90
_cell_angle_beta     70.4645
_cell_angle_gamma    90

_space_group_name_H-M_alt    "P 1"
_space_group_IT_number       1

loop_
  _space_group_symop_operation_xyz
  'x, y, z'

loop_
  _atom_site_type_symbol
  _atom_site_label
  _atom_site_symmetry_multiplicity
  _atom_site_fract_x
  _atom_site_fract_y
  _atom_site_fract_z
  _atom_site_occupancy
  Bi  Bi1       1.0  0.80800  0.51300  0.33000  1.0000
  Bi  Bi2       1.0  0.30800  0.98700  0.33000  1.0000
  Bi  Bi3       1.0  0.63800  0.01330  0.67000  1.0000
  Bi  Bi4       1.0  0.13800  0.48700  0.67000  1.0000
  O   O1        1.0  0.13200  0.23200  0.06560  1.0000
  O   O2        1.0  0.63200  0.26800  0.06560  1.0000
  O   O3        1.0  0.27000  0.59900  0.21700  1.0000
  O   O4        1.0  0.77000  0.90100  0.21700  1.0000
  O   O5        1.0  0.45600  0.24600  0.48800  1.0000
  O   O6        1.0  0.95600  0.25400  0.48800  1.0000
  O   O7        1.0  0.44400  0.74600  0.51200  1.0000
  O   O8        1.0  0.94400  0.75400  0.51200  1.0000
  O   O9        1.0  0.98800  0.09910  0.78300  1.0000
  O   O10       1.0  0.48800  0.40100  0.78300  1.0000
  O   O11       1.0  0.69700  0.73200  0.93400  1.0000
  O   O12       1.0  0.19700  0.76800  0.93400  1.0000
  V   V1        1.0  0.96500  0.00000  0.00000  1.0000
  V   V2        1.0  0.46500  0.50000  0.00000  1.0000
