data_image0
_chemical_formula_structural       Br12Cd4Rb4
_chemical_formula_sum              "Br12 Cd4 Rb4"
_cell_length_a       9.56205
_cell_length_b       4.26464
_cell_length_c       15.8678
_cell_angle_alpha    90
_cell_angle_beta     90
_cell_angle_gamma    90

_space_group_name_H-M_alt    "P 1"
_space_group_IT_number       1

loop_
  _space_group_symop_operation_xyz
  'x, y, z'

loop_
  _atom_site_type_symbol
  _atom_site_label
  _atom_site_symmetry_multiplicity
  _atom_site_fract_x
  _atom_site_fract_y
  _atom_site_fract_z
  _atom_site_occupancy
  Br  Br1       1.0  0.66800  0.25000  0.00530  1.0000
  Br  Br2       1.0  0.97200  0.75000  0.10200  1.0000
  Br  Br3       1.0  0.28300  0.25000  0.21000  1.0000
  Br  Br4       1.0  0.78300  0.25000  0.29000  1.0000
  Br  Br5       1.0  0.47200  0.75000  0.39800  1.0000
  Br  Br6       1.0  0.16800  0.25000  0.49500  1.0000
  Br  Br7       1.0  0.83200  0.75000  0.50500  1.0000
  Br  Br8       1.0  0.52800  0.25000  0.60200  1.0000
  Br  Br9       1.0  0.21700  0.75000  0.71000  1.0000
  Br  Br10      1.0  0.71700  0.75000  0.79000  1.0000
  Br  Br11      1.0  0.02790  0.25000  0.89800  1.0000
  Br  Br12      1.0  0.33200  0.75000  0.99500  1.0000
  Cd  Cd1       1.0  0.16500  0.25000  0.05620  1.0000
  Cd  Cd2       1.0  0.66500  0.25000  0.44400  1.0000
  Cd  Cd3       1.0  0.33500  0.75000  0.55600  1.0000
  Cd  Cd4       1.0  0.83500  0.75000  0.94400  1.0000
  Rb  Rb1       1.0  0.56900  0.75000  0.17400  1.0000
  Rb  Rb2       1.0  0.06950  0.75000  0.32600  1.0000
  Rb  Rb3       1.0  0.93100  0.25000  0.67400  1.0000
  Rb  Rb4       1.0  0.43100  0.25000  0.82600  1.0000
