data_image0
_chemical_formula_structural       Au4Cs4S8Sn2
_chemical_formula_sum              "Au4 Cs4 S8 Sn2"
_cell_length_a       6.24147
_cell_length_b       7.97107
_cell_length_c       13.0468
_cell_angle_alpha    95.3734
_cell_angle_beta     103.839
_cell_angle_gamma    66.9517

_space_group_name_H-M_alt    "P 1"
_space_group_IT_number       1

loop_
  _space_group_symop_operation_xyz
  'x, y, z'

loop_
  _atom_site_type_symbol
  _atom_site_label
  _atom_site_symmetry_multiplicity
  _atom_site_fract_x
  _atom_site_fract_y
  _atom_site_fract_z
  _atom_site_occupancy
  Au  Au1       1.0  0.81200  0.25000  0.12400  1.0000
  Au  Au2       1.0  0.93800  0.25000  0.37600  1.0000
  Au  Au3       1.0  0.06220  0.75000  0.62400  1.0000
  Au  Au4       1.0  0.18800  0.75000  0.87600  1.0000
  Cs  Cs1       1.0  0.80600  0.75000  0.11200  1.0000
  Cs  Cs2       1.0  0.44400  0.75000  0.38800  1.0000
  Cs  Cs3       1.0  0.55600  0.25000  0.61200  1.0000
  Cs  Cs4       1.0  0.19400  0.25000  0.88800  1.0000
  S   S1        1.0  0.20700  0.05090  0.13300  1.0000
  S   S2        1.0  0.42600  0.44900  0.13300  1.0000
  S   S3        1.0  0.12500  0.44900  0.36700  1.0000
  S   S4        1.0  0.74200  0.05090  0.36700  1.0000
  S   S5        1.0  0.25800  0.94900  0.63300  1.0000
  S   S6        1.0  0.87500  0.55100  0.63300  1.0000
  S   S7        1.0  0.57400  0.55100  0.86700  1.0000
  S   S8        1.0  0.79300  0.94900  0.86700  1.0000
  Sn  Sn1       1.0  0.37500  0.25000  0.25000  1.0000
  Sn  Sn2       1.0  0.62500  0.75000  0.75000  1.0000
