data_image0
_chemical_formula_structural       Te12U7
_chemical_formula_sum              "Te12 U7"
_cell_length_a       12.4245
_cell_length_b       12.4245
_cell_length_c       4.18687
_cell_angle_alpha    90
_cell_angle_beta     90
_cell_angle_gamma    120

_space_group_name_H-M_alt    "P 1"
_space_group_IT_number       1

loop_
  _space_group_symop_operation_xyz
  'x, y, z'

loop_
  _atom_site_type_symbol
  _atom_site_label
  _atom_site_symmetry_multiplicity
  _atom_site_fract_x
  _atom_site_fract_y
  _atom_site_fract_z
  _atom_site_occupancy
  Te  Te1       1.0  0.00764  0.25500  0.00000  1.0000
  Te  Te2       1.0  0.37100  0.50800  0.00000  1.0000
  Te  Te3       1.0  0.13700  0.62900  0.00000  1.0000
  Te  Te4       1.0  0.74500  0.75200  0.00000  1.0000
  Te  Te5       1.0  0.49200  0.86300  0.00000  1.0000
  Te  Te6       1.0  0.24800  0.99200  0.00000  1.0000
  Te  Te7       1.0  0.79000  0.00286  0.50000  1.0000
  Te  Te8       1.0  0.52400  0.14000  0.50000  1.0000
  Te  Te9       1.0  0.21300  0.21000  0.50000  1.0000
  Te  Te10      1.0  0.86000  0.38400  0.50000  1.0000
  Te  Te11      1.0  0.61600  0.47600  0.50000  1.0000
  Te  Te12      1.0  0.99700  0.78700  0.50000  1.0000
  U   U1        1.0  0.00000  0.00000  0.00000  1.0000
  U   U2        1.0  0.72200  0.15400  0.00000  1.0000
  U   U3        1.0  0.43200  0.27800  0.00000  1.0000
  U   U4        1.0  0.84600  0.56800  0.00000  1.0000
  U   U5        1.0  0.15900  0.45100  0.50000  1.0000
  U   U6        1.0  0.54900  0.70800  0.50000  1.0000
  U   U7        1.0  0.29200  0.84100  0.50000  1.0000
