data_image0
_chemical_formula_structural       Ca2F12Li2Ni2
_chemical_formula_sum              "Ca2 F12 Li2 Ni2"
_cell_length_a       4.93485
_cell_length_b       4.93449
_cell_length_c       9.47218
_cell_angle_alpha    89.9804
_cell_angle_beta     90.0098
_cell_angle_gamma    119.998

_space_group_name_H-M_alt    "P 1"
_space_group_IT_number       1

loop_
  _space_group_symop_operation_xyz
  'x, y, z'

loop_
  _atom_site_type_symbol
  _atom_site_label
  _atom_site_symmetry_multiplicity
  _atom_site_fract_x
  _atom_site_fract_y
  _atom_site_fract_z
  _atom_site_occupancy
  Ca  Ca1       1.0  0.00000  0.00000  0.00000  1.0000
  Ca  Ca2       1.0  1.00000  0.00000  0.50000  1.0000
  F   F1        1.0  0.64300  0.63300  0.13700  1.0000
  F   F2        1.0  0.98900  0.35700  0.13700  1.0000
  F   F3        1.0  0.36800  0.01120  0.13700  1.0000
  F   F4        1.0  0.36800  0.35700  0.36300  1.0000
  F   F5        1.0  0.98900  0.63200  0.36300  1.0000
  F   F6        1.0  0.64300  0.01060  0.36300  1.0000
  F   F7        1.0  0.35700  0.98900  0.63700  1.0000
  F   F8        1.0  0.01110  0.36800  0.63700  1.0000
  F   F9        1.0  0.63200  0.64300  0.63700  1.0000
  F   F10       1.0  0.63200  0.98900  0.86300  1.0000
  F   F11       1.0  0.01110  0.64300  0.86300  1.0000
  F   F12       1.0  0.35700  0.36700  0.86300  1.0000
  Li  Li1       1.0  0.33400  0.66700  0.25000  1.0000
  Li  Li2       1.0  0.66600  0.33300  0.75000  1.0000
  Ni  Ni1       1.0  0.66700  0.33300  0.25000  1.0000
  Ni  Ni2       1.0  0.33300  0.66700  0.75000  1.0000
