data_image0
_chemical_formula_structural       Ca2F10Mn2
_chemical_formula_sum              "Ca2 F10 Mn2"
_cell_length_a       5.381
_cell_length_b       5.381
_cell_length_c       7.5754
_cell_angle_alpha    110.827
_cell_angle_beta     96.8572
_cell_angle_gamma    109.353

_space_group_name_H-M_alt    "P 1"
_space_group_IT_number       1

loop_
  _space_group_symop_operation_xyz
  'x, y, z'

loop_
  _atom_site_type_symbol
  _atom_site_label
  _atom_site_symmetry_multiplicity
  _atom_site_fract_x
  _atom_site_fract_y
  _atom_site_fract_z
  _atom_site_occupancy
  Ca  Ca1       1.0  0.54900  0.79900  0.25000  1.0000
  Ca  Ca2       1.0  0.45100  0.20100  0.75000  1.0000
  F   F1        1.0  0.27700  0.35300  0.02550  1.0000
  F   F2        1.0  0.26200  0.92900  0.12300  1.0000
  F   F3        1.0  0.91500  0.16500  0.25000  1.0000
  F   F4        1.0  0.80600  0.63900  0.37700  1.0000
  F   F5        1.0  0.32700  0.75100  0.47500  1.0000
  F   F6        1.0  0.67300  0.24900  0.52500  1.0000
  F   F7        1.0  0.19400  0.36100  0.62300  1.0000
  F   F8        1.0  0.08480  0.83500  0.75000  1.0000
  F   F9        1.0  0.73800  0.07080  0.87700  1.0000
  F   F10       1.0  0.72300  0.64700  0.97500  1.0000
  Mn  Mn1       1.0  0.00000  0.00000  0.00000  1.0000
  Mn  Mn2       1.0  1.00000  0.50000  0.50000  1.0000
