data_image0
_chemical_formula_structural       Ni4O12Se4
_chemical_formula_sum              "Ni4 O12 Se4"
_cell_length_a       5.83519
_cell_length_b       7.47736
_cell_length_c       4.94847
_cell_angle_alpha    90
_cell_angle_beta     90
_cell_angle_gamma    90

_space_group_name_H-M_alt    "P 1"
_space_group_IT_number       1

loop_
  _space_group_symop_operation_xyz
  'x, y, z'

loop_
  _atom_site_type_symbol
  _atom_site_label
  _atom_site_symmetry_multiplicity
  _atom_site_fract_x
  _atom_site_fract_y
  _atom_site_fract_z
  _atom_site_occupancy
  Ni  Ni1       1.0  0.50000  0.00000  0.00000  1.0000
  Ni  Ni2       1.0  0.50000  0.50000  0.00000  1.0000
  Ni  Ni3       1.0  0.00000  0.00000  0.50000  1.0000
  Ni  Ni4       1.0  0.00000  0.50000  0.50000  1.0000
  O   O1        1.0  0.81800  0.57300  0.14300  1.0000
  O   O2        1.0  0.81800  0.92700  0.14300  1.0000
  O   O3        1.0  0.57200  0.25000  0.17200  1.0000
  O   O4        1.0  0.07220  0.25000  0.32800  1.0000
  O   O5        1.0  0.31800  0.57300  0.35700  1.0000
  O   O6        1.0  0.31800  0.92700  0.35700  1.0000
  O   O7        1.0  0.68200  0.07310  0.64300  1.0000
  O   O8        1.0  0.68200  0.42700  0.64300  1.0000
  O   O9        1.0  0.92800  0.75000  0.67200  1.0000
  O   O10       1.0  0.42800  0.75000  0.82800  1.0000
  O   O11       1.0  0.18200  0.07310  0.85700  1.0000
  O   O12       1.0  0.18200  0.42700  0.85700  1.0000
  Se  Se1       1.0  0.98700  0.75000  0.01850  1.0000
  Se  Se2       1.0  0.48700  0.75000  0.48100  1.0000
  Se  Se3       1.0  0.51300  0.25000  0.51900  1.0000
  Se  Se4       1.0  0.01340  0.25000  0.98100  1.0000
