data_image0
_chemical_formula_structural       C3Li3Na3O9
_chemical_formula_sum              "C3 Li3 Na3 O9"
_cell_length_a       8.23132
_cell_length_b       8.23134
_cell_length_c       3.10718
_cell_angle_alpha    90
_cell_angle_beta     90
_cell_angle_gamma    120

_space_group_name_H-M_alt    "P 1"
_space_group_IT_number       1

loop_
  _space_group_symop_operation_xyz
  'x, y, z'

loop_
  _atom_site_type_symbol
  _atom_site_label
  _atom_site_symmetry_multiplicity
  _atom_site_fract_x
  _atom_site_fract_y
  _atom_site_fract_z
  _atom_site_occupancy
  C   C1        1.0  0.00000  0.00000  0.00000  1.0000
  C   C2        1.0  0.66700  0.33300  0.00000  1.0000
  C   C3        1.0  0.33300  0.66700  0.50000  1.0000
  Li  Li1       1.0  0.03130  0.37600  0.00000  1.0000
  Li  Li2       1.0  0.62400  0.65500  0.00000  1.0000
  Li  Li3       1.0  0.34500  0.96900  0.00000  1.0000
  Na  Na1       1.0  0.70600  0.02590  0.50000  1.0000
  Na  Na2       1.0  0.32000  0.29400  0.50000  1.0000
  Na  Na3       1.0  0.97400  0.68000  0.50000  1.0000
  O   O1        1.0  0.08520  0.18100  0.00000  1.0000
  O   O2        1.0  0.48600  0.23300  0.00000  1.0000
  O   O3        1.0  0.76700  0.25300  0.00000  1.0000
  O   O4        1.0  0.74700  0.51400  0.00000  1.0000
  O   O5        1.0  0.81900  0.90400  0.00000  1.0000
  O   O6        1.0  0.09590  0.91500  0.00000  1.0000
  O   O7        1.0  0.15800  0.53600  0.50000  1.0000
  O   O8        1.0  0.46400  0.62300  0.50000  1.0000
  O   O9        1.0  0.37700  0.84100  0.50000  1.0000
