data_image0
_chemical_formula_structural       B2C8CuN8
_chemical_formula_sum              "B2 C8 Cu1 N8"
_cell_length_a       5.99519
_cell_length_b       7.23597
_cell_length_c       7.49697
_cell_angle_alpha    118.855
_cell_angle_beta     92.8695
_cell_angle_gamma    90

_space_group_name_H-M_alt    "P 1"
_space_group_IT_number       1

loop_
  _space_group_symop_operation_xyz
  'x, y, z'

loop_
  _atom_site_type_symbol
  _atom_site_label
  _atom_site_symmetry_multiplicity
  _atom_site_fract_x
  _atom_site_fract_y
  _atom_site_fract_z
  _atom_site_occupancy
  B   B1        1.0  0.85300  0.66500  0.33100  1.0000
  B   B2        1.0  0.14700  0.33500  0.66900  1.0000
  C   C1        1.0  0.75300  0.43300  0.22000  1.0000
  C   C2        1.0  0.75300  0.78700  0.22000  1.0000
  C   C3        1.0  0.11600  0.66100  0.32200  1.0000
  C   C4        1.0  0.21500  0.22100  0.44100  1.0000
  C   C5        1.0  0.78500  0.77900  0.55900  1.0000
  C   C6        1.0  0.88400  0.33900  0.67800  1.0000
  C   C7        1.0  0.24700  0.21300  0.78000  1.0000
  C   C8        1.0  0.24700  0.56700  0.78000  1.0000
  Cu  Cu1       1.0  0.50000  1.00000  1.00000  1.0000
  N   N1        1.0  0.67800  0.26200  0.13800  1.0000
  N   N2        1.0  0.67800  0.87600  0.13800  1.0000
  N   N3        1.0  0.26400  0.13600  0.27300  1.0000
  N   N4        1.0  0.30900  0.65900  0.31700  1.0000
  N   N5        1.0  0.69100  0.34100  0.68300  1.0000
  N   N6        1.0  0.73600  0.86400  0.72700  1.0000
  N   N7        1.0  0.32200  0.12400  0.86200  1.0000
  N   N8        1.0  0.32200  0.73800  0.86200  1.0000
