data_image0
_chemical_formula_structural       Cu2Mn3O8Se2Sr4
_chemical_formula_sum              "Cu2 Mn3 O8 Se2 Sr4"
_cell_length_a       3.90114
_cell_length_b       3.90114
_cell_length_c       17.9862
_cell_angle_alpha    96.2259
_cell_angle_beta     96.2259
_cell_angle_gamma    90

_space_group_name_H-M_alt    "P 1"
_space_group_IT_number       1

loop_
  _space_group_symop_operation_xyz
  'x, y, z'

loop_
  _atom_site_type_symbol
  _atom_site_label
  _atom_site_symmetry_multiplicity
  _atom_site_fract_x
  _atom_site_fract_y
  _atom_site_fract_z
  _atom_site_occupancy
  Cu  Cu1       1.0  0.75000  0.25000  0.50000  1.0000
  Cu  Cu2       1.0  0.25000  0.75000  0.50000  1.0000
  Mn  Mn1       1.0  0.00000  0.00000  0.00000  1.0000
  Mn  Mn2       1.0  0.11000  0.11000  0.21900  1.0000
  Mn  Mn3       1.0  0.89000  0.89000  0.78100  1.0000
  O   O1        1.0  0.50000  0.00000  0.00000  1.0000
  O   O2        1.0  0.00000  0.50000  0.00000  1.0000
  O   O3        1.0  0.05480  0.05480  0.11000  1.0000
  O   O4        1.0  0.61800  0.11800  0.23600  1.0000
  O   O5        1.0  0.11800  0.61800  0.23600  1.0000
  O   O6        1.0  0.88200  0.38200  0.76400  1.0000
  O   O7        1.0  0.38200  0.88200  0.76400  1.0000
  O   O8        1.0  0.94500  0.94500  0.89000  1.0000
  Se  Se1       1.0  0.20700  0.20700  0.41400  1.0000
  Se  Se2       1.0  0.79300  0.79300  0.58600  1.0000
  Sr  Sr1       1.0  0.55200  0.55200  0.10400  1.0000
  Sr  Sr2       1.0  0.66100  0.66100  0.32300  1.0000
  Sr  Sr3       1.0  0.33900  0.33900  0.67700  1.0000
  Sr  Sr4       1.0  0.44800  0.44800  0.89600  1.0000
