data_image0
_chemical_formula_structural       Al4P12Si4
_chemical_formula_sum              "Al4 P12 Si4"
_cell_length_a       9.89736
_cell_length_b       5.8931
_cell_length_c       6.12401
_cell_angle_alpha    90
_cell_angle_beta     90
_cell_angle_gamma    90

_space_group_name_H-M_alt    "P 1"
_space_group_IT_number       1

loop_
  _space_group_symop_operation_xyz
  'x, y, z'

loop_
  _atom_site_type_symbol
  _atom_site_label
  _atom_site_symmetry_multiplicity
  _atom_site_fract_x
  _atom_site_fract_y
  _atom_site_fract_z
  _atom_site_occupancy
  Al  Al1       1.0  0.00000  0.00000  0.00000  1.0000
  Al  Al2       1.0  0.50000  0.00000  0.00000  1.0000
  Al  Al3       1.0  0.00000  0.50000  0.50000  1.0000
  Al  Al4       1.0  0.50000  0.50000  0.50000  1.0000
  P   P1        1.0  0.25000  0.88800  0.08570  1.0000
  P   P2        1.0  0.55800  0.61100  0.10800  1.0000
  P   P3        1.0  0.94200  0.61100  0.10800  1.0000
  P   P4        1.0  0.55800  0.11100  0.39200  1.0000
  P   P5        1.0  0.94200  0.11100  0.39200  1.0000
  P   P6        1.0  0.25000  0.38800  0.41400  1.0000
  P   P7        1.0  0.75000  0.61200  0.58600  1.0000
  P   P8        1.0  0.05810  0.88900  0.60800  1.0000
  P   P9        1.0  0.44200  0.88900  0.60800  1.0000
  P   P10       1.0  0.05810  0.38900  0.89200  1.0000
  P   P11       1.0  0.44200  0.38900  0.89200  1.0000
  P   P12       1.0  0.75000  0.11200  0.91400  1.0000
  Si  Si1       1.0  0.25000  0.50000  0.06230  1.0000
  Si  Si2       1.0  0.25000  0.00000  0.43800  1.0000
  Si  Si3       1.0  0.75000  0.00044  0.56200  1.0000
  Si  Si4       1.0  0.75000  0.50000  0.93800  1.0000
