data_image0
_chemical_formula_structural       Fe17Tb2
_chemical_formula_sum              "Fe17 Tb2"
_cell_length_a       6.35869
_cell_length_b       6.35869
_cell_length_c       6.35869
_cell_angle_alpha    82.7244
_cell_angle_beta     97.2756
_cell_angle_gamma    97.2756

_space_group_name_H-M_alt    "P 1"
_space_group_IT_number       1

loop_
  _space_group_symop_operation_xyz
  'x, y, z'

loop_
  _atom_site_type_symbol
  _atom_site_label
  _atom_site_symmetry_multiplicity
  _atom_site_fract_x
  _atom_site_fract_y
  _atom_site_fract_z
  _atom_site_occupancy
  Fe  Fe1       1.0  0.70300  0.70300  1.00000  1.0000
  Fe  Fe2       1.0  0.29700  0.29700  0.00000  1.0000
  Fe  Fe3       1.0  0.50000  1.00000  0.00000  1.0000
  Fe  Fe4       1.0  0.00000  0.50000  0.00000  1.0000
  Fe  Fe5       1.0  0.90400  0.09590  0.09590  1.0000
  Fe  Fe6       1.0  0.34200  0.65800  0.15800  1.0000
  Fe  Fe7       1.0  0.00000  0.70300  0.29700  1.0000
  Fe  Fe8       1.0  0.29700  0.00000  0.29700  1.0000
  Fe  Fe9       1.0  0.65800  0.84200  0.34200  1.0000
  Fe  Fe10      1.0  0.15800  0.34200  0.34200  1.0000
  Fe  Fe11      1.0  0.00000  1.00000  0.50000  1.0000
  Fe  Fe12      1.0  0.34200  0.15800  0.65800  1.0000
  Fe  Fe13      1.0  0.84200  0.65800  0.65800  1.0000
  Fe  Fe14      1.0  1.00000  0.29700  0.70300  1.0000
  Fe  Fe15      1.0  0.70300  0.00000  0.70300  1.0000
  Fe  Fe16      1.0  0.65800  0.34200  0.84200  1.0000
  Fe  Fe17      1.0  0.09590  0.90400  0.90400  1.0000
  Tb  Tb1       1.0  0.65900  0.34100  0.34100  1.0000
  Tb  Tb2       1.0  0.34100  0.65900  0.65900  1.0000
