data_image0
_chemical_formula_structural       Cu2Mn3O8S2Sr4
_chemical_formula_sum              "Cu2 Mn3 O8 S2 Sr4"
_cell_length_a       3.87679
_cell_length_b       3.87679
_cell_length_c       17.4912
_cell_angle_alpha    96.3626
_cell_angle_beta     96.3626
_cell_angle_gamma    90

_space_group_name_H-M_alt    "P 1"
_space_group_IT_number       1

loop_
  _space_group_symop_operation_xyz
  'x, y, z'

loop_
  _atom_site_type_symbol
  _atom_site_label
  _atom_site_symmetry_multiplicity
  _atom_site_fract_x
  _atom_site_fract_y
  _atom_site_fract_z
  _atom_site_occupancy
  Cu  Cu1       1.0  0.75000  0.25000  0.50000  1.0000
  Cu  Cu2       1.0  0.25000  0.75000  0.50000  1.0000
  Mn  Mn1       1.0  0.00000  0.00000  0.00000  1.0000
  Mn  Mn2       1.0  0.11300  0.11300  0.22600  1.0000
  Mn  Mn3       1.0  0.88700  0.88700  0.77400  1.0000
  O   O1        1.0  0.50000  0.00000  0.00000  1.0000
  O   O2        1.0  0.00000  0.50000  0.00000  1.0000
  O   O3        1.0  0.05660  0.05660  0.11300  1.0000
  O   O4        1.0  0.62200  0.12200  0.24300  1.0000
  O   O5        1.0  0.12200  0.62200  0.24300  1.0000
  O   O6        1.0  0.87800  0.37800  0.75700  1.0000
  O   O7        1.0  0.37800  0.87800  0.75700  1.0000
  O   O8        1.0  0.94300  0.94300  0.88700  1.0000
  S   S1        1.0  0.21000  0.21000  0.42000  1.0000
  S   S2        1.0  0.79000  0.79000  0.58000  1.0000
  Sr  Sr1       1.0  0.55400  0.55400  0.10700  1.0000
  Sr  Sr2       1.0  0.66700  0.66700  0.33400  1.0000
  Sr  Sr3       1.0  0.33300  0.33300  0.66600  1.0000
  Sr  Sr4       1.0  0.44600  0.44600  0.89300  1.0000
