data_image0
_chemical_formula_structural       La2Ni10P6
_chemical_formula_sum              "La2 Ni10 P6"
_cell_length_a       3.63447
_cell_length_b       6.12587
_cell_length_c       11.4808
_cell_angle_alpha    90
_cell_angle_beta     90
_cell_angle_gamma    72.7436

_space_group_name_H-M_alt    "P 1"
_space_group_IT_number       1

loop_
  _space_group_symop_operation_xyz
  'x, y, z'

loop_
  _atom_site_type_symbol
  _atom_site_label
  _atom_site_symmetry_multiplicity
  _atom_site_fract_x
  _atom_site_fract_y
  _atom_site_fract_z
  _atom_site_occupancy
  La  La1       1.0  0.66300  0.67400  0.25000  1.0000
  La  La2       1.0  0.33700  0.32600  0.75000  1.0000
  Ni  Ni1       1.0  0.50000  0.00000  0.00000  1.0000
  Ni  Ni2       1.0  0.30200  0.39700  0.06780  1.0000
  Ni  Ni3       1.0  0.94900  0.10200  0.14500  1.0000
  Ni  Ni4       1.0  0.94900  0.10200  0.35500  1.0000
  Ni  Ni5       1.0  0.30200  0.39700  0.43200  1.0000
  Ni  Ni6       1.0  0.50000  0.00000  0.50000  1.0000
  Ni  Ni7       1.0  0.69800  0.60300  0.56800  1.0000
  Ni  Ni8       1.0  0.05110  0.89800  0.64500  1.0000
  Ni  Ni9       1.0  0.05110  0.89800  0.85500  1.0000
  Ni  Ni10      1.0  0.69800  0.60300  0.93200  1.0000
  P   P1        1.0  0.11800  0.76400  0.03960  1.0000
  P   P2        1.0  0.38400  0.23200  0.25000  1.0000
  P   P3        1.0  0.11800  0.76400  0.46000  1.0000
  P   P4        1.0  0.88200  0.23600  0.54000  1.0000
  P   P5        1.0  0.61600  0.76800  0.75000  1.0000
  P   P6        1.0  0.88200  0.23600  0.96000  1.0000
