data_image0
_chemical_formula_structural       Ag3F14Hf2
_chemical_formula_sum              "Ag3 F14 Hf2"
_cell_length_a       5.66031
_cell_length_b       5.66031
_cell_length_c       8.90669
_cell_angle_alpha    91.2868
_cell_angle_beta     91.2868
_cell_angle_gamma    72.0137

_space_group_name_H-M_alt    "P 1"
_space_group_IT_number       1

loop_
  _space_group_symop_operation_xyz
  'x, y, z'

loop_
  _atom_site_type_symbol
  _atom_site_label
  _atom_site_symmetry_multiplicity
  _atom_site_fract_x
  _atom_site_fract_y
  _atom_site_fract_z
  _atom_site_occupancy
  Ag  Ag1       1.0  0.00000  0.00000  0.00000  1.0000
  Ag  Ag2       1.0  0.18700  0.18700  0.39300  1.0000
  Ag  Ag3       1.0  0.81300  0.81300  0.60700  1.0000
  F   F1        1.0  0.50000  0.50000  0.00000  1.0000
  F   F2        1.0  0.78000  0.78000  0.12500  1.0000
  F   F3        1.0  0.86700  0.27000  0.16800  1.0000
  F   F4        1.0  0.27000  0.86700  0.16800  1.0000
  F   F5        1.0  0.38300  0.38300  0.27800  1.0000
  F   F6        1.0  0.83900  0.49000  0.39900  1.0000
  F   F7        1.0  0.49000  0.83900  0.39900  1.0000
  F   F8        1.0  0.00000  0.00000  0.50000  1.0000
  F   F9        1.0  0.51000  0.16100  0.60100  1.0000
  F   F10       1.0  0.16100  0.51000  0.60100  1.0000
  F   F11       1.0  0.61700  0.61700  0.72200  1.0000
  F   F12       1.0  0.73000  0.13300  0.83200  1.0000
  F   F13       1.0  0.13300  0.73000  0.83200  1.0000
  F   F14       1.0  0.22000  0.22000  0.87500  1.0000
  Hf  Hf1       1.0  0.59200  0.59200  0.22000  1.0000
  Hf  Hf2       1.0  0.40800  0.40800  0.78000  1.0000
