data_image0
_chemical_formula_structural       Fe2Na2O12Si4
_chemical_formula_sum              "Fe2 Na2 O12 Si4"
_cell_length_a       5.28516
_cell_length_b       6.51224
_cell_length_c       6.51224
_cell_angle_alpha    95.5359
_cell_angle_beta     102.681
_cell_angle_gamma    77.3186

_space_group_name_H-M_alt    "P 1"
_space_group_IT_number       1

loop_
  _space_group_symop_operation_xyz
  'x, y, z'

loop_
  _atom_site_type_symbol
  _atom_site_label
  _atom_site_symmetry_multiplicity
  _atom_site_fract_x
  _atom_site_fract_y
  _atom_site_fract_z
  _atom_site_occupancy
  Fe  Fe1       1.0  0.75000  0.09880  0.09880  1.0000
  Fe  Fe2       1.0  0.25000  0.90100  0.90100  1.0000
  Na  Na1       1.0  0.25000  0.30000  0.30000  1.0000
  Na  Na2       1.0  0.75000  0.70000  0.70000  1.0000
  O   O1        1.0  0.64000  0.80500  0.03280  1.0000
  O   O2        1.0  0.80400  0.38300  0.09820  1.0000
  O   O3        1.0  0.14000  0.96700  0.19500  1.0000
  O   O4        1.0  0.51200  0.63600  0.34500  1.0000
  O   O5        1.0  0.01180  0.65500  0.36400  1.0000
  O   O6        1.0  0.69600  0.09820  0.38300  1.0000
  O   O7        1.0  0.30400  0.90200  0.61700  1.0000
  O   O8        1.0  0.98800  0.34500  0.63600  1.0000
  O   O9        1.0  0.48800  0.36400  0.65500  1.0000
  O   O10       1.0  0.86000  0.03280  0.80500  1.0000
  O   O11       1.0  0.19600  0.61700  0.90200  1.0000
  O   O12       1.0  0.36000  0.19500  0.96700  1.0000
  Si  Si1       1.0  0.73600  0.61800  0.20000  1.0000
  Si  Si2       1.0  0.23600  0.80000  0.38200  1.0000
  Si  Si3       1.0  0.76400  0.20000  0.61800  1.0000
  Si  Si4       1.0  0.26400  0.38200  0.80000  1.0000
