data_image0
_chemical_formula_structural       Bi4O12Ti3
_chemical_formula_sum              "Bi4 O12 Ti3"
_cell_length_a       3.82565
_cell_length_b       3.82565
_cell_length_c       16.5053
_cell_angle_alpha    96.6457
_cell_angle_beta     96.6457
_cell_angle_gamma    90.0805

_space_group_name_H-M_alt    "P 1"
_space_group_IT_number       1

loop_
  _space_group_symop_operation_xyz
  'x, y, z'

loop_
  _atom_site_type_symbol
  _atom_site_label
  _atom_site_symmetry_multiplicity
  _atom_site_fract_x
  _atom_site_fract_y
  _atom_site_fract_z
  _atom_site_occupancy
  Bi  Bi1       1.0  0.06730  0.06730  0.13500  1.0000
  Bi  Bi2       1.0  0.21100  0.21100  0.42200  1.0000
  Bi  Bi3       1.0  0.78900  0.78900  0.57800  1.0000
  Bi  Bi4       1.0  0.93300  0.93300  0.86500  1.0000
  O   O1        1.0  0.50000  0.00000  0.00000  1.0000
  O   O2        1.0  0.00000  0.50000  0.00000  1.0000
  O   O3        1.0  0.56100  0.56100  0.12100  1.0000
  O   O4        1.0  0.61700  0.11700  0.23400  1.0000
  O   O5        1.0  0.11700  0.61700  0.23400  1.0000
  O   O6        1.0  0.68400  0.68400  0.36900  1.0000
  O   O7        1.0  0.75000  0.25000  0.50000  1.0000
  O   O8        1.0  0.25000  0.75000  0.50000  1.0000
  O   O9        1.0  0.31600  0.31600  0.63100  1.0000
  O   O10       1.0  0.88300  0.38300  0.76600  1.0000
  O   O11       1.0  0.38300  0.88300  0.76600  1.0000
  O   O12       1.0  0.43900  0.43900  0.87900  1.0000
  Ti  Ti1       1.0  0.50000  0.50000  0.00000  1.0000
  Ti  Ti2       1.0  0.62900  0.62900  0.25800  1.0000
  Ti  Ti3       1.0  0.37100  0.37100  0.74200  1.0000
