data_image0
_chemical_formula_structural       Mg2Mo2O12Te2
_chemical_formula_sum              "Mg2 Mo2 O12 Te2"
_cell_length_a       5.02573
_cell_length_b       5.25012
_cell_length_c       8.76191
_cell_angle_alpha    90
_cell_angle_beta     90
_cell_angle_gamma    90

_space_group_name_H-M_alt    "P 1"
_space_group_IT_number       1

loop_
  _space_group_symop_operation_xyz
  'x, y, z'

loop_
  _atom_site_type_symbol
  _atom_site_label
  _atom_site_symmetry_multiplicity
  _atom_site_fract_x
  _atom_site_fract_y
  _atom_site_fract_z
  _atom_site_occupancy
  Mg  Mg1       1.0  0.00000  0.50000  0.02980  1.0000
  Mg  Mg2       1.0  0.50000  0.00000  0.97000  1.0000
  Mo  Mo1       1.0  0.50000  0.50000  0.31200  1.0000
  Mo  Mo2       1.0  0.00000  0.00000  0.68800  1.0000
  O   O1        1.0  0.22500  0.17300  0.10800  1.0000
  O   O2        1.0  0.77500  0.82700  0.10800  1.0000
  O   O3        1.0  0.76600  0.32600  0.20600  1.0000
  O   O4        1.0  0.23400  0.67400  0.20600  1.0000
  O   O5        1.0  0.34900  0.28000  0.43100  1.0000
  O   O6        1.0  0.65100  0.72000  0.43100  1.0000
  O   O7        1.0  0.84900  0.22000  0.56900  1.0000
  O   O8        1.0  0.15100  0.78000  0.56900  1.0000
  O   O9        1.0  0.26600  0.17400  0.79400  1.0000
  O   O10       1.0  0.73400  0.82600  0.79400  1.0000
  O   O11       1.0  0.72500  0.32700  0.89200  1.0000
  O   O12       1.0  0.27500  0.67300  0.89200  1.0000
  Te  Te1       1.0  0.00000  0.00000  0.25100  1.0000
  Te  Te2       1.0  0.50000  0.50000  0.74900  1.0000
