data_image0
_chemical_formula_structural       Cr2Li2N8OSr6
_chemical_formula_sum              "Cr2 Li2 N8 O1 Sr6"
_cell_length_a       6.14732
_cell_length_b       6.81992
_cell_length_c       7.5088
_cell_angle_alpha    82.2547
_cell_angle_beta     75.1163
_cell_angle_gamma    70.0941

_space_group_name_H-M_alt    "P 1"
_space_group_IT_number       1

loop_
  _space_group_symop_operation_xyz
  'x, y, z'

loop_
  _atom_site_type_symbol
  _atom_site_label
  _atom_site_symmetry_multiplicity
  _atom_site_fract_x
  _atom_site_fract_y
  _atom_site_fract_z
  _atom_site_occupancy
  Cr  Cr1       1.0  0.78800  0.78800  0.25000  1.0000
  Cr  Cr2       1.0  0.21200  0.21200  0.75000  1.0000
  Li  Li1       1.0  0.77500  0.49000  0.09160  1.0000
  Li  Li2       1.0  0.22500  0.51000  0.90800  1.0000
  N   N1        1.0  0.92300  0.74400  0.01810  1.0000
  N   N2        1.0  0.53200  0.01160  0.26600  1.0000
  N   N3        1.0  0.71300  0.56800  0.35800  1.0000
  N   N4        1.0  0.98700  0.82000  0.36600  1.0000
  N   N5        1.0  0.01300  0.18000  0.63400  1.0000
  N   N6        1.0  0.28700  0.43200  0.64200  1.0000
  N   N7        1.0  0.46800  0.98800  0.73400  1.0000
  N   N8        1.0  0.07690  0.25600  0.98200  1.0000
  O   O1        1.0  0.50000  0.50000  0.00000  1.0000
  Sr  Sr1       1.0  0.29400  0.86400  0.07160  1.0000
  Sr  Sr2       1.0  0.20000  0.38000  0.30100  1.0000
  Sr  Sr3       1.0  0.70100  0.18900  0.46600  1.0000
  Sr  Sr4       1.0  0.29900  0.81100  0.53400  1.0000
  Sr  Sr5       1.0  0.80000  0.62000  0.69900  1.0000
  Sr  Sr6       1.0  0.70600  0.13600  0.92800  1.0000
