data_image0
_chemical_formula_structural       Nd12Ni6Sn
_chemical_formula_sum              "Nd12 Ni6 Sn1"
_cell_length_a       8.69317
_cell_length_b       8.69317
_cell_length_c       8.69317
_cell_angle_alpha    109.471
_cell_angle_beta     109.471
_cell_angle_gamma    109.471

_space_group_name_H-M_alt    "P 1"
_space_group_IT_number       1

loop_
  _space_group_symop_operation_xyz
  'x, y, z'

loop_
  _atom_site_type_symbol
  _atom_site_label
  _atom_site_symmetry_multiplicity
  _atom_site_fract_x
  _atom_site_fract_y
  _atom_site_fract_z
  _atom_site_occupancy
  Nd  Nd1       1.0  0.81500  0.30600  0.12000  1.0000
  Nd  Nd2       1.0  0.30600  0.49100  0.18500  1.0000
  Nd  Nd3       1.0  0.69400  0.88000  0.18500  1.0000
  Nd  Nd4       1.0  0.49100  0.18500  0.30600  1.0000
  Nd  Nd5       1.0  0.12000  0.81500  0.30600  1.0000
  Nd  Nd6       1.0  0.18500  0.30600  0.49100  1.0000
  Nd  Nd7       1.0  0.81500  0.69400  0.50900  1.0000
  Nd  Nd8       1.0  0.50900  0.81500  0.69400  1.0000
  Nd  Nd9       1.0  0.88000  0.18500  0.69400  1.0000
  Nd  Nd10      1.0  0.30600  0.12000  0.81500  1.0000
  Nd  Nd11      1.0  0.69400  0.50900  0.81500  1.0000
  Nd  Nd12      1.0  0.18500  0.69400  0.88000  1.0000
  Ni  Ni1       1.0  0.62200  0.50000  0.12200  1.0000
  Ni  Ni2       1.0  0.50000  0.87800  0.37800  1.0000
  Ni  Ni3       1.0  0.87800  0.37800  0.50000  1.0000
  Ni  Ni4       1.0  0.12200  0.62200  0.50000  1.0000
  Ni  Ni5       1.0  0.50000  0.12200  0.62200  1.0000
  Ni  Ni6       1.0  0.37800  0.50000  0.87800  1.0000
  Sn  Sn1       1.0  0.00000  0.00000  0.00000  1.0000
