data_image0
_chemical_formula_structural       Cu2H4O10Se2
_chemical_formula_sum              "Cu2 H4 O10 Se2"
_cell_length_a       5.10971
_cell_length_b       5.51314
_cell_length_c       7.47431
_cell_angle_alpha    104.125
_cell_angle_beta     106.41
_cell_angle_gamma    96.9758

_space_group_name_H-M_alt    "P 1"
_space_group_IT_number       1

loop_
  _space_group_symop_operation_xyz
  'x, y, z'

loop_
  _atom_site_type_symbol
  _atom_site_label
  _atom_site_symmetry_multiplicity
  _atom_site_fract_x
  _atom_site_fract_y
  _atom_site_fract_z
  _atom_site_occupancy
  Cu  Cu1       1.0  0.00000  0.50000  0.00000  1.0000
  Cu  Cu2       1.0  0.50000  0.00000  0.50000  1.0000
  H   H1        1.0  0.52100  0.68200  0.17700  1.0000
  H   H2        1.0  0.39700  0.47300  0.26700  1.0000
  H   H3        1.0  0.60300  0.52700  0.73300  1.0000
  H   H4        1.0  0.47900  0.31800  0.82300  1.0000
  O   O1        1.0  0.79700  0.83000  0.12200  1.0000
  O   O2        1.0  0.82700  0.34100  0.15000  1.0000
  O   O3        1.0  0.35900  0.62000  0.21800  1.0000
  O   O4        1.0  0.28400  0.19500  0.34800  1.0000
  O   O5        1.0  0.81600  0.18600  0.46100  1.0000
  O   O6        1.0  0.18400  0.81400  0.53900  1.0000
  O   O7        1.0  0.71600  0.80500  0.65200  1.0000
  O   O8        1.0  0.64100  0.38000  0.78200  1.0000
  O   O9        1.0  0.17300  0.65900  0.85000  1.0000
  O   O10       1.0  0.20300  0.17000  0.87800  1.0000
  Se  Se1       1.0  0.92600  0.12700  0.26400  1.0000
  Se  Se2       1.0  0.07370  0.87300  0.73600  1.0000
