data_image0
_chemical_formula_structural       Rh8Si10
_chemical_formula_sum              "Rh8 Si10"
_cell_length_a       12.4261
_cell_length_b       3.55217
_cell_length_c       5.98058
_cell_angle_alpha    90
_cell_angle_beta     100.054
_cell_angle_gamma    90

_space_group_name_H-M_alt    "P 1"
_space_group_IT_number       1

loop_
  _space_group_symop_operation_xyz
  'x, y, z'

loop_
  _atom_site_type_symbol
  _atom_site_label
  _atom_site_symmetry_multiplicity
  _atom_site_fract_x
  _atom_site_fract_y
  _atom_site_fract_z
  _atom_site_occupancy
  Rh  Rh1       1.0  0.27300  0.25000  0.10800  1.0000
  Rh  Rh2       1.0  0.05010  0.25000  0.20800  1.0000
  Rh  Rh3       1.0  0.73000  0.25000  0.28500  1.0000
  Rh  Rh4       1.0  0.50000  0.25000  0.30000  1.0000
  Rh  Rh5       1.0  0.50000  0.75000  0.70000  1.0000
  Rh  Rh6       1.0  0.27000  0.75000  0.71500  1.0000
  Rh  Rh7       1.0  0.95000  0.75000  0.79200  1.0000
  Rh  Rh8       1.0  0.72700  0.75000  0.89200  1.0000
  Si  Si1       1.0  0.86000  0.25000  0.02000  1.0000
  Si  Si2       1.0  0.57700  0.75000  0.10700  1.0000
  Si  Si3       1.0  0.36500  0.75000  0.36200  1.0000
  Si  Si4       1.0  0.22400  0.25000  0.46700  1.0000
  Si  Si5       1.0  0.92300  0.25000  0.48700  1.0000
  Si  Si6       1.0  0.07730  0.75000  0.51300  1.0000
  Si  Si7       1.0  0.77600  0.75000  0.53300  1.0000
  Si  Si8       1.0  0.63500  0.25000  0.63800  1.0000
  Si  Si9       1.0  0.42300  0.25000  0.89300  1.0000
  Si  Si10      1.0  0.14000  0.75000  0.98000  1.0000
