data_image0
_chemical_formula_structural       C4O12Pb4
_chemical_formula_sum              "C4 O12 Pb4"
_cell_length_a       5.16267
_cell_length_b       8.51004
_cell_length_c       6.03569
_cell_angle_alpha    90
_cell_angle_beta     90
_cell_angle_gamma    90

_space_group_name_H-M_alt    "P 1"
_space_group_IT_number       1

loop_
  _space_group_symop_operation_xyz
  'x, y, z'

loop_
  _atom_site_type_symbol
  _atom_site_label
  _atom_site_symmetry_multiplicity
  _atom_site_fract_x
  _atom_site_fract_y
  _atom_site_fract_z
  _atom_site_occupancy
  C   C1        1.0  0.75000  0.24100  0.08870  1.0000
  C   C2        1.0  0.25000  0.74100  0.41100  1.0000
  C   C3        1.0  0.75000  0.25900  0.58900  1.0000
  C   C4        1.0  0.25000  0.75900  0.91100  1.0000
  O   O1        1.0  0.53200  0.31800  0.09130  1.0000
  O   O2        1.0  0.96800  0.31800  0.09130  1.0000
  O   O3        1.0  0.75000  0.08890  0.09760  1.0000
  O   O4        1.0  0.25000  0.58900  0.40200  1.0000
  O   O5        1.0  0.03240  0.81800  0.40900  1.0000
  O   O6        1.0  0.46800  0.81800  0.40900  1.0000
  O   O7        1.0  0.53200  0.18200  0.59100  1.0000
  O   O8        1.0  0.96800  0.18200  0.59100  1.0000
  O   O9        1.0  0.75000  0.41100  0.59800  1.0000
  O   O10       1.0  0.25000  0.91100  0.90200  1.0000
  O   O11       1.0  0.03240  0.68200  0.90900  1.0000
  O   O12       1.0  0.46800  0.68200  0.90900  1.0000
  Pb  Pb1       1.0  0.75000  0.58300  0.24600  1.0000
  Pb  Pb2       1.0  0.25000  0.08310  0.25400  1.0000
  Pb  Pb3       1.0  0.75000  0.91700  0.74600  1.0000
  Pb  Pb4       1.0  0.25000  0.41700  0.75400  1.0000
