data_image0
_chemical_formula_structural       Al2Na2O12Si4
_chemical_formula_sum              "Al2 Na2 O12 Si4"
_cell_length_a       5.22011
_cell_length_b       6.36089
_cell_length_c       6.36089
_cell_angle_alpha    95.5111
_cell_angle_beta     102.868
_cell_angle_gamma    77.1319

_space_group_name_H-M_alt    "P 1"
_space_group_IT_number       1

loop_
  _space_group_symop_operation_xyz
  'x, y, z'

loop_
  _atom_site_type_symbol
  _atom_site_label
  _atom_site_symmetry_multiplicity
  _atom_site_fract_x
  _atom_site_fract_y
  _atom_site_fract_z
  _atom_site_occupancy
  Al  Al1       1.0  0.25000  0.09260  0.09260  1.0000
  Al  Al2       1.0  0.75000  0.90700  0.90700  1.0000
  Na  Na1       1.0  0.75000  0.30100  0.30100  1.0000
  Na  Na2       1.0  0.25000  0.69900  0.69900  1.0000
  O   O1        1.0  0.12900  0.81400  0.03090  1.0000
  O   O2        1.0  0.29500  0.37400  0.09420  1.0000
  O   O3        1.0  0.62900  0.96900  0.18600  1.0000
  O   O4        1.0  0.00589  0.63600  0.34700  1.0000
  O   O5        1.0  0.50600  0.65300  0.36400  1.0000
  O   O6        1.0  0.20500  0.09420  0.37400  1.0000
  O   O7        1.0  0.79500  0.90600  0.62600  1.0000
  O   O8        1.0  0.49400  0.34700  0.63600  1.0000
  O   O9        1.0  0.99400  0.36400  0.65300  1.0000
  O   O10       1.0  0.37100  0.03090  0.81400  1.0000
  O   O11       1.0  0.70500  0.62600  0.90600  1.0000
  O   O12       1.0  0.87100  0.18600  0.96900  1.0000
  Si  Si1       1.0  0.22800  0.61500  0.19600  1.0000
  Si  Si2       1.0  0.72800  0.80400  0.38500  1.0000
  Si  Si3       1.0  0.27200  0.19600  0.61500  1.0000
  Si  Si4       1.0  0.77200  0.38500  0.80400  1.0000
