data_image0
_chemical_formula_structural       C4Cr6
_chemical_formula_sum              "C4 Cr6"
_cell_length_a       2.81484
_cell_length_b       4.81616
_cell_length_c       6.89495
_cell_angle_alpha    90
_cell_angle_beta     90
_cell_angle_gamma    73.0086

_space_group_name_H-M_alt    "P 1"
_space_group_IT_number       1

loop_
  _space_group_symop_operation_xyz
  'x, y, z'

loop_
  _atom_site_type_symbol
  _atom_site_label
  _atom_site_symmetry_multiplicity
  _atom_site_fract_x
  _atom_site_fract_y
  _atom_site_fract_z
  _atom_site_occupancy
  C   C1        1.0  0.50000  0.00000  0.00000  1.0000
  C   C2        1.0  0.75400  0.49200  0.25000  1.0000
  C   C3        1.0  0.50000  0.00000  0.50000  1.0000
  C   C4        1.0  0.24600  0.50800  0.75000  1.0000
  Cr  Cr1       1.0  0.14300  0.71300  0.07020  1.0000
  Cr  Cr2       1.0  0.40100  0.19900  0.25000  1.0000
  Cr  Cr3       1.0  0.14300  0.71300  0.43000  1.0000
  Cr  Cr4       1.0  0.85700  0.28700  0.57000  1.0000
  Cr  Cr5       1.0  0.59900  0.80100  0.75000  1.0000
  Cr  Cr6       1.0  0.85700  0.28700  0.93000  1.0000
