data_image0
_chemical_formula_structural       C8Hg4N8
_chemical_formula_sum              "C8 Hg4 N8"
_cell_length_a       8.10831
_cell_length_b       8.10831
_cell_length_c       8.10831
_cell_angle_alpha    106.875
_cell_angle_beta     114.799
_cell_angle_gamma    106.875

_space_group_name_H-M_alt    "P 1"
_space_group_IT_number       1

loop_
  _space_group_symop_operation_xyz
  'x, y, z'

loop_
  _atom_site_type_symbol
  _atom_site_label
  _atom_site_symmetry_multiplicity
  _atom_site_fract_x
  _atom_site_fract_y
  _atom_site_fract_z
  _atom_site_occupancy
  C   C1        1.0  0.79600  0.16100  0.04000  1.0000
  C   C2        1.0  0.45400  0.74400  0.11500  1.0000
  C   C3        1.0  0.96000  0.75600  0.12100  1.0000
  C   C4        1.0  0.36500  0.24400  0.20400  1.0000
  C   C5        1.0  0.29000  0.66100  0.54600  1.0000
  C   C6        1.0  0.88500  0.33900  0.62900  1.0000
  C   C7        1.0  0.87900  0.83900  0.63500  1.0000
  C   C8        1.0  0.37100  0.25600  0.71000  1.0000
  Hg  Hg1       1.0  0.62500  0.95800  0.08300  1.0000
  Hg  Hg2       1.0  0.33300  0.45800  0.37500  1.0000
  Hg  Hg3       1.0  0.12500  0.04200  0.66700  1.0000
  Hg  Hg4       1.0  0.91700  0.54200  0.87500  1.0000
  N   N1        1.0  0.89600  0.28700  0.02630  1.0000
  N   N2        1.0  0.39000  0.13000  0.10400  1.0000
  N   N3        1.0  0.35400  0.63000  0.14000  1.0000
  N   N4        1.0  0.97400  0.87000  0.26000  1.0000
  N   N5        1.0  0.86000  0.21300  0.49000  1.0000
  N   N6        1.0  0.74000  0.71300  0.61000  1.0000
  N   N7        1.0  0.27600  0.78700  0.64600  1.0000
  N   N8        1.0  0.51000  0.37000  0.72400  1.0000
