data_image0
_chemical_formula_structural       B16Ce4
_chemical_formula_sum              "B16 Ce4"
_cell_length_a       7.29127
_cell_length_b       7.29127
_cell_length_c       4.16248
_cell_angle_alpha    90
_cell_angle_beta     90
_cell_angle_gamma    90

_space_group_name_H-M_alt    "P 1"
_space_group_IT_number       1

loop_
  _space_group_symop_operation_xyz
  'x, y, z'

loop_
  _atom_site_type_symbol
  _atom_site_label
  _atom_site_symmetry_multiplicity
  _atom_site_fract_x
  _atom_site_fract_y
  _atom_site_fract_z
  _atom_site_occupancy
  B   B1        1.0  0.00000  0.00000  0.20600  1.0000
  B   B2        1.0  0.50000  0.50000  0.20600  1.0000
  B   B3        1.0  0.17300  0.03880  0.50000  1.0000
  B   B4        1.0  0.41200  0.08840  0.50000  1.0000
  B   B5        1.0  0.96100  0.17300  0.50000  1.0000
  B   B6        1.0  0.46100  0.32700  0.50000  1.0000
  B   B7        1.0  0.91200  0.41200  0.50000  1.0000
  B   B8        1.0  0.67300  0.46100  0.50000  1.0000
  B   B9        1.0  0.32700  0.53900  0.50000  1.0000
  B   B10       1.0  0.08840  0.58800  0.50000  1.0000
  B   B11       1.0  0.53900  0.67300  0.50000  1.0000
  B   B12       1.0  0.03880  0.82700  0.50000  1.0000
  B   B13       1.0  0.58800  0.91200  0.50000  1.0000
  B   B14       1.0  0.82700  0.96100  0.50000  1.0000
  B   B15       1.0  0.00000  0.00000  0.79400  1.0000
  B   B16       1.0  0.50000  0.50000  0.79400  1.0000
  Ce  Ce1       1.0  0.68300  0.18300  0.00000  1.0000
  Ce  Ce2       1.0  0.18300  0.31700  0.00000  1.0000
  Ce  Ce3       1.0  0.81700  0.68300  0.00000  1.0000
  Ce  Ce4       1.0  0.31700  0.81700  0.00000  1.0000
