data_image0
_chemical_formula_structural       S12Sr4Zr4
_chemical_formula_sum              "S12 Sr4 Zr4"
_cell_length_a       7.18034
_cell_length_b       9.82557
_cell_length_c       6.76126
_cell_angle_alpha    90
_cell_angle_beta     90
_cell_angle_gamma    90

_space_group_name_H-M_alt    "P 1"
_space_group_IT_number       1

loop_
  _space_group_symop_operation_xyz
  'x, y, z'

loop_
  _atom_site_type_symbol
  _atom_site_label
  _atom_site_symmetry_multiplicity
  _atom_site_fract_x
  _atom_site_fract_y
  _atom_site_fract_z
  _atom_site_occupancy
  S   S1        1.0  0.52000  0.75000  0.09830  1.0000
  S   S2        1.0  0.80400  0.05100  0.19100  1.0000
  S   S3        1.0  0.80400  0.44900  0.19100  1.0000
  S   S4        1.0  0.30400  0.05100  0.30900  1.0000
  S   S5        1.0  0.30400  0.44900  0.30900  1.0000
  S   S6        1.0  0.02010  0.75000  0.40200  1.0000
  S   S7        1.0  0.98000  0.25000  0.59800  1.0000
  S   S8        1.0  0.69600  0.55100  0.69100  1.0000
  S   S9        1.0  0.69600  0.94900  0.69100  1.0000
  S   S10       1.0  0.19600  0.55100  0.80900  1.0000
  S   S11       1.0  0.19600  0.94900  0.80900  1.0000
  S   S12       1.0  0.48000  0.25000  0.90200  1.0000
  Sr  Sr1       1.0  0.08110  0.25000  0.02490  1.0000
  Sr  Sr2       1.0  0.58100  0.25000  0.47500  1.0000
  Sr  Sr3       1.0  0.41900  0.75000  0.52500  1.0000
  Sr  Sr4       1.0  0.91900  0.75000  0.97500  1.0000
  Zr  Zr1       1.0  0.50000  0.00000  0.00000  1.0000
  Zr  Zr2       1.0  0.50000  0.50000  0.00000  1.0000
  Zr  Zr3       1.0  0.00000  0.00000  0.50000  1.0000
  Zr  Zr4       1.0  0.00000  0.50000  0.50000  1.0000
