data_image0
_chemical_formula_structural       Be4K8O8
_chemical_formula_sum              "Be4 K8 O8"
_cell_length_a       7.06544
_cell_length_b       10.523
_cell_length_c       5.68806
_cell_angle_alpha    90
_cell_angle_beta     90
_cell_angle_gamma    131.513

_space_group_name_H-M_alt    "P 1"
_space_group_IT_number       1

loop_
  _space_group_symop_operation_xyz
  'x, y, z'

loop_
  _atom_site_type_symbol
  _atom_site_label
  _atom_site_symmetry_multiplicity
  _atom_site_fract_x
  _atom_site_fract_y
  _atom_site_fract_z
  _atom_site_occupancy
  Be  Be1       1.0  0.65100  0.02530  0.08420  1.0000
  Be  Be2       1.0  0.65100  0.52500  0.41600  1.0000
  Be  Be3       1.0  0.34900  0.47500  0.58400  1.0000
  Be  Be4       1.0  0.34900  0.97500  0.91600  1.0000
  K   K1        1.0  0.35700  0.26100  0.06650  1.0000
  K   K2        1.0  0.02800  0.38900  0.16200  1.0000
  K   K3        1.0  0.02800  0.88900  0.33800  1.0000
  K   K4        1.0  0.35700  0.76100  0.43400  1.0000
  K   K5        1.0  0.64300  0.23900  0.56600  1.0000
  K   K6        1.0  0.97200  0.11100  0.66200  1.0000
  K   K7        1.0  0.97200  0.61100  0.83800  1.0000
  K   K8        1.0  0.64300  0.73900  0.93400  1.0000
  O   O1        1.0  0.50700  0.09130  0.14000  1.0000
  O   O2        1.0  0.86900  0.06020  0.20500  1.0000
  O   O3        1.0  0.86900  0.56000  0.29500  1.0000
  O   O4        1.0  0.50700  0.59100  0.36000  1.0000
  O   O5        1.0  0.49300  0.40900  0.64000  1.0000
  O   O6        1.0  0.13100  0.44000  0.70500  1.0000
  O   O7        1.0  0.13100  0.94000  0.79500  1.0000
  O   O8        1.0  0.49300  0.90900  0.86000  1.0000
