data_image0
_chemical_formula_structural       Li8Sr12
_chemical_formula_sum              "Li8 Sr12"
_cell_length_a       9.61565
_cell_length_b       9.61565
_cell_length_c       8.55449
_cell_angle_alpha    90
_cell_angle_beta     90
_cell_angle_gamma    90

_space_group_name_H-M_alt    "P 1"
_space_group_IT_number       1

loop_
  _space_group_symop_operation_xyz
  'x, y, z'

loop_
  _atom_site_type_symbol
  _atom_site_label
  _atom_site_symmetry_multiplicity
  _atom_site_fract_x
  _atom_site_fract_y
  _atom_site_fract_z
  _atom_site_occupancy
  Li  Li1       1.0  0.61200  0.38800  0.18000  1.0000
  Li  Li2       1.0  0.38800  0.61200  0.18000  1.0000
  Li  Li3       1.0  0.11200  0.11200  0.32000  1.0000
  Li  Li4       1.0  0.88800  0.88800  0.32000  1.0000
  Li  Li5       1.0  0.11200  0.11200  0.68000  1.0000
  Li  Li6       1.0  0.88800  0.88800  0.68000  1.0000
  Li  Li7       1.0  0.61200  0.38800  0.82000  1.0000
  Li  Li8       1.0  0.38800  0.61200  0.82000  1.0000
  Sr  Sr1       1.0  0.85000  0.15000  0.00000  1.0000
  Sr  Sr2       1.0  0.28800  0.28800  0.00000  1.0000
  Sr  Sr3       1.0  0.71200  0.71200  0.00000  1.0000
  Sr  Sr4       1.0  0.15000  0.85000  0.00000  1.0000
  Sr  Sr5       1.0  0.50000  0.00000  0.25000  1.0000
  Sr  Sr6       1.0  0.00000  0.50000  0.25000  1.0000
  Sr  Sr7       1.0  0.78800  0.21200  0.50000  1.0000
  Sr  Sr8       1.0  0.35000  0.35000  0.50000  1.0000
  Sr  Sr9       1.0  0.65000  0.65000  0.50000  1.0000
  Sr  Sr10      1.0  0.21200  0.78800  0.50000  1.0000
  Sr  Sr11      1.0  0.50000  0.00000  0.75000  1.0000
  Sr  Sr12      1.0  0.00000  0.50000  0.75000  1.0000
