data_image0
_chemical_formula_structural       Ca6O12Te2
_chemical_formula_sum              "Ca6 O12 Te2"
_cell_length_a       5.56218
_cell_length_b       5.80302
_cell_length_c       8.00157
_cell_angle_alpha    90
_cell_angle_beta     90.334
_cell_angle_gamma    90

_space_group_name_H-M_alt    "P 1"
_space_group_IT_number       1

loop_
  _space_group_symop_operation_xyz
  'x, y, z'

loop_
  _atom_site_type_symbol
  _atom_site_label
  _atom_site_symmetry_multiplicity
  _atom_site_fract_x
  _atom_site_fract_y
  _atom_site_fract_z
  _atom_site_occupancy
  Ca  Ca1       1.0  0.50000  0.50000  1.00000  1.0000
  Ca  Ca2       1.0  0.51600  0.94500  0.24500  1.0000
  Ca  Ca3       1.0  0.98400  0.44500  0.25500  1.0000
  Ca  Ca4       1.0  0.00000  0.00000  0.50000  1.0000
  Ca  Ca5       1.0  0.01570  0.55500  0.74500  1.0000
  Ca  Ca6       1.0  0.48400  0.05480  0.75500  1.0000
  O   O1        1.0  0.71500  0.17900  0.05060  1.0000
  O   O2        1.0  0.83000  0.72200  0.07000  1.0000
  O   O3        1.0  0.11500  0.05440  0.22700  1.0000
  O   O4        1.0  0.38500  0.55400  0.27300  1.0000
  O   O5        1.0  0.67000  0.22200  0.43000  1.0000
  O   O6        1.0  0.78500  0.67900  0.44900  1.0000
  O   O7        1.0  0.21500  0.32100  0.55100  1.0000
  O   O8        1.0  0.33000  0.77800  0.57000  1.0000
  O   O9        1.0  0.61500  0.44600  0.72700  1.0000
  O   O10       1.0  0.88500  0.94600  0.77300  1.0000
  O   O11       1.0  0.17000  0.27800  0.93000  1.0000
  O   O12       1.0  0.28500  0.82100  0.94900  1.0000
  Te  Te1       1.0  0.00000  0.00000  0.00000  1.0000
  Te  Te2       1.0  0.50000  0.50000  0.50000  1.0000
