data_image0
_chemical_formula_structural       C4La2Na2O12
_chemical_formula_sum              "C4 La2 Na2 O12"
_cell_length_a       6.39867
_cell_length_b       7.13837
_cell_length_c       5.16276
_cell_angle_alpha    90
_cell_angle_beta     90
_cell_angle_gamma    90

_space_group_name_H-M_alt    "P 1"
_space_group_IT_number       1

loop_
  _space_group_symop_operation_xyz
  'x, y, z'

loop_
  _atom_site_type_symbol
  _atom_site_label
  _atom_site_symmetry_multiplicity
  _atom_site_fract_x
  _atom_site_fract_y
  _atom_site_fract_z
  _atom_site_occupancy
  C   C1        1.0  0.08500  0.41900  0.00000  1.0000
  C   C2        1.0  0.91500  0.91900  0.00000  1.0000
  C   C3        1.0  0.53600  0.17200  0.50000  1.0000
  C   C4        1.0  0.46400  0.67200  0.50000  1.0000
  La  La1       1.0  0.36700  0.00231  0.00000  1.0000
  La  La2       1.0  0.63300  0.50200  0.00000  1.0000
  Na  Na1       1.0  0.98300  0.20400  0.50000  1.0000
  Na  Na2       1.0  0.01650  0.70400  0.50000  1.0000
  O   O1        1.0  0.26800  0.33900  0.00000  1.0000
  O   O2        1.0  0.73200  0.83900  0.00000  1.0000
  O   O3        1.0  0.99000  0.45600  0.21400  1.0000
  O   O4        1.0  0.01040  0.95600  0.21400  1.0000
  O   O5        1.0  0.62600  0.20800  0.28000  1.0000
  O   O6        1.0  0.37400  0.70800  0.28000  1.0000
  O   O7        1.0  0.35600  0.09010  0.50000  1.0000
  O   O8        1.0  0.64400  0.59000  0.50000  1.0000
  O   O9        1.0  0.62600  0.20800  0.72000  1.0000
  O   O10       1.0  0.37400  0.70800  0.72000  1.0000
  O   O11       1.0  0.99000  0.45600  0.78600  1.0000
  O   O12       1.0  0.01040  0.95600  0.78600  1.0000
