data_image0
_chemical_formula_structural       S12Sc4Y4
_chemical_formula_sum              "S12 Sc4 Y4"
_cell_length_a       7.02135
_cell_length_b       6.38288
_cell_length_c       9.52421
_cell_angle_alpha    90
_cell_angle_beta     90
_cell_angle_gamma    90

_space_group_name_H-M_alt    "P 1"
_space_group_IT_number       1

loop_
  _space_group_symop_operation_xyz
  'x, y, z'

loop_
  _atom_site_type_symbol
  _atom_site_label
  _atom_site_symmetry_multiplicity
  _atom_site_fract_x
  _atom_site_fract_y
  _atom_site_fract_z
  _atom_site_occupancy
  S   S1        1.0  0.95300  0.64400  0.00905  1.0000
  S   S2        1.0  0.45300  0.85600  0.00905  1.0000
  S   S3        1.0  0.81400  0.17600  0.18800  1.0000
  S   S4        1.0  0.31400  0.32400  0.18800  1.0000
  S   S5        1.0  0.68400  0.67600  0.33000  1.0000
  S   S6        1.0  0.18400  0.82400  0.33000  1.0000
  S   S7        1.0  0.54700  0.14400  0.50900  1.0000
  S   S8        1.0  0.04730  0.35600  0.50900  1.0000
  S   S9        1.0  0.68600  0.67600  0.68800  1.0000
  S   S10       1.0  0.18600  0.82400  0.68800  1.0000
  S   S11       1.0  0.81600  0.17600  0.83000  1.0000
  S   S12       1.0  0.31600  0.32400  0.83000  1.0000
  Sc  Sc1       1.0  0.49800  0.00055  0.25900  1.0000
  Sc  Sc2       1.0  0.99800  0.49900  0.25900  1.0000
  Sc  Sc3       1.0  0.00183  0.50100  0.75900  1.0000
  Sc  Sc4       1.0  0.50200  0.99900  0.75900  1.0000
  Y   Y1        1.0  0.10200  0.04130  0.00889  1.0000
  Y   Y2        1.0  0.60200  0.45900  0.00889  1.0000
  Y   Y3        1.0  0.39800  0.54100  0.50900  1.0000
  Y   Y4        1.0  0.89800  0.95900  0.50900  1.0000
