data_image0
_chemical_formula_structural       Ho6O12Sc2
_chemical_formula_sum              "Ho6 O12 Sc2"
_cell_length_a       6.52593
_cell_length_b       6.52593
_cell_length_c       6.52593
_cell_angle_alpha    92.0911
_cell_angle_beta     92.0911
_cell_angle_gamma    92.0911

_space_group_name_H-M_alt    "P 1"
_space_group_IT_number       1

loop_
  _space_group_symop_operation_xyz
  'x, y, z'

loop_
  _atom_site_type_symbol
  _atom_site_label
  _atom_site_symmetry_multiplicity
  _atom_site_fract_x
  _atom_site_fract_y
  _atom_site_fract_z
  _atom_site_occupancy
  Ho  Ho1       1.0  0.25300  0.56100  0.06830  1.0000
  Ho  Ho2       1.0  0.56100  0.06830  0.25300  1.0000
  Ho  Ho3       1.0  0.93200  0.74700  0.43900  1.0000
  Ho  Ho4       1.0  0.06830  0.25300  0.56100  1.0000
  Ho  Ho5       1.0  0.43900  0.93200  0.74700  1.0000
  Ho  Ho6       1.0  0.74700  0.43900  0.93200  1.0000
  O   O1        1.0  0.30700  0.91300  0.07080  1.0000
  O   O2        1.0  0.92900  0.69300  0.08680  1.0000
  O   O3        1.0  0.53600  0.40600  0.19300  1.0000
  O   O4        1.0  0.91300  0.07080  0.30700  1.0000
  O   O5        1.0  0.19300  0.53600  0.40600  1.0000
  O   O6        1.0  0.59400  0.80700  0.46400  1.0000
  O   O7        1.0  0.40600  0.19300  0.53600  1.0000
  O   O8        1.0  0.80700  0.46400  0.59400  1.0000
  O   O9        1.0  0.08680  0.92900  0.69300  1.0000
  O   O10       1.0  0.46400  0.59400  0.80700  1.0000
  O   O11       1.0  0.07080  0.30700  0.91300  1.0000
  O   O12       1.0  0.69300  0.08680  0.92900  1.0000
  Sc  Sc1       1.0  0.00000  0.00000  0.00000  1.0000
  Sc  Sc2       1.0  0.50000  0.50000  0.50000  1.0000
