data_image0
_chemical_formula_structural       Ce4Cr4Se12
_chemical_formula_sum              "Ce4 Cr4 Se12"
_cell_length_a       8.18196
_cell_length_b       13.8073
_cell_length_c       3.99153
_cell_angle_alpha    90
_cell_angle_beta     90
_cell_angle_gamma    90

_space_group_name_H-M_alt    "P 1"
_space_group_IT_number       1

loop_
  _space_group_symop_operation_xyz
  'x, y, z'

loop_
  _atom_site_type_symbol
  _atom_site_label
  _atom_site_symmetry_multiplicity
  _atom_site_fract_x
  _atom_site_fract_y
  _atom_site_fract_z
  _atom_site_occupancy
  Ce  Ce1       1.0  0.09540  0.17100  0.25000  1.0000
  Ce  Ce2       1.0  0.59500  0.32900  0.25000  1.0000
  Ce  Ce3       1.0  0.40500  0.67100  0.75000  1.0000
  Ce  Ce4       1.0  0.90500  0.82900  0.75000  1.0000
  Cr  Cr1       1.0  0.83800  0.55100  0.25000  1.0000
  Cr  Cr2       1.0  0.33800  0.94900  0.25000  1.0000
  Cr  Cr3       1.0  0.66200  0.05130  0.75000  1.0000
  Cr  Cr4       1.0  0.16200  0.44900  0.75000  1.0000
  Se  Se1       1.0  0.48800  0.10700  0.25000  1.0000
  Se  Se2       1.0  0.98800  0.39300  0.25000  1.0000
  Se  Se3       1.0  0.34200  0.50400  0.25000  1.0000
  Se  Se4       1.0  0.69100  0.71200  0.25000  1.0000
  Se  Se5       1.0  0.19100  0.78800  0.25000  1.0000
  Se  Se6       1.0  0.84200  0.99600  0.25000  1.0000
  Se  Se7       1.0  0.15800  0.00354  0.75000  1.0000
  Se  Se8       1.0  0.80900  0.21200  0.75000  1.0000
  Se  Se9       1.0  0.30900  0.28800  0.75000  1.0000
  Se  Se10      1.0  0.65800  0.49600  0.75000  1.0000
  Se  Se11      1.0  0.01210  0.60700  0.75000  1.0000
  Se  Se12      1.0  0.51200  0.89300  0.75000  1.0000
