data_image0
_chemical_formula_structural       Ba4Cl2P14
_chemical_formula_sum              "Ba4 Cl2 P14"
_cell_length_a       11.8337
_cell_length_b       6.88819
_cell_length_c       6.39614
_cell_angle_alpha    90
_cell_angle_beta     95.2526
_cell_angle_gamma    90

_space_group_name_H-M_alt    "P 1"
_space_group_IT_number       1

loop_
  _space_group_symop_operation_xyz
  'x, y, z'

loop_
  _atom_site_type_symbol
  _atom_site_label
  _atom_site_symmetry_multiplicity
  _atom_site_fract_x
  _atom_site_fract_y
  _atom_site_fract_z
  _atom_site_occupancy
  Ba  Ba1       1.0  0.04570  0.25000  0.22900  1.0000
  Ba  Ba2       1.0  0.65300  0.25000  0.43300  1.0000
  Ba  Ba3       1.0  0.34700  0.75000  0.56700  1.0000
  Ba  Ba4       1.0  0.95400  0.75000  0.77100  1.0000
  Cl  Cl1       1.0  0.08890  0.75000  0.36500  1.0000
  Cl  Cl2       1.0  0.91100  0.25000  0.63500  1.0000
  P   P1        1.0  0.45000  0.25000  0.00913  1.0000
  P   P2        1.0  0.80500  0.50500  0.11700  1.0000
  P   P3        1.0  0.80500  0.99500  0.11700  1.0000
  P   P4        1.0  0.31300  0.07940  0.14600  1.0000
  P   P5        1.0  0.31300  0.42100  0.14600  1.0000
  P   P6        1.0  0.77800  0.75000  0.32200  1.0000
  P   P7        1.0  0.59300  0.75000  0.32600  1.0000
  P   P8        1.0  0.40700  0.25000  0.67400  1.0000
  P   P9        1.0  0.22200  0.25000  0.67800  1.0000
  P   P10       1.0  0.68700  0.57900  0.85400  1.0000
  P   P11       1.0  0.68700  0.92100  0.85400  1.0000
  P   P12       1.0  0.19500  0.00533  0.88300  1.0000
  P   P13       1.0  0.19500  0.49500  0.88300  1.0000
  P   P14       1.0  0.55000  0.75000  0.99100  1.0000
