data_image0
_chemical_formula_structural       Hf6Ni14
_chemical_formula_sum              "Hf6 Ni14"
_cell_length_a       6.50539
_cell_length_b       6.5629
_cell_length_c       7.61217
_cell_angle_alpha    103.372
_cell_angle_beta     104.633
_cell_angle_gamma    112.607

_space_group_name_H-M_alt    "P 1"
_space_group_IT_number       1

loop_
  _space_group_symop_operation_xyz
  'x, y, z'

loop_
  _atom_site_type_symbol
  _atom_site_label
  _atom_site_symmetry_multiplicity
  _atom_site_fract_x
  _atom_site_fract_y
  _atom_site_fract_z
  _atom_site_occupancy
  Hf  Hf1       1.0  0.49900  0.27100  0.13200  1.0000
  Hf  Hf2       1.0  0.09900  0.45500  0.22200  1.0000
  Hf  Hf3       1.0  0.15700  0.02520  0.37500  1.0000
  Hf  Hf4       1.0  0.84300  0.97500  0.62500  1.0000
  Hf  Hf5       1.0  0.90100  0.54500  0.77800  1.0000
  Hf  Hf6       1.0  0.50100  0.72900  0.86800  1.0000
  Ni  Ni1       1.0  0.00000  0.00000  0.00000  1.0000
  Ni  Ni2       1.0  0.81600  0.63800  0.09310  1.0000
  Ni  Ni3       1.0  0.27800  0.82600  0.10700  1.0000
  Ni  Ni4       1.0  0.77200  0.06430  0.21600  1.0000
  Ni  Ni5       1.0  0.55400  0.70000  0.26600  1.0000
  Ni  Ni6       1.0  0.89300  0.61500  0.44000  1.0000
  Ni  Ni7       1.0  0.61600  0.17400  0.45700  1.0000
  Ni  Ni8       1.0  0.50000  0.50000  0.50000  1.0000
  Ni  Ni9       1.0  0.38400  0.82600  0.54300  1.0000
  Ni  Ni10      1.0  0.10700  0.38500  0.56000  1.0000
  Ni  Ni11      1.0  0.44600  0.30000  0.73400  1.0000
  Ni  Ni12      1.0  0.22800  0.93600  0.78400  1.0000
  Ni  Ni13      1.0  0.72200  0.17400  0.89300  1.0000
  Ni  Ni14      1.0  0.18400  0.36200  0.90700  1.0000
