data_image0
_chemical_formula_structural       C4F4N4S4Sn4
_chemical_formula_sum              "C4 F4 N4 S4 Sn4"
_cell_length_a       7.5791
_cell_length_b       4.28023
_cell_length_c       11.7654
_cell_angle_alpha    90
_cell_angle_beta     90
_cell_angle_gamma    90

_space_group_name_H-M_alt    "P 1"
_space_group_IT_number       1

loop_
  _space_group_symop_operation_xyz
  'x, y, z'

loop_
  _atom_site_type_symbol
  _atom_site_label
  _atom_site_symmetry_multiplicity
  _atom_site_fract_x
  _atom_site_fract_y
  _atom_site_fract_z
  _atom_site_occupancy
  C   C1        1.0  0.56600  0.75000  0.11000  1.0000
  C   C2        1.0  0.06630  0.75000  0.39000  1.0000
  C   C3        1.0  0.93400  0.25000  0.61000  1.0000
  C   C4        1.0  0.43400  0.25000  0.89000  1.0000
  F   F1        1.0  0.08460  0.75000  0.02620  1.0000
  F   F2        1.0  0.58500  0.75000  0.47400  1.0000
  F   F3        1.0  0.41500  0.25000  0.52600  1.0000
  F   F4        1.0  0.91500  0.25000  0.97400  1.0000
  N   N1        1.0  0.68300  0.75000  0.04330  1.0000
  N   N2        1.0  0.18300  0.75000  0.45700  1.0000
  N   N3        1.0  0.81700  0.25000  0.54300  1.0000
  N   N4        1.0  0.31700  0.25000  0.95700  1.0000
  S   S1        1.0  0.41300  0.75000  0.20600  1.0000
  S   S2        1.0  0.91300  0.75000  0.29400  1.0000
  S   S3        1.0  0.08660  0.25000  0.70600  1.0000
  S   S4        1.0  0.58700  0.25000  0.79400  1.0000
  Sn  Sn1       1.0  0.13500  0.25000  0.10500  1.0000
  Sn  Sn2       1.0  0.63500  0.25000  0.39500  1.0000
  Sn  Sn3       1.0  0.36500  0.75000  0.60500  1.0000
  Sn  Sn4       1.0  0.86500  0.75000  0.89500  1.0000
