data_image0
_chemical_formula_structural       Ga4La4O4S8
_chemical_formula_sum              "Ga4 La4 O4 S8"
_cell_length_a       5.56819
_cell_length_b       5.78767
_cell_length_c       11.4845
_cell_angle_alpha    90
_cell_angle_beta     90
_cell_angle_gamma    90

_space_group_name_H-M_alt    "P 1"
_space_group_IT_number       1

loop_
  _space_group_symop_operation_xyz
  'x, y, z'

loop_
  _atom_site_type_symbol
  _atom_site_label
  _atom_site_symmetry_multiplicity
  _atom_site_fract_x
  _atom_site_fract_y
  _atom_site_fract_z
  _atom_site_occupancy
  Ga  Ga1       1.0  0.75000  0.52100  0.16300  1.0000
  Ga  Ga2       1.0  0.25000  0.52100  0.33700  1.0000
  Ga  Ga3       1.0  0.75000  0.47900  0.66300  1.0000
  Ga  Ga4       1.0  0.25000  0.47900  0.83700  1.0000
  La  La1       1.0  0.25000  0.15000  0.10800  1.0000
  La  La2       1.0  0.75000  0.15000  0.39200  1.0000
  La  La3       1.0  0.25000  0.85000  0.60800  1.0000
  La  La4       1.0  0.75000  0.85000  0.89200  1.0000
  O   O1        1.0  0.00000  0.37400  0.25000  1.0000
  O   O2        1.0  0.50000  0.37400  0.25000  1.0000
  O   O3        1.0  0.00000  0.62600  0.75000  1.0000
  O   O4        1.0  0.50000  0.62600  0.75000  1.0000
  S   S1        1.0  0.25000  0.65800  0.01200  1.0000
  S   S2        1.0  0.75000  0.90500  0.15400  1.0000
  S   S3        1.0  0.25000  0.90500  0.34600  1.0000
  S   S4        1.0  0.75000  0.65800  0.48800  1.0000
  S   S5        1.0  0.25000  0.34200  0.51200  1.0000
  S   S6        1.0  0.75000  0.09500  0.65400  1.0000
  S   S7        1.0  0.25000  0.09500  0.84600  1.0000
  S   S8        1.0  0.75000  0.34200  0.98800  1.0000
