data_image0
_chemical_formula_structural       B6La2O12
_chemical_formula_sum              "B6 La2 O12"
_cell_length_a       6.40774
_cell_length_b       6.40774
_cell_length_c       6.44567
_cell_angle_alpha    117.474
_cell_angle_beta     62.5264
_cell_angle_gamma    100.988

_space_group_name_H-M_alt    "P 1"
_space_group_IT_number       1

loop_
  _space_group_symop_operation_xyz
  'x, y, z'

loop_
  _atom_site_type_symbol
  _atom_site_label
  _atom_site_symmetry_multiplicity
  _atom_site_fract_x
  _atom_site_fract_y
  _atom_site_fract_z
  _atom_site_occupancy
  B   B1        1.0  0.70600  0.65800  0.08160  1.0000
  B   B2        1.0  0.27900  0.77900  0.25000  1.0000
  B   B3        1.0  0.15800  0.20600  0.41800  1.0000
  B   B4        1.0  0.84200  0.79400  0.58200  1.0000
  B   B5        1.0  0.72100  0.22100  0.75000  1.0000
  B   B6        1.0  0.29400  0.34200  0.91800  1.0000
  La  La1       1.0  0.69900  0.19900  0.25000  1.0000
  La  La2       1.0  0.30100  0.80100  0.75000  1.0000
  O   O1        1.0  0.11500  0.21300  0.00396  1.0000
  O   O2        1.0  0.29000  0.58500  0.00908  1.0000
  O   O3        1.0  0.28100  0.99300  0.21400  1.0000
  O   O4        1.0  0.49300  0.78100  0.28600  1.0000
  O   O5        1.0  0.08500  0.79000  0.49100  1.0000
  O   O6        1.0  0.71300  0.61500  0.49600  1.0000
  O   O7        1.0  0.28700  0.38500  0.50400  1.0000
  O   O8        1.0  0.91500  0.21000  0.50900  1.0000
  O   O9        1.0  0.50700  0.21900  0.71400  1.0000
  O   O10       1.0  0.71900  0.00691  0.78600  1.0000
  O   O11       1.0  0.71000  0.41500  0.99100  1.0000
  O   O12       1.0  0.88500  0.78700  0.99600  1.0000
