data_image0
_chemical_formula_structural       Br16Sn4
_chemical_formula_sum              "Br16 Sn4"
_cell_length_a       10.7
_cell_length_b       7.1665
_cell_length_c       10.7211
_cell_angle_alpha    90
_cell_angle_beta     103.11
_cell_angle_gamma    90

_space_group_name_H-M_alt    "P 1"
_space_group_IT_number       1

loop_
  _space_group_symop_operation_xyz
  'x, y, z'

loop_
  _atom_site_type_symbol
  _atom_site_label
  _atom_site_symmetry_multiplicity
  _atom_site_fract_x
  _atom_site_fract_y
  _atom_site_fract_z
  _atom_site_occupancy
  Br  Br1       1.0  0.19400  0.08300  0.05230  1.0000
  Br  Br2       1.0  0.68300  0.40500  0.07160  1.0000
  Br  Br3       1.0  0.06300  0.57700  0.18400  1.0000
  Br  Br4       1.0  0.57000  0.91400  0.19400  1.0000
  Br  Br5       1.0  0.43000  0.41400  0.30600  1.0000
  Br  Br6       1.0  0.93700  0.07700  0.31600  1.0000
  Br  Br7       1.0  0.31700  0.90500  0.42800  1.0000
  Br  Br8       1.0  0.80600  0.58300  0.44800  1.0000
  Br  Br9       1.0  0.19400  0.41700  0.55200  1.0000
  Br  Br10      1.0  0.68300  0.09500  0.57200  1.0000
  Br  Br11      1.0  0.06300  0.92300  0.68400  1.0000
  Br  Br12      1.0  0.57000  0.58600  0.69400  1.0000
  Br  Br13      1.0  0.43000  0.08630  0.80600  1.0000
  Br  Br14      1.0  0.93700  0.42300  0.81600  1.0000
  Br  Br15      1.0  0.31700  0.59500  0.92800  1.0000
  Br  Br16      1.0  0.80600  0.91700  0.94800  1.0000
  Sn  Sn1       1.0  0.75000  0.08010  0.13100  1.0000
  Sn  Sn2       1.0  0.25000  0.58000  0.36900  1.0000
  Sn  Sn3       1.0  0.75000  0.42000  0.63100  1.0000
  Sn  Sn4       1.0  0.25000  0.92000  0.86900  1.0000
