data_image0
_chemical_formula_structural       Cd4K8O8
_chemical_formula_sum              "Cd4 K8 O8"
_cell_length_a       9.95693
_cell_length_b       6.17626
_cell_length_c       6.21326
_cell_angle_alpha    90
_cell_angle_beta     90
_cell_angle_gamma    90

_space_group_name_H-M_alt    "P 1"
_space_group_IT_number       1

loop_
  _space_group_symop_operation_xyz
  'x, y, z'

loop_
  _atom_site_type_symbol
  _atom_site_label
  _atom_site_symmetry_multiplicity
  _atom_site_fract_x
  _atom_site_fract_y
  _atom_site_fract_z
  _atom_site_occupancy
  Cd  Cd1       1.0  0.00000  0.04040  0.25000  1.0000
  Cd  Cd2       1.0  0.50000  0.54000  0.25000  1.0000
  Cd  Cd3       1.0  0.50000  0.46000  0.75000  1.0000
  Cd  Cd4       1.0  0.00000  0.96000  0.75000  1.0000
  K   K1        1.0  0.34400  0.10100  0.10800  1.0000
  K   K2        1.0  0.15600  0.60100  0.10800  1.0000
  K   K3        1.0  0.65600  0.10100  0.39200  1.0000
  K   K4        1.0  0.84400  0.60100  0.39200  1.0000
  K   K5        1.0  0.15600  0.39900  0.60800  1.0000
  K   K6        1.0  0.34400  0.89900  0.60800  1.0000
  K   K7        1.0  0.84400  0.39900  0.89200  1.0000
  K   K8        1.0  0.65600  0.89900  0.89200  1.0000
  O   O1        1.0  0.60100  0.29700  0.02190  1.0000
  O   O2        1.0  0.89900  0.79700  0.02190  1.0000
  O   O3        1.0  0.39900  0.29700  0.47800  1.0000
  O   O4        1.0  0.10100  0.79700  0.47800  1.0000
  O   O5        1.0  0.89900  0.20300  0.52200  1.0000
  O   O6        1.0  0.60100  0.70300  0.52200  1.0000
  O   O7        1.0  0.10100  0.20300  0.97800  1.0000
  O   O8        1.0  0.39900  0.70300  0.97800  1.0000
