data_image0
_chemical_formula_structural       C12U8
_chemical_formula_sum              "C12 U8"
_cell_length_a       6.96461
_cell_length_b       6.96461
_cell_length_c       6.96461
_cell_angle_alpha    109.471
_cell_angle_beta     109.471
_cell_angle_gamma    109.471

_space_group_name_H-M_alt    "P 1"
_space_group_IT_number       1

loop_
  _space_group_symop_operation_xyz
  'x, y, z'

loop_
  _atom_site_type_symbol
  _atom_site_label
  _atom_site_symmetry_multiplicity
  _atom_site_fract_x
  _atom_site_fract_y
  _atom_site_fract_z
  _atom_site_occupancy
  C   C1        1.0  0.25000  0.28600  0.03570  1.0000
  C   C2        1.0  0.25000  0.46400  0.21400  1.0000
  C   C3        1.0  0.03570  0.78600  0.25000  1.0000
  C   C4        1.0  0.21400  0.96400  0.25000  1.0000
  C   C5        1.0  0.75000  0.03570  0.28600  1.0000
  C   C6        1.0  0.75000  0.21400  0.46400  1.0000
  C   C7        1.0  0.78600  0.75000  0.53600  1.0000
  C   C8        1.0  0.96400  0.75000  0.71400  1.0000
  C   C9        1.0  0.28600  0.53600  0.75000  1.0000
  C   C10       1.0  0.46400  0.71400  0.75000  1.0000
  C   C11       1.0  0.53600  0.25000  0.78600  1.0000
  C   C12       1.0  0.71400  0.25000  0.96400  1.0000
  U   U1        1.0  0.40200  0.00000  0.00000  1.0000
  U   U2        1.0  0.90200  0.00000  0.00000  1.0000
  U   U3        1.0  0.59800  0.59800  0.09840  1.0000
  U   U4        1.0  0.00000  0.50000  0.40200  1.0000
  U   U5        1.0  0.50000  0.40200  0.50000  1.0000
  U   U6        1.0  0.50000  0.90200  0.50000  1.0000
  U   U7        1.0  0.09840  0.09840  0.59800  1.0000
  U   U8        1.0  0.00000  0.50000  0.90200  1.0000
