data_image0
_chemical_formula_structural       Ag2O6Sb2
_chemical_formula_sum              "Ag2 O6 Sb2"
_cell_length_a       5.36427
_cell_length_b       5.36427
_cell_length_c       6.33578
_cell_angle_alpha    115.045
_cell_angle_beta     115.045
_cell_angle_gamma    60

_space_group_name_H-M_alt    "P 1"
_space_group_IT_number       1

loop_
  _space_group_symop_operation_xyz
  'x, y, z'

loop_
  _atom_site_type_symbol
  _atom_site_label
  _atom_site_symmetry_multiplicity
  _atom_site_fract_x
  _atom_site_fract_y
  _atom_site_fract_z
  _atom_site_occupancy
  Ag  Ag1       1.0  0.36100  0.36100  0.08310  1.0000
  Ag  Ag2       1.0  0.63900  0.63900  0.91700  1.0000
  O   O1        1.0  0.81100  0.04540  0.29500  1.0000
  O   O2        1.0  0.04540  0.43900  0.29500  1.0000
  O   O3        1.0  0.43900  0.81100  0.29500  1.0000
  O   O4        1.0  0.56100  0.18900  0.70500  1.0000
  O   O5        1.0  0.95500  0.56100  0.70500  1.0000
  O   O6        1.0  0.18900  0.95500  0.70500  1.0000
  Sb  Sb1       1.0  0.16300  0.16300  0.48800  1.0000
  Sb  Sb2       1.0  0.83700  0.83700  0.51200  1.0000
