data_image0
_chemical_formula_structural       AgBiCr4O14
_chemical_formula_sum              "Ag1 Bi1 Cr4 O14"
_cell_length_a       7.21549
_cell_length_b       7.21549
_cell_length_c       7.21549
_cell_angle_alpha    112.979
_cell_angle_beta     107.746
_cell_angle_gamma    107.746

_space_group_name_H-M_alt    "P 1"
_space_group_IT_number       1

loop_
  _space_group_symop_operation_xyz
  'x, y, z'

loop_
  _atom_site_type_symbol
  _atom_site_label
  _atom_site_symmetry_multiplicity
  _atom_site_fract_x
  _atom_site_fract_y
  _atom_site_fract_z
  _atom_site_occupancy
  Ag  Ag1       1.0  0.00000  0.56900  0.56900  1.0000
  Bi  Bi1       1.0  0.00000  0.99200  0.99200  1.0000
  Cr  Cr1       1.0  0.54200  0.95500  0.17200  1.0000
  Cr  Cr2       1.0  0.45800  0.63000  0.41300  1.0000
  Cr  Cr3       1.0  0.21700  0.17200  0.63000  1.0000
  Cr  Cr4       1.0  0.78300  0.41300  0.95500  1.0000
  O   O1        1.0  0.29900  0.90800  0.00024  1.0000
  O   O2        1.0  0.67600  0.91100  0.02630  1.0000
  O   O3        1.0  0.82000  0.53300  0.21400  1.0000
  O   O4        1.0  0.32400  0.35000  0.23500  1.0000
  O   O5        1.0  0.50000  0.75500  0.25500  1.0000
  O   O6        1.0  0.11500  0.02630  0.35000  1.0000
  O   O7        1.0  0.68100  0.21400  0.39400  1.0000
  O   O8        1.0  0.31900  0.71300  0.53300  1.0000
  O   O9        1.0  0.70100  0.70100  0.60900  1.0000
  O   O10       1.0  0.09250  0.00024  0.70100  1.0000
  O   O11       1.0  0.18000  0.39400  0.71300  1.0000
  O   O12       1.0  0.50000  0.25500  0.75500  1.0000
  O   O13       1.0  0.90700  0.60900  0.90800  1.0000
  O   O14       1.0  0.88500  0.23500  0.91100  1.0000
