data_image0
_chemical_formula_structural       Cl12O4P4
_chemical_formula_sum              "Cl12 O4 P4"
_cell_length_a       9.28791
_cell_length_b       9.38745
_cell_length_c       5.79423
_cell_angle_alpha    90
_cell_angle_beta     90
_cell_angle_gamma    90

_space_group_name_H-M_alt    "P 1"
_space_group_IT_number       1

loop_
  _space_group_symop_operation_xyz
  'x, y, z'

loop_
  _atom_site_type_symbol
  _atom_site_label
  _atom_site_symmetry_multiplicity
  _atom_site_fract_x
  _atom_site_fract_y
  _atom_site_fract_z
  _atom_site_occupancy
  Cl  Cl1       1.0  0.01630  0.74900  0.08970  1.0000
  Cl  Cl2       1.0  0.34500  0.08770  0.16600  1.0000
  Cl  Cl3       1.0  0.36000  0.42500  0.16600  1.0000
  Cl  Cl4       1.0  0.86000  0.42500  0.33400  1.0000
  Cl  Cl5       1.0  0.84500  0.08770  0.33400  1.0000
  Cl  Cl6       1.0  0.51600  0.74900  0.41000  1.0000
  Cl  Cl7       1.0  0.48400  0.24900  0.59000  1.0000
  Cl  Cl8       1.0  0.15500  0.58800  0.66600  1.0000
  Cl  Cl9       1.0  0.14000  0.92500  0.66600  1.0000
  Cl  Cl10      1.0  0.64000  0.92500  0.83400  1.0000
  Cl  Cl11      1.0  0.65500  0.58800  0.83400  1.0000
  Cl  Cl12      1.0  0.98400  0.24900  0.91000  1.0000
  O   O1        1.0  0.67600  0.26500  0.01810  1.0000
  O   O2        1.0  0.17600  0.26500  0.48200  1.0000
  O   O3        1.0  0.82400  0.76500  0.51800  1.0000
  O   O4        1.0  0.32400  0.76500  0.98200  1.0000
  P   P1        1.0  0.81800  0.25800  0.13000  1.0000
  P   P2        1.0  0.31800  0.25800  0.37000  1.0000
  P   P3        1.0  0.68200  0.75800  0.63000  1.0000
  P   P4        1.0  0.18200  0.75800  0.87000  1.0000
