data_image0
_chemical_formula_structural       Er6Ga2S12
_chemical_formula_sum              "Er6 Ga2 S12"
_cell_length_a       6.42008
_cell_length_b       8.45268
_cell_length_c       8.45268
_cell_angle_alpha    102.528
_cell_angle_beta     90
_cell_angle_gamma    90

_space_group_name_H-M_alt    "P 1"
_space_group_IT_number       1

loop_
  _space_group_symop_operation_xyz
  'x, y, z'

loop_
  _atom_site_type_symbol
  _atom_site_label
  _atom_site_symmetry_multiplicity
  _atom_site_fract_x
  _atom_site_fract_y
  _atom_site_fract_z
  _atom_site_occupancy
  Er  Er1       1.0  0.75300  0.28400  0.08570  1.0000
  Er  Er2       1.0  0.25300  0.08570  0.28400  1.0000
  Er  Er3       1.0  0.16300  0.59700  0.40300  1.0000
  Er  Er4       1.0  0.66300  0.40300  0.59700  1.0000
  Er  Er5       1.0  0.75300  0.91400  0.71600  1.0000
  Er  Er6       1.0  0.25300  0.71600  0.91400  1.0000
  Ga  Ga1       1.0  0.78800  0.79900  0.20100  1.0000
  Ga  Ga2       1.0  0.28800  0.20100  0.79900  1.0000
  S   S1        1.0  0.93600  0.96100  0.03940  1.0000
  S   S2        1.0  0.97100  0.56500  0.10100  1.0000
  S   S3        1.0  0.43500  0.78200  0.21800  1.0000
  S   S4        1.0  0.45700  0.36800  0.30700  1.0000
  S   S5        1.0  0.95700  0.30700  0.36800  1.0000
  S   S6        1.0  0.97100  0.89900  0.43500  1.0000
  S   S7        1.0  0.47100  0.10100  0.56500  1.0000
  S   S8        1.0  0.45700  0.69300  0.63200  1.0000
  S   S9        1.0  0.95700  0.63200  0.69300  1.0000
  S   S10       1.0  0.93500  0.21800  0.78200  1.0000
  S   S11       1.0  0.47100  0.43500  0.89900  1.0000
  S   S12       1.0  0.43600  0.03940  0.96100  1.0000
