data_image0
_chemical_formula_structural       Fe8Hf4Si8
_chemical_formula_sum              "Fe8 Hf4 Si8"
_cell_length_a       7.41316
_cell_length_b       7.02053
_cell_length_c       5.01178
_cell_angle_alpha    90
_cell_angle_beta     90
_cell_angle_gamma    90

_space_group_name_H-M_alt    "P 1"
_space_group_IT_number       1

loop_
  _space_group_symop_operation_xyz
  'x, y, z'

loop_
  _atom_site_type_symbol
  _atom_site_label
  _atom_site_symmetry_multiplicity
  _atom_site_fract_x
  _atom_site_fract_y
  _atom_site_fract_z
  _atom_site_occupancy
  Fe  Fe1       1.0  0.61000  0.25000  0.00000  1.0000
  Fe  Fe2       1.0  0.39000  0.75000  0.00000  1.0000
  Fe  Fe3       1.0  0.10900  0.48300  0.25000  1.0000
  Fe  Fe4       1.0  0.89100  0.98300  0.25000  1.0000
  Fe  Fe5       1.0  0.61000  0.25000  0.50000  1.0000
  Fe  Fe6       1.0  0.39000  0.75000  0.50000  1.0000
  Fe  Fe7       1.0  0.10900  0.01720  0.75000  1.0000
  Fe  Fe8       1.0  0.89100  0.51700  0.75000  1.0000
  Hf  Hf1       1.0  0.24800  0.09330  0.25000  1.0000
  Hf  Hf2       1.0  0.75200  0.59300  0.25000  1.0000
  Hf  Hf3       1.0  0.24800  0.40700  0.75000  1.0000
  Hf  Hf4       1.0  0.75200  0.90700  0.75000  1.0000
  Si  Si1       1.0  0.94300  0.25000  0.00000  1.0000
  Si  Si2       1.0  0.05710  0.75000  0.00000  1.0000
  Si  Si3       1.0  0.41400  0.45100  0.25000  1.0000
  Si  Si4       1.0  0.58600  0.95100  0.25000  1.0000
  Si  Si5       1.0  0.94300  0.25000  0.50000  1.0000
  Si  Si6       1.0  0.05710  0.75000  0.50000  1.0000
  Si  Si7       1.0  0.41400  0.04940  0.75000  1.0000
  Si  Si8       1.0  0.58600  0.54900  0.75000  1.0000
