data_image0
_chemical_formula_structural       As8Sc12
_chemical_formula_sum              "As8 Sc12"
_cell_length_a       10.3889
_cell_length_b       3.8125
_cell_length_c       10.2764
_cell_angle_alpha    90
_cell_angle_beta     90
_cell_angle_gamma    90

_space_group_name_H-M_alt    "P 1"
_space_group_IT_number       1

loop_
  _space_group_symop_operation_xyz
  'x, y, z'

loop_
  _atom_site_type_symbol
  _atom_site_label
  _atom_site_symmetry_multiplicity
  _atom_site_fract_x
  _atom_site_fract_y
  _atom_site_fract_z
  _atom_site_occupancy
  As  As1       1.0  0.81300  0.25000  0.00492  1.0000
  As  As2       1.0  0.51400  0.75000  0.17900  1.0000
  As  As3       1.0  0.01380  0.75000  0.32100  1.0000
  As  As4       1.0  0.31300  0.25000  0.49500  1.0000
  As  As5       1.0  0.68700  0.75000  0.50500  1.0000
  As  As6       1.0  0.98600  0.25000  0.67900  1.0000
  As  As7       1.0  0.48600  0.25000  0.82100  1.0000
  As  As8       1.0  0.18700  0.75000  0.99500  1.0000
  Sc  Sc1       1.0  0.37200  0.25000  0.06370  1.0000
  Sc  Sc2       1.0  0.04830  0.25000  0.13200  1.0000
  Sc  Sc3       1.0  0.77700  0.75000  0.20300  1.0000
  Sc  Sc4       1.0  0.27700  0.75000  0.29700  1.0000
  Sc  Sc5       1.0  0.54800  0.25000  0.36800  1.0000
  Sc  Sc6       1.0  0.87200  0.25000  0.43600  1.0000
  Sc  Sc7       1.0  0.12800  0.75000  0.56400  1.0000
  Sc  Sc8       1.0  0.45200  0.75000  0.63200  1.0000
  Sc  Sc9       1.0  0.72300  0.25000  0.70300  1.0000
  Sc  Sc10      1.0  0.22300  0.25000  0.79700  1.0000
  Sc  Sc11      1.0  0.95200  0.75000  0.86800  1.0000
  Sc  Sc12      1.0  0.62800  0.75000  0.93600  1.0000
