data_image0
_chemical_formula_structural       Ba2O14U4
_chemical_formula_sum              "Ba2 O14 U4"
_cell_length_a       7.16022
_cell_length_b       7.16022
_cell_length_c       7.80032
_cell_angle_alpha    117.321
_cell_angle_beta     117.321
_cell_angle_gamma    90

_space_group_name_H-M_alt    "P 1"
_space_group_IT_number       1

loop_
  _space_group_symop_operation_xyz
  'x, y, z'

loop_
  _atom_site_type_symbol
  _atom_site_label
  _atom_site_symmetry_multiplicity
  _atom_site_fract_x
  _atom_site_fract_y
  _atom_site_fract_z
  _atom_site_occupancy
  Ba  Ba1       1.0  0.12500  0.87500  0.25000  1.0000
  Ba  Ba2       1.0  0.87500  0.12500  0.75000  1.0000
  O   O1        1.0  0.23800  0.00000  0.00000  1.0000
  O   O2        1.0  0.76200  0.00000  0.00000  1.0000
  O   O3        1.0  0.23800  0.50000  0.00000  1.0000
  O   O4        1.0  0.76200  0.50000  0.00000  1.0000
  O   O5        1.0  0.60200  0.85200  0.20500  1.0000
  O   O6        1.0  0.62500  0.37500  0.25000  1.0000
  O   O7        1.0  0.14800  0.39800  0.29500  1.0000
  O   O8        1.0  1.00000  0.23800  0.50000  1.0000
  O   O9        1.0  0.50000  0.23800  0.50000  1.0000
  O   O10       1.0  1.00000  0.76200  0.50000  1.0000
  O   O11       1.0  0.50000  0.76200  0.50000  1.0000
  O   O12       1.0  0.85200  0.60200  0.70500  1.0000
  O   O13       1.0  0.37500  0.62500  0.75000  1.0000
  O   O14       1.0  0.39800  0.14800  0.79500  1.0000
  U   U1        1.0  0.50000  0.00000  0.00000  1.0000
  U   U2        1.0  0.50000  0.50000  0.00000  1.0000
  U   U3        1.0  1.00000  0.50000  0.50000  1.0000
  U   U4        1.0  0.50000  0.50000  0.50000  1.0000
