data_image0
_chemical_formula_structural       As4Cd8Cl8
_chemical_formula_sum              "As4 Cd8 Cl8"
_cell_length_a       7.93902
_cell_length_b       9.26267
_cell_length_c       8.2977
_cell_angle_alpha    90
_cell_angle_beta     120.107
_cell_angle_gamma    90

_space_group_name_H-M_alt    "P 1"
_space_group_IT_number       1

loop_
  _space_group_symop_operation_xyz
  'x, y, z'

loop_
  _atom_site_type_symbol
  _atom_site_label
  _atom_site_symmetry_multiplicity
  _atom_site_fract_x
  _atom_site_fract_y
  _atom_site_fract_z
  _atom_site_occupancy
  As  As1       1.0  0.07130  0.61700  0.06260  1.0000
  As  As2       1.0  0.92900  0.11700  0.43700  1.0000
  As  As3       1.0  0.07130  0.88300  0.56300  1.0000
  As  As4       1.0  0.92900  0.38300  0.93700  1.0000
  Cd  Cd1       1.0  0.04100  0.19800  0.20800  1.0000
  Cd  Cd2       1.0  0.44300  0.58400  0.24100  1.0000
  Cd  Cd3       1.0  0.55700  0.08370  0.25900  1.0000
  Cd  Cd4       1.0  0.95900  0.69800  0.29200  1.0000
  Cd  Cd5       1.0  0.04100  0.30200  0.70800  1.0000
  Cd  Cd6       1.0  0.44300  0.91600  0.74100  1.0000
  Cd  Cd7       1.0  0.55700  0.41600  0.75900  1.0000
  Cd  Cd8       1.0  0.95900  0.80200  0.79200  1.0000
  Cl  Cl1       1.0  0.58100  0.80500  0.08220  1.0000
  Cl  Cl2       1.0  0.24300  0.97100  0.19600  1.0000
  Cl  Cl3       1.0  0.75700  0.47100  0.30400  1.0000
  Cl  Cl4       1.0  0.41900  0.30500  0.41800  1.0000
  Cl  Cl5       1.0  0.58100  0.69500  0.58200  1.0000
  Cl  Cl6       1.0  0.24300  0.52900  0.69600  1.0000
  Cl  Cl7       1.0  0.75700  0.02940  0.80400  1.0000
  Cl  Cl8       1.0  0.41900  0.19500  0.91800  1.0000
