data_image0
_chemical_formula_structural       Cr4La4O4S8
_chemical_formula_sum              "Cr4 La4 O4 S8"
_cell_length_a       11.2341
_cell_length_b       8.48617
_cell_length_c       3.74528
_cell_angle_alpha    90
_cell_angle_beta     90
_cell_angle_gamma    90

_space_group_name_H-M_alt    "P 1"
_space_group_IT_number       1

loop_
  _space_group_symop_operation_xyz
  'x, y, z'

loop_
  _atom_site_type_symbol
  _atom_site_label
  _atom_site_symmetry_multiplicity
  _atom_site_fract_x
  _atom_site_fract_y
  _atom_site_fract_z
  _atom_site_occupancy
  Cr  Cr1       1.0  0.47200  0.16900  0.25000  1.0000
  Cr  Cr2       1.0  0.02840  0.66900  0.25000  1.0000
  Cr  Cr3       1.0  0.97200  0.33100  0.75000  1.0000
  Cr  Cr4       1.0  0.52800  0.83100  0.75000  1.0000
  La  La1       1.0  0.14800  0.04580  0.25000  1.0000
  La  La2       1.0  0.35200  0.54600  0.25000  1.0000
  La  La3       1.0  0.64800  0.45400  0.75000  1.0000
  La  La4       1.0  0.85200  0.95400  0.75000  1.0000
  O   O1        1.0  0.53600  0.38700  0.25000  1.0000
  O   O2        1.0  0.96400  0.88700  0.25000  1.0000
  O   O3        1.0  0.03630  0.11300  0.75000  1.0000
  O   O4        1.0  0.46400  0.61300  0.75000  1.0000
  S   S1        1.0  0.83100  0.25900  0.25000  1.0000
  S   S2        1.0  0.10200  0.40300  0.25000  1.0000
  S   S3        1.0  0.66900  0.75900  0.25000  1.0000
  S   S4        1.0  0.39800  0.90300  0.25000  1.0000
  S   S5        1.0  0.60200  0.09730  0.75000  1.0000
  S   S6        1.0  0.33100  0.24100  0.75000  1.0000
  S   S7        1.0  0.89800  0.59700  0.75000  1.0000
  S   S8        1.0  0.16900  0.74100  0.75000  1.0000
