data_image0
_chemical_formula_structural       Rh4S6
_chemical_formula_sum              "Rh4 S6"
_cell_length_a       6.01372
_cell_length_b       6.01372
_cell_length_c       6.33294
_cell_angle_alpha    118.346
_cell_angle_beta     61.6539
_cell_angle_gamma    120

_space_group_name_H-M_alt    "P 1"
_space_group_IT_number       1

loop_
  _space_group_symop_operation_xyz
  'x, y, z'

loop_
  _atom_site_type_symbol
  _atom_site_label
  _atom_site_symmetry_multiplicity
  _atom_site_fract_x
  _atom_site_fract_y
  _atom_site_fract_z
  _atom_site_occupancy
  Rh  Rh1       1.0  0.65000  0.35000  0.05090  1.0000
  Rh  Rh2       1.0  0.85000  0.15000  0.44900  1.0000
  Rh  Rh3       1.0  0.15000  0.85000  0.55100  1.0000
  Rh  Rh4       1.0  0.35000  0.65000  0.94900  1.0000
  S   S1        1.0  0.95100  0.45100  0.25000  1.0000
  S   S2        1.0  0.54900  0.75000  0.25000  1.0000
  S   S3        1.0  0.25000  0.04940  0.25000  1.0000
  S   S4        1.0  0.75000  0.95100  0.75000  1.0000
  S   S5        1.0  0.45100  0.25000  0.75000  1.0000
  S   S6        1.0  0.04940  0.54900  0.75000  1.0000
