data_image0
_chemical_formula_structural       Li2Na2O12V4
_chemical_formula_sum              "Li2 Na2 O12 V4"
_cell_length_a       5.79658
_cell_length_b       6.73534
_cell_length_c       6.73534
_cell_angle_alpha    96.9735
_cell_angle_beta     104.414
_cell_angle_gamma    75.5862

_space_group_name_H-M_alt    "P 1"
_space_group_IT_number       1

loop_
  _space_group_symop_operation_xyz
  'x, y, z'

loop_
  _atom_site_type_symbol
  _atom_site_label
  _atom_site_symmetry_multiplicity
  _atom_site_fract_x
  _atom_site_fract_y
  _atom_site_fract_z
  _atom_site_occupancy
  Li  Li1       1.0  0.75000  0.08350  0.08350  1.0000
  Li  Li2       1.0  0.25000  0.91600  0.91600  1.0000
  Na  Na1       1.0  0.25000  0.29200  0.29200  1.0000
  Na  Na2       1.0  0.75000  0.70800  0.70800  1.0000
  O   O1        1.0  0.64200  0.79300  0.01790  1.0000
  O   O2        1.0  0.79900  0.38300  0.08040  1.0000
  O   O3        1.0  0.14200  0.98200  0.20700  1.0000
  O   O4        1.0  0.53300  0.63700  0.35800  1.0000
  O   O5        1.0  0.03270  0.64200  0.36300  1.0000
  O   O6        1.0  0.70100  0.08040  0.38300  1.0000
  O   O7        1.0  0.29900  0.92000  0.61700  1.0000
  O   O8        1.0  0.96700  0.35800  0.63700  1.0000
  O   O9        1.0  0.46700  0.36300  0.64200  1.0000
  O   O10       1.0  0.85800  0.01790  0.79300  1.0000
  O   O11       1.0  0.20100  0.61700  0.92000  1.0000
  O   O12       1.0  0.35800  0.20700  0.98200  1.0000
  V   V1        1.0  0.74300  0.61800  0.19400  1.0000
  V   V2        1.0  0.24300  0.80600  0.38200  1.0000
  V   V3        1.0  0.75700  0.19400  0.61800  1.0000
  V   V4        1.0  0.25700  0.38200  0.80600  1.0000
