data_image0
_chemical_formula_structural       K8Te12
_chemical_formula_sum              "K8 Te12"
_cell_length_a       16.0103
_cell_length_b       10.3865
_cell_length_c       4.63516
_cell_angle_alpha    90
_cell_angle_beta     90
_cell_angle_gamma    90

_space_group_name_H-M_alt    "P 1"
_space_group_IT_number       1

loop_
  _space_group_symop_operation_xyz
  'x, y, z'

loop_
  _atom_site_type_symbol
  _atom_site_label
  _atom_site_symmetry_multiplicity
  _atom_site_fract_x
  _atom_site_fract_y
  _atom_site_fract_z
  _atom_site_occupancy
  K   K1        1.0  0.87700  0.02750  0.21700  1.0000
  K   K2        1.0  0.87700  0.47200  0.21700  1.0000
  K   K3        1.0  0.37700  0.02750  0.28300  1.0000
  K   K4        1.0  0.37700  0.47200  0.28300  1.0000
  K   K5        1.0  0.62300  0.52800  0.71700  1.0000
  K   K6        1.0  0.62300  0.97200  0.71700  1.0000
  K   K7        1.0  0.12300  0.52800  0.78300  1.0000
  K   K8        1.0  0.12300  0.97200  0.78300  1.0000
  Te  Te1       1.0  0.62200  0.25000  0.19000  1.0000
  Te  Te2       1.0  0.51900  0.75000  0.19600  1.0000
  Te  Te3       1.0  0.23900  0.75000  0.20900  1.0000
  Te  Te4       1.0  0.73900  0.75000  0.29100  1.0000
  Te  Te5       1.0  0.01940  0.75000  0.30400  1.0000
  Te  Te6       1.0  0.12200  0.25000  0.31000  1.0000
  Te  Te7       1.0  0.87800  0.75000  0.69000  1.0000
  Te  Te8       1.0  0.98100  0.25000  0.69600  1.0000
  Te  Te9       1.0  0.26100  0.25000  0.70900  1.0000
  Te  Te10      1.0  0.76100  0.25000  0.79100  1.0000
  Te  Te11      1.0  0.48100  0.25000  0.80400  1.0000
  Te  Te12      1.0  0.37800  0.75000  0.81000  1.0000
