data_image0
_chemical_formula_structural       O14S2Te4
_chemical_formula_sum              "O14 S2 Te4"
_cell_length_a       8.83333
_cell_length_b       6.87335
_cell_length_c       4.55821
_cell_angle_alpha    90
_cell_angle_beta     90
_cell_angle_gamma    90

_space_group_name_H-M_alt    "P 1"
_space_group_IT_number       1

loop_
  _space_group_symop_operation_xyz
  'x, y, z'

loop_
  _atom_site_type_symbol
  _atom_site_label
  _atom_site_symmetry_multiplicity
  _atom_site_fract_x
  _atom_site_fract_y
  _atom_site_fract_z
  _atom_site_occupancy
  O   O1        1.0  0.36100  0.96500  0.00952  1.0000
  O   O2        1.0  0.63900  0.96500  0.00952  1.0000
  O   O3        1.0  0.00000  0.15800  0.09040  1.0000
  O   O4        1.0  0.50000  0.59100  0.14800  1.0000
  O   O5        1.0  0.00000  0.80900  0.21000  1.0000
  O   O6        1.0  0.26200  0.40000  0.36200  1.0000
  O   O7        1.0  0.73800  0.40000  0.36200  1.0000
  O   O8        1.0  0.13900  0.03500  0.51000  1.0000
  O   O9        1.0  0.86100  0.03500  0.51000  1.0000
  O   O10       1.0  0.50000  0.84200  0.59000  1.0000
  O   O11       1.0  0.00000  0.40900  0.64800  1.0000
  O   O12       1.0  0.50000  0.19100  0.71000  1.0000
  O   O13       1.0  0.23800  0.60000  0.86200  1.0000
  O   O14       1.0  0.76200  0.60000  0.86200  1.0000
  S   S1        1.0  0.00000  0.00900  0.32600  1.0000
  S   S2        1.0  0.50000  0.99100  0.82600  1.0000
  Te  Te1       1.0  0.29800  0.68100  0.25100  1.0000
  Te  Te2       1.0  0.70200  0.68100  0.25100  1.0000
  Te  Te3       1.0  0.20200  0.31900  0.75100  1.0000
  Te  Te4       1.0  0.79800  0.31900  0.75100  1.0000
