data_image0
_chemical_formula_structural       As14Re6
_chemical_formula_sum              "As14 Re6"
_cell_length_a       7.65843
_cell_length_b       7.65843
_cell_length_c       7.65843
_cell_angle_alpha    109.471
_cell_angle_beta     109.471
_cell_angle_gamma    109.471

_space_group_name_H-M_alt    "P 1"
_space_group_IT_number       1

loop_
  _space_group_symop_operation_xyz
  'x, y, z'

loop_
  _atom_site_type_symbol
  _atom_site_label
  _atom_site_symmetry_multiplicity
  _atom_site_fract_x
  _atom_site_fract_y
  _atom_site_fract_z
  _atom_site_occupancy
  As  As1       1.0  0.33200  0.00000  0.00000  1.0000
  As  As2       1.0  0.66800  0.00000  0.00000  1.0000
  As  As3       1.0  0.00000  0.33200  0.00000  1.0000
  As  As4       1.0  0.00000  0.66800  0.00000  1.0000
  As  As5       1.0  0.75000  0.50000  0.25000  1.0000
  As  As6       1.0  0.50000  0.75000  0.25000  1.0000
  As  As7       1.0  0.00000  0.00000  0.33200  1.0000
  As  As8       1.0  0.33200  0.33200  0.33200  1.0000
  As  As9       1.0  0.75000  0.25000  0.50000  1.0000
  As  As10      1.0  0.25000  0.75000  0.50000  1.0000
  As  As11      1.0  0.00000  0.00000  0.66800  1.0000
  As  As12      1.0  0.66800  0.66800  0.66800  1.0000
  As  As13      1.0  0.50000  0.25000  0.75000  1.0000
  As  As14      1.0  0.25000  0.50000  0.75000  1.0000
  Re  Re1       1.0  0.34000  0.34000  0.00000  1.0000
  Re  Re2       1.0  0.66000  0.66000  0.00000  1.0000
  Re  Re3       1.0  0.34000  0.00000  0.34000  1.0000
  Re  Re4       1.0  0.00000  0.34000  0.34000  1.0000
  Re  Re5       1.0  0.66000  0.00000  0.66000  1.0000
  Re  Re6       1.0  0.00000  0.66000  0.66000  1.0000
