data_image0
_chemical_formula_structural       B8C8Sc4
_chemical_formula_sum              "B8 C8 Sc4"
_cell_length_a       5.27658
_cell_length_b       10.188
_cell_length_c       3.43564
_cell_angle_alpha    90
_cell_angle_beta     90
_cell_angle_gamma    90

_space_group_name_H-M_alt    "P 1"
_space_group_IT_number       1

loop_
  _space_group_symop_operation_xyz
  'x, y, z'

loop_
  _atom_site_type_symbol
  _atom_site_label
  _atom_site_symmetry_multiplicity
  _atom_site_fract_x
  _atom_site_fract_y
  _atom_site_fract_z
  _atom_site_occupancy
  B   B1        1.0  0.85600  0.03560  0.50000  1.0000
  B   B2        1.0  0.48600  0.18900  0.50000  1.0000
  B   B3        1.0  0.98600  0.31100  0.50000  1.0000
  B   B4        1.0  0.35600  0.46400  0.50000  1.0000
  B   B5        1.0  0.64400  0.53600  0.50000  1.0000
  B   B6        1.0  0.01350  0.68900  0.50000  1.0000
  B   B7        1.0  0.51400  0.81100  0.50000  1.0000
  B   B8        1.0  0.14400  0.96400  0.50000  1.0000
  C   C1        1.0  0.39300  0.04450  0.50000  1.0000
  C   C2        1.0  0.79600  0.19100  0.50000  1.0000
  C   C3        1.0  0.29600  0.30900  0.50000  1.0000
  C   C4        1.0  0.89300  0.45500  0.50000  1.0000
  C   C5        1.0  0.10700  0.54500  0.50000  1.0000
  C   C6        1.0  0.70400  0.69100  0.50000  1.0000
  C   C7        1.0  0.20400  0.80900  0.50000  1.0000
  C   C8        1.0  0.60700  0.95500  0.50000  1.0000
  Sc  Sc1       1.0  0.13700  0.14900  0.00000  1.0000
  Sc  Sc2       1.0  0.63700  0.35100  0.00000  1.0000
  Sc  Sc3       1.0  0.36300  0.64900  0.00000  1.0000
  Sc  Sc4       1.0  0.86300  0.85100  0.00000  1.0000
