data_image0
_chemical_formula_structural       Cs4O8P4S4
_chemical_formula_sum              "Cs4 O8 P4 S4"
_cell_length_a       7.72106
_cell_length_b       7.82143
_cell_length_c       8.53286
_cell_angle_alpha    95.8667
_cell_angle_beta     114.486
_cell_angle_gamma    75.9699

_space_group_name_H-M_alt    "P 1"
_space_group_IT_number       1

loop_
  _space_group_symop_operation_xyz
  'x, y, z'

loop_
  _atom_site_type_symbol
  _atom_site_label
  _atom_site_symmetry_multiplicity
  _atom_site_fract_x
  _atom_site_fract_y
  _atom_site_fract_z
  _atom_site_occupancy
  Cs  Cs1       1.0  0.34000  0.64000  0.16100  1.0000
  Cs  Cs2       1.0  0.14000  0.16800  0.36500  1.0000
  Cs  Cs3       1.0  0.86000  0.83200  0.63500  1.0000
  Cs  Cs4       1.0  0.66000  0.36000  0.83900  1.0000
  O   O1        1.0  0.92000  0.81100  0.00132  1.0000
  O   O2        1.0  0.43300  0.20700  0.05770  1.0000
  O   O3        1.0  0.75400  0.99300  0.17900  1.0000
  O   O4        1.0  0.48100  0.96700  0.27100  1.0000
  O   O5        1.0  0.51900  0.03320  0.72900  1.0000
  O   O6        1.0  0.24600  0.00693  0.82100  1.0000
  O   O7        1.0  0.56700  0.79300  0.94200  1.0000
  O   O8        1.0  0.08030  0.18900  0.99900  1.0000
  P   P1        1.0  0.78800  0.79900  0.08610  1.0000
  P   P2        1.0  0.57600  0.09560  0.23600  1.0000
  P   P3        1.0  0.42400  0.90400  0.76400  1.0000
  P   P4        1.0  0.21200  0.20100  0.91400  1.0000
  S   S1        1.0  0.85800  0.60500  0.24500  1.0000
  S   S2        1.0  0.68200  0.26600  0.41600  1.0000
  S   S3        1.0  0.31800  0.73400  0.58400  1.0000
  S   S4        1.0  0.14200  0.39500  0.75500  1.0000
