data_image0
_chemical_formula_structural       Cl12Fe4K4
_chemical_formula_sum              "Cl12 Fe4 K4"
_cell_length_a       8.69928
_cell_length_b       3.86456
_cell_length_c       14.1258
_cell_angle_alpha    90
_cell_angle_beta     90
_cell_angle_gamma    90

_space_group_name_H-M_alt    "P 1"
_space_group_IT_number       1

loop_
  _space_group_symop_operation_xyz
  'x, y, z'

loop_
  _atom_site_type_symbol
  _atom_site_label
  _atom_site_symmetry_multiplicity
  _atom_site_fract_x
  _atom_site_fract_y
  _atom_site_fract_z
  _atom_site_occupancy
  Cl  Cl1       1.0  0.67900  0.25000  0.00713  1.0000
  Cl  Cl2       1.0  0.97900  0.75000  0.09810  1.0000
  Cl  Cl3       1.0  0.27600  0.25000  0.20200  1.0000
  Cl  Cl4       1.0  0.77600  0.25000  0.29800  1.0000
  Cl  Cl5       1.0  0.47900  0.75000  0.40200  1.0000
  Cl  Cl6       1.0  0.17900  0.25000  0.49300  1.0000
  Cl  Cl7       1.0  0.82100  0.75000  0.50700  1.0000
  Cl  Cl8       1.0  0.52100  0.25000  0.59800  1.0000
  Cl  Cl9       1.0  0.22400  0.75000  0.70200  1.0000
  Cl  Cl10      1.0  0.72400  0.75000  0.79800  1.0000
  Cl  Cl11      1.0  0.02050  0.25000  0.90200  1.0000
  Cl  Cl12      1.0  0.32100  0.75000  0.99300  1.0000
  Fe  Fe1       1.0  0.16500  0.25000  0.05080  1.0000
  Fe  Fe2       1.0  0.66500  0.25000  0.44900  1.0000
  Fe  Fe3       1.0  0.33500  0.75000  0.55100  1.0000
  Fe  Fe4       1.0  0.83500  0.75000  0.94900  1.0000
  K   K1        1.0  0.56600  0.75000  0.17300  1.0000
  K   K2        1.0  0.06600  0.75000  0.32700  1.0000
  K   K3        1.0  0.93400  0.25000  0.67300  1.0000
  K   K4        1.0  0.43400  0.25000  0.82700  1.0000
