data_image0
_chemical_formula_structural       B8Ir4Mo8
_chemical_formula_sum              "B8 Ir4 Mo8"
_cell_length_a       9.44636
_cell_length_b       7.40181
_cell_length_c       3.24998
_cell_angle_alpha    90
_cell_angle_beta     90
_cell_angle_gamma    90

_space_group_name_H-M_alt    "P 1"
_space_group_IT_number       1

loop_
  _space_group_symop_operation_xyz
  'x, y, z'

loop_
  _atom_site_type_symbol
  _atom_site_label
  _atom_site_symmetry_multiplicity
  _atom_site_fract_x
  _atom_site_fract_y
  _atom_site_fract_z
  _atom_site_occupancy
  B   B1        1.0  0.76300  0.37600  0.00000  1.0000
  B   B2        1.0  0.96000  0.38400  0.00000  1.0000
  B   B3        1.0  0.04030  0.61600  0.00000  1.0000
  B   B4        1.0  0.23700  0.62400  0.00000  1.0000
  B   B5        1.0  0.46000  0.11600  0.50000  1.0000
  B   B6        1.0  0.26300  0.12400  0.50000  1.0000
  B   B7        1.0  0.73700  0.87600  0.50000  1.0000
  B   B8        1.0  0.54000  0.88400  0.50000  1.0000
  Ir  Ir1       1.0  0.11100  0.12100  0.00000  1.0000
  Ir  Ir2       1.0  0.88900  0.87900  0.00000  1.0000
  Ir  Ir3       1.0  0.61100  0.37900  0.50000  1.0000
  Ir  Ir4       1.0  0.38900  0.62100  0.50000  1.0000
  Mo  Mo1       1.0  0.63800  0.07220  0.00000  1.0000
  Mo  Mo2       1.0  0.36900  0.31000  0.00000  1.0000
  Mo  Mo3       1.0  0.63100  0.69000  0.00000  1.0000
  Mo  Mo4       1.0  0.36200  0.92800  0.00000  1.0000
  Mo  Mo5       1.0  0.86900  0.19000  0.50000  1.0000
  Mo  Mo6       1.0  0.13800  0.42800  0.50000  1.0000
  Mo  Mo7       1.0  0.86200  0.57200  0.50000  1.0000
  Mo  Mo8       1.0  0.13100  0.81000  0.50000  1.0000
