data_image0
_chemical_formula_structural       B6Nd2O12
_chemical_formula_sum              "B6 Nd2 O12"
_cell_length_a       6.32774
_cell_length_b       6.32774
_cell_length_c       6.3265
_cell_angle_alpha    116.995
_cell_angle_beta     63.0054
_cell_angle_gamma    100.793

_space_group_name_H-M_alt    "P 1"
_space_group_IT_number       1

loop_
  _space_group_symop_operation_xyz
  'x, y, z'

loop_
  _atom_site_type_symbol
  _atom_site_label
  _atom_site_symmetry_multiplicity
  _atom_site_fract_x
  _atom_site_fract_y
  _atom_site_fract_z
  _atom_site_occupancy
  B   B1        1.0  0.70900  0.65800  0.08450  1.0000
  B   B2        1.0  0.28000  0.78000  0.25000  1.0000
  B   B3        1.0  0.15800  0.20900  0.41600  1.0000
  B   B4        1.0  0.84200  0.79100  0.58400  1.0000
  B   B5        1.0  0.72000  0.22000  0.75000  1.0000
  B   B6        1.0  0.29100  0.34200  0.91600  1.0000
  Nd  Nd1       1.0  0.69700  0.19700  0.25000  1.0000
  Nd  Nd2       1.0  0.30300  0.80300  0.75000  1.0000
  O   O1        1.0  0.11000  0.21200  0.00081  1.0000
  O   O2        1.0  0.29100  0.58700  0.00646  1.0000
  O   O3        1.0  0.28500  0.99600  0.21000  1.0000
  O   O4        1.0  0.49600  0.78500  0.29000  1.0000
  O   O5        1.0  0.08680  0.79100  0.49400  1.0000
  O   O6        1.0  0.71200  0.61000  0.49900  1.0000
  O   O7        1.0  0.28800  0.39000  0.50100  1.0000
  O   O8        1.0  0.91300  0.20900  0.50600  1.0000
  O   O9        1.0  0.50400  0.21500  0.71000  1.0000
  O   O10       1.0  0.71500  0.00355  0.79000  1.0000
  O   O11       1.0  0.70900  0.41300  0.99400  1.0000
  O   O12       1.0  0.89000  0.78800  0.99900  1.0000
