data_image0
_chemical_formula_structural       Cl12K4Mn4
_chemical_formula_sum              "Cl12 K4 Mn4"
_cell_length_a       7.09105
_cell_length_b       9.98262
_cell_length_c       6.96401
_cell_angle_alpha    90
_cell_angle_beta     90
_cell_angle_gamma    90

_space_group_name_H-M_alt    "P 1"
_space_group_IT_number       1

loop_
  _space_group_symop_operation_xyz
  'x, y, z'

loop_
  _atom_site_type_symbol
  _atom_site_label
  _atom_site_symmetry_multiplicity
  _atom_site_fract_x
  _atom_site_fract_y
  _atom_site_fract_z
  _atom_site_occupancy
  Cl  Cl1       1.0  0.49500  0.25000  0.06270  1.0000
  Cl  Cl2       1.0  0.20600  0.53200  0.20600  1.0000
  Cl  Cl3       1.0  0.20600  0.96800  0.20600  1.0000
  Cl  Cl4       1.0  0.70600  0.53200  0.29400  1.0000
  Cl  Cl5       1.0  0.70600  0.96800  0.29400  1.0000
  Cl  Cl6       1.0  0.99500  0.25000  0.43700  1.0000
  Cl  Cl7       1.0  0.00544  0.75000  0.56300  1.0000
  Cl  Cl8       1.0  0.29400  0.03180  0.70600  1.0000
  Cl  Cl9       1.0  0.29400  0.46800  0.70600  1.0000
  Cl  Cl10      1.0  0.79400  0.03180  0.79400  1.0000
  Cl  Cl11      1.0  0.79400  0.46800  0.79400  1.0000
  Cl  Cl12      1.0  0.50500  0.75000  0.93700  1.0000
  K   K1        1.0  0.94900  0.75000  0.01320  1.0000
  K   K2        1.0  0.44900  0.75000  0.48700  1.0000
  K   K3        1.0  0.55100  0.25000  0.51300  1.0000
  K   K4        1.0  0.05070  0.25000  0.98700  1.0000
  Mn  Mn1       1.0  0.50000  0.00000  0.00000  1.0000
  Mn  Mn2       1.0  0.50000  0.50000  0.00000  1.0000
  Mn  Mn3       1.0  0.00000  0.00000  0.50000  1.0000
  Mn  Mn4       1.0  0.00000  0.50000  0.50000  1.0000
