data_image0
_chemical_formula_structural       Au2I4K10O4
_chemical_formula_sum              "Au2 I4 K10 O4"
_cell_length_a       14.1222
_cell_length_b       7.24454
_cell_length_c       5.52545
_cell_angle_alpha    90
_cell_angle_beta     90
_cell_angle_gamma    90

_space_group_name_H-M_alt    "P 1"
_space_group_IT_number       1

loop_
  _space_group_symop_operation_xyz
  'x, y, z'

loop_
  _atom_site_type_symbol
  _atom_site_label
  _atom_site_symmetry_multiplicity
  _atom_site_fract_x
  _atom_site_fract_y
  _atom_site_fract_z
  _atom_site_occupancy
  Au  Au1       1.0  0.00000  0.00000  0.00000  1.0000
  Au  Au2       1.0  0.50000  0.50000  0.00000  1.0000
  I   I1        1.0  0.35500  0.15100  0.50000  1.0000
  I   I2        1.0  0.85500  0.34900  0.50000  1.0000
  I   I3        1.0  0.14500  0.65100  0.50000  1.0000
  I   I4        1.0  0.64500  0.84900  0.50000  1.0000
  K   K1        1.0  0.50000  0.00000  0.00000  1.0000
  K   K2        1.0  0.76200  0.10100  0.00000  1.0000
  K   K3        1.0  0.26200  0.39900  0.00000  1.0000
  K   K4        1.0  0.00000  0.50000  0.00000  1.0000
  K   K5        1.0  0.73800  0.60100  0.00000  1.0000
  K   K6        1.0  0.23800  0.89900  0.00000  1.0000
  K   K7        1.0  0.10100  0.17000  0.50000  1.0000
  K   K8        1.0  0.60100  0.33000  0.50000  1.0000
  K   K9        1.0  0.39900  0.67000  0.50000  1.0000
  K   K10       1.0  0.89900  0.83000  0.50000  1.0000
  O   O1        1.0  0.11100  0.18300  0.00000  1.0000
  O   O2        1.0  0.61100  0.31700  0.00000  1.0000
  O   O3        1.0  0.38900  0.68300  0.00000  1.0000
  O   O4        1.0  0.88900  0.81700  0.00000  1.0000
