data_image0
_chemical_formula_structural       CdCu3O12Ti4
_chemical_formula_sum              "Cd1 Cu3 O12 Ti4"
_cell_length_a       6.40248
_cell_length_b       6.40248
_cell_length_c       6.40248
_cell_angle_alpha    109.471
_cell_angle_beta     109.471
_cell_angle_gamma    109.471

_space_group_name_H-M_alt    "P 1"
_space_group_IT_number       1

loop_
  _space_group_symop_operation_xyz
  'x, y, z'

loop_
  _atom_site_type_symbol
  _atom_site_label
  _atom_site_symmetry_multiplicity
  _atom_site_fract_x
  _atom_site_fract_y
  _atom_site_fract_z
  _atom_site_occupancy
  Cd  Cd1       1.0  0.00000  0.00000  0.00000  1.0000
  Cu  Cu1       1.0  0.50000  0.50000  0.00000  1.0000
  Cu  Cu2       1.0  0.50000  0.00000  0.50000  1.0000
  Cu  Cu3       1.0  0.00000  0.50000  0.50000  1.0000
  O   O1        1.0  0.82200  0.30600  0.12800  1.0000
  O   O2        1.0  0.30600  0.48400  0.17800  1.0000
  O   O3        1.0  0.69400  0.87200  0.17800  1.0000
  O   O4        1.0  0.48400  0.17800  0.30600  1.0000
  O   O5        1.0  0.12800  0.82200  0.30600  1.0000
  O   O6        1.0  0.17800  0.30600  0.48400  1.0000
  O   O7        1.0  0.82200  0.69400  0.51600  1.0000
  O   O8        1.0  0.87200  0.17800  0.69400  1.0000
  O   O9        1.0  0.51600  0.82200  0.69400  1.0000
  O   O10       1.0  0.30600  0.12800  0.82200  1.0000
  O   O11       1.0  0.69400  0.51600  0.82200  1.0000
  O   O12       1.0  0.17800  0.69400  0.87200  1.0000
  Ti  Ti1       1.0  0.50000  0.00000  0.00000  1.0000
  Ti  Ti2       1.0  0.00000  0.50000  0.00000  1.0000
  Ti  Ti3       1.0  0.00000  0.00000  0.50000  1.0000
  Ti  Ti4       1.0  0.50000  0.50000  0.50000  1.0000
