data_image0
_chemical_formula_structural       Gd2Lu6S12
_chemical_formula_sum              "Gd2 Lu6 S12"
_cell_length_a       10.8702
_cell_length_b       11.1186
_cell_length_c       3.8855
_cell_angle_alpha    90
_cell_angle_beta     90
_cell_angle_gamma    108.984

_space_group_name_H-M_alt    "P 1"
_space_group_IT_number       1

loop_
  _space_group_symop_operation_xyz
  'x, y, z'

loop_
  _atom_site_type_symbol
  _atom_site_label
  _atom_site_symmetry_multiplicity
  _atom_site_fract_x
  _atom_site_fract_y
  _atom_site_fract_z
  _atom_site_occupancy
  Gd  Gd1       1.0  0.54700  0.19400  0.25000  1.0000
  Gd  Gd2       1.0  0.45300  0.80600  0.75000  1.0000
  Lu  Lu1       1.0  0.18100  0.00195  0.25000  1.0000
  Lu  Lu2       1.0  0.93700  0.33300  0.25000  1.0000
  Lu  Lu3       1.0  0.66100  0.58500  0.25000  1.0000
  Lu  Lu4       1.0  0.33900  0.41500  0.75000  1.0000
  Lu  Lu5       1.0  0.06260  0.66700  0.75000  1.0000
  Lu  Lu6       1.0  0.81900  0.99800  0.75000  1.0000
  S   S1        1.0  0.97800  0.11300  0.25000  1.0000
  S   S2        1.0  0.30500  0.25100  0.25000  1.0000
  S   S3        1.0  0.89500  0.56000  0.25000  1.0000
  S   S4        1.0  0.41800  0.59500  0.25000  1.0000
  S   S5        1.0  0.23900  0.77400  0.25000  1.0000
  S   S6        1.0  0.61500  0.96400  0.25000  1.0000
  S   S7        1.0  0.38500  0.03630  0.75000  1.0000
  S   S8        1.0  0.76100  0.22600  0.75000  1.0000
  S   S9        1.0  0.58200  0.40500  0.75000  1.0000
  S   S10       1.0  0.10500  0.44000  0.75000  1.0000
  S   S11       1.0  0.69500  0.74900  0.75000  1.0000
  S   S12       1.0  0.02240  0.88700  0.75000  1.0000
