data_image0
_chemical_formula_structural       F4Na4Nb4O8
_chemical_formula_sum              "F4 Na4 Nb4 O8"
_cell_length_a       5.46301
_cell_length_b       5.55954
_cell_length_c       7.99566
_cell_angle_alpha    90
_cell_angle_beta     90
_cell_angle_gamma    90

_space_group_name_H-M_alt    "P 1"
_space_group_IT_number       1

loop_
  _space_group_symop_operation_xyz
  'x, y, z'

loop_
  _atom_site_type_symbol
  _atom_site_label
  _atom_site_symmetry_multiplicity
  _atom_site_fract_x
  _atom_site_fract_y
  _atom_site_fract_z
  _atom_site_occupancy
  F   F1        1.0  0.12900  0.46600  0.25000  1.0000
  F   F2        1.0  0.37100  0.96600  0.25000  1.0000
  F   F3        1.0  0.62900  0.03370  0.75000  1.0000
  F   F4        1.0  0.87100  0.53400  0.75000  1.0000
  Na  Na1       1.0  0.96500  0.03550  0.25000  1.0000
  Na  Na2       1.0  0.53500  0.53600  0.25000  1.0000
  Na  Na3       1.0  0.46500  0.46400  0.75000  1.0000
  Na  Na4       1.0  0.03450  0.96400  0.75000  1.0000
  Nb  Nb1       1.0  0.50000  0.00000  0.00000  1.0000
  Nb  Nb2       1.0  0.00000  0.50000  0.00000  1.0000
  Nb  Nb3       1.0  0.50000  0.00000  0.50000  1.0000
  Nb  Nb4       1.0  0.00000  0.50000  0.50000  1.0000
  O   O1        1.0  0.71800  0.28000  0.04730  1.0000
  O   O2        1.0  0.78200  0.78000  0.04730  1.0000
  O   O3        1.0  0.71800  0.28000  0.45300  1.0000
  O   O4        1.0  0.78200  0.78000  0.45300  1.0000
  O   O5        1.0  0.21800  0.22000  0.54700  1.0000
  O   O6        1.0  0.28200  0.72000  0.54700  1.0000
  O   O7        1.0  0.21800  0.22000  0.95300  1.0000
  O   O8        1.0  0.28200  0.72000  0.95300  1.0000
