data_image0
_chemical_formula_structural       Br12Nb4Se4
_chemical_formula_sum              "Br12 Nb4 Se4"
_cell_length_a       12.6569
_cell_length_b       6.99176
_cell_length_c       6.66611
_cell_angle_alpha    90
_cell_angle_beta     99.0877
_cell_angle_gamma    90

_space_group_name_H-M_alt    "P 1"
_space_group_IT_number       1

loop_
  _space_group_symop_operation_xyz
  'x, y, z'

loop_
  _atom_site_type_symbol
  _atom_site_label
  _atom_site_symmetry_multiplicity
  _atom_site_fract_x
  _atom_site_fract_y
  _atom_site_fract_z
  _atom_site_occupancy
  Br  Br1       1.0  0.04250  0.31500  0.15700  1.0000
  Br  Br2       1.0  0.54200  0.68500  0.15700  1.0000
  Br  Br3       1.0  0.80600  0.56600  0.25400  1.0000
  Br  Br4       1.0  0.30600  0.43400  0.25400  1.0000
  Br  Br5       1.0  0.57500  0.20300  0.36400  1.0000
  Br  Br6       1.0  0.07480  0.79700  0.36400  1.0000
  Br  Br7       1.0  0.92500  0.20300  0.63600  1.0000
  Br  Br8       1.0  0.42500  0.79700  0.63600  1.0000
  Br  Br9       1.0  0.69400  0.56600  0.74600  1.0000
  Br  Br10      1.0  0.19400  0.43400  0.74600  1.0000
  Br  Br11      1.0  0.95800  0.68500  0.84300  1.0000
  Br  Br12      1.0  0.45800  0.31500  0.84300  1.0000
  Nb  Nb1       1.0  0.65000  0.36000  0.07140  1.0000
  Nb  Nb2       1.0  0.15000  0.64000  0.07140  1.0000
  Nb  Nb3       1.0  0.35000  0.64000  0.92900  1.0000
  Nb  Nb4       1.0  0.85000  0.36000  0.92900  1.0000
  Se  Se1       1.0  0.30000  0.91000  0.16400  1.0000
  Se  Se2       1.0  0.80000  0.09010  0.16400  1.0000
  Se  Se3       1.0  0.70000  0.09010  0.83600  1.0000
  Se  Se4       1.0  0.20000  0.91000  0.83600  1.0000
