data_image0
_chemical_formula_structural       Ba8Ge4P8
_chemical_formula_sum              "Ba8 Ge4 P8"
_cell_length_a       8.6552
_cell_length_b       9.62661
_cell_length_c       7.5725
_cell_angle_alpha    90
_cell_angle_beta     106.032
_cell_angle_gamma    90

_space_group_name_H-M_alt    "P 1"
_space_group_IT_number       1

loop_
  _space_group_symop_operation_xyz
  'x, y, z'

loop_
  _atom_site_type_symbol
  _atom_site_label
  _atom_site_symmetry_multiplicity
  _atom_site_fract_x
  _atom_site_fract_y
  _atom_site_fract_z
  _atom_site_occupancy
  Ba  Ba1       1.0  0.47800  0.16400  0.10100  1.0000
  Ba  Ba2       1.0  0.99300  0.14000  0.24000  1.0000
  Ba  Ba3       1.0  0.00738  0.64000  0.26000  1.0000
  Ba  Ba4       1.0  0.52200  0.66400  0.39900  1.0000
  Ba  Ba5       1.0  0.47800  0.33600  0.60100  1.0000
  Ba  Ba6       1.0  0.99300  0.36000  0.74000  1.0000
  Ba  Ba7       1.0  0.00738  0.86000  0.76000  1.0000
  Ba  Ba8       1.0  0.52200  0.83600  0.89900  1.0000
  Ge  Ge1       1.0  0.64400  0.46800  0.02490  1.0000
  Ge  Ge2       1.0  0.35600  0.96800  0.47500  1.0000
  Ge  Ge3       1.0  0.64400  0.03240  0.52500  1.0000
  Ge  Ge4       1.0  0.35600  0.53200  0.97500  1.0000
  P   P1        1.0  0.23600  0.40100  0.15800  1.0000
  P   P2        1.0  0.24400  0.90400  0.17200  1.0000
  P   P3        1.0  0.75600  0.40400  0.32800  1.0000
  P   P4        1.0  0.76400  0.90100  0.34200  1.0000
  P   P5        1.0  0.23600  0.09850  0.65800  1.0000
  P   P6        1.0  0.24400  0.59600  0.67200  1.0000
  P   P7        1.0  0.75600  0.09590  0.82800  1.0000
  P   P8        1.0  0.76400  0.59900  0.84200  1.0000
