data_image0
_chemical_formula_structural       Ba4Ni2O12Te2
_chemical_formula_sum              "Ba4 Ni2 O12 Te2"
_cell_length_a       5.79951
_cell_length_b       5.79951
_cell_length_c       10.108
_cell_angle_alpha    73.3289
_cell_angle_beta     106.671
_cell_angle_gamma    120

_space_group_name_H-M_alt    "P 1"
_space_group_IT_number       1

loop_
  _space_group_symop_operation_xyz
  'x, y, z'

loop_
  _atom_site_type_symbol
  _atom_site_label
  _atom_site_symmetry_multiplicity
  _atom_site_fract_x
  _atom_site_fract_y
  _atom_site_fract_z
  _atom_site_occupancy
  Ba  Ba1       1.0  0.71600  0.28400  0.14700  1.0000
  Ba  Ba2       1.0  0.12600  0.87400  0.37900  1.0000
  Ba  Ba3       1.0  0.87400  0.12600  0.62100  1.0000
  Ba  Ba4       1.0  0.28400  0.71600  0.85300  1.0000
  Ni  Ni1       1.0  0.40600  0.59400  0.21900  1.0000
  Ni  Ni2       1.0  0.59400  0.40600  0.78100  1.0000
  O   O1        1.0  0.19600  0.27400  0.11900  1.0000
  O   O2        1.0  0.72600  0.80400  0.11900  1.0000
  O   O3        1.0  0.19600  0.80400  0.11900  1.0000
  O   O4        1.0  0.61300  0.38700  0.37600  1.0000
  O   O5        1.0  0.15100  0.38700  0.37600  1.0000
  O   O6        1.0  0.61300  0.84900  0.37600  1.0000
  O   O7        1.0  0.38700  0.15100  0.62400  1.0000
  O   O8        1.0  0.38700  0.61300  0.62400  1.0000
  O   O9        1.0  0.84900  0.61300  0.62400  1.0000
  O   O10       1.0  0.80400  0.19600  0.88100  1.0000
  O   O11       1.0  0.27400  0.19600  0.88100  1.0000
  O   O12       1.0  0.80400  0.72600  0.88100  1.0000
  Te  Te1       1.0  0.00000  0.00000  0.00000  1.0000
  Te  Te2       1.0  0.50000  0.50000  0.50000  1.0000
