data_image0
_chemical_formula_structural       C12Ho8
_chemical_formula_sum              "C12 Ho8"
_cell_length_a       7.07491
_cell_length_b       7.07491
_cell_length_c       7.07491
_cell_angle_alpha    109.471
_cell_angle_beta     109.471
_cell_angle_gamma    109.471

_space_group_name_H-M_alt    "P 1"
_space_group_IT_number       1

loop_
  _space_group_symop_operation_xyz
  'x, y, z'

loop_
  _atom_site_type_symbol
  _atom_site_label
  _atom_site_symmetry_multiplicity
  _atom_site_fract_x
  _atom_site_fract_y
  _atom_site_fract_z
  _atom_site_occupancy
  C   C1        1.0  0.75000  0.29300  0.04290  1.0000
  C   C2        1.0  0.75000  0.45700  0.20700  1.0000
  C   C3        1.0  0.29300  0.54300  0.25000  1.0000
  C   C4        1.0  0.45700  0.70700  0.25000  1.0000
  C   C5        1.0  0.25000  0.04290  0.29300  1.0000
  C   C6        1.0  0.25000  0.20700  0.45700  1.0000
  C   C7        1.0  0.79300  0.25000  0.54300  1.0000
  C   C8        1.0  0.95700  0.25000  0.70700  1.0000
  C   C9        1.0  0.04290  0.79300  0.75000  1.0000
  C   C10       1.0  0.20700  0.95700  0.75000  1.0000
  C   C11       1.0  0.54300  0.75000  0.79300  1.0000
  C   C12       1.0  0.70700  0.75000  0.95700  1.0000
  Ho  Ho1       1.0  0.00000  0.10100  0.00000  1.0000
  Ho  Ho2       1.0  0.00000  0.60100  0.00000  1.0000
  Ho  Ho3       1.0  0.50000  0.00000  0.10100  1.0000
  Ho  Ho4       1.0  0.89900  0.89900  0.39900  1.0000
  Ho  Ho5       1.0  0.10100  0.50000  0.50000  1.0000
  Ho  Ho6       1.0  0.60100  0.50000  0.50000  1.0000
  Ho  Ho7       1.0  0.50000  0.00000  0.60100  1.0000
  Ho  Ho8       1.0  0.39900  0.39900  0.89900  1.0000
