data_image0
_chemical_formula_structural       Na2O12Si4Ti2
_chemical_formula_sum              "Na2 O12 Si4 Ti2"
_cell_length_a       5.13691
_cell_length_b       6.44409
_cell_length_c       6.46139
_cell_angle_alpha    82.8199
_cell_angle_beta     79.1776
_cell_angle_gamma    78.9864

_space_group_name_H-M_alt    "P 1"
_space_group_IT_number       1

loop_
  _space_group_symop_operation_xyz
  'x, y, z'

loop_
  _atom_site_type_symbol
  _atom_site_label
  _atom_site_symmetry_multiplicity
  _atom_site_fract_x
  _atom_site_fract_y
  _atom_site_fract_z
  _atom_site_occupancy
  Na  Na1       1.0  0.75000  0.81500  0.68500  1.0000
  Na  Na2       1.0  0.25000  0.18500  0.31500  1.0000
  O   O1        1.0  0.14800  0.28700  0.97400  1.0000
  O   O2        1.0  0.85200  0.71300  0.02640  1.0000
  O   O3        1.0  0.99300  0.12000  0.67100  1.0000
  O   O4        1.0  0.00679  0.88000  0.32900  1.0000
  O   O5        1.0  0.83000  0.39900  0.37400  1.0000
  O   O6        1.0  0.17000  0.60100  0.62600  1.0000
  O   O7        1.0  0.33200  0.87300  0.90000  1.0000
  O   O8        1.0  0.66800  0.12700  0.10000  1.0000
  O   O9        1.0  0.35100  0.52600  0.21300  1.0000
  O   O10       1.0  0.64900  0.47400  0.78700  1.0000
  O   O11       1.0  0.50700  0.82900  0.37900  1.0000
  O   O12       1.0  0.49300  0.17100  0.62100  1.0000
  Si  Si1       1.0  0.23900  0.11100  0.80300  1.0000
  Si  Si2       1.0  0.26100  0.69700  0.38900  1.0000
  Si  Si3       1.0  0.73900  0.30300  0.61100  1.0000
  Si  Si4       1.0  0.76100  0.88900  0.19700  1.0000
  Ti  Ti1       1.0  0.74900  0.41500  0.08500  1.0000
  Ti  Ti2       1.0  0.25100  0.58500  0.91500  1.0000
