data_image0
_chemical_formula_structural       Br12Fe4K4
_chemical_formula_sum              "Br12 Fe4 K4"
_cell_length_a       9.30141
_cell_length_b       4.06313
_cell_length_c       14.9446
_cell_angle_alpha    90
_cell_angle_beta     90
_cell_angle_gamma    90

_space_group_name_H-M_alt    "P 1"
_space_group_IT_number       1

loop_
  _space_group_symop_operation_xyz
  'x, y, z'

loop_
  _atom_site_type_symbol
  _atom_site_label
  _atom_site_symmetry_multiplicity
  _atom_site_fract_x
  _atom_site_fract_y
  _atom_site_fract_z
  _atom_site_occupancy
  Br  Br1       1.0  0.67900  0.25000  0.00666  1.0000
  Br  Br2       1.0  0.98000  0.75000  0.09890  1.0000
  Br  Br3       1.0  0.26900  0.25000  0.20600  1.0000
  Br  Br4       1.0  0.76900  0.25000  0.29400  1.0000
  Br  Br5       1.0  0.48000  0.75000  0.40100  1.0000
  Br  Br6       1.0  0.17900  0.25000  0.49300  1.0000
  Br  Br7       1.0  0.82100  0.75000  0.50700  1.0000
  Br  Br8       1.0  0.52000  0.25000  0.59900  1.0000
  Br  Br9       1.0  0.23100  0.75000  0.70600  1.0000
  Br  Br10      1.0  0.73100  0.75000  0.79400  1.0000
  Br  Br11      1.0  0.02030  0.25000  0.90100  1.0000
  Br  Br12      1.0  0.32100  0.75000  0.99300  1.0000
  Fe  Fe1       1.0  0.16100  0.25000  0.05130  1.0000
  Fe  Fe2       1.0  0.66100  0.25000  0.44900  1.0000
  Fe  Fe3       1.0  0.33900  0.75000  0.55100  1.0000
  Fe  Fe4       1.0  0.83900  0.75000  0.94900  1.0000
  K   K1        1.0  0.55400  0.75000  0.17200  1.0000
  K   K2        1.0  0.05400  0.75000  0.32800  1.0000
  K   K3        1.0  0.94600  0.25000  0.67200  1.0000
  K   K4        1.0  0.44600  0.25000  0.82800  1.0000
