data_image0
_chemical_formula_structural       Ge4S12Sn4
_chemical_formula_sum              "Ge4 S12 Sn4"
_cell_length_a       7.44786
_cell_length_b       10.2929
_cell_length_c       6.91702
_cell_angle_alpha    90
_cell_angle_beta     105.193
_cell_angle_gamma    90

_space_group_name_H-M_alt    "P 1"
_space_group_IT_number       1

loop_
  _space_group_symop_operation_xyz
  'x, y, z'

loop_
  _atom_site_type_symbol
  _atom_site_label
  _atom_site_symmetry_multiplicity
  _atom_site_fract_x
  _atom_site_fract_y
  _atom_site_fract_z
  _atom_site_occupancy
  Ge  Ge1       1.0  0.18400  0.71000  0.00463  1.0000
  Ge  Ge2       1.0  0.81600  0.21000  0.49500  1.0000
  Ge  Ge3       1.0  0.18400  0.79000  0.50500  1.0000
  Ge  Ge4       1.0  0.81600  0.29000  0.99500  1.0000
  S   S1        1.0  0.44500  0.82500  0.08210  1.0000
  S   S2        1.0  0.27800  0.50700  0.08240  1.0000
  S   S3        1.0  0.99300  0.78200  0.18900  1.0000
  S   S4        1.0  0.00743  0.28200  0.31100  1.0000
  S   S5        1.0  0.72200  0.00677  0.41800  1.0000
  S   S6        1.0  0.55500  0.32500  0.41800  1.0000
  S   S7        1.0  0.44500  0.67500  0.58200  1.0000
  S   S8        1.0  0.27800  0.99300  0.58200  1.0000
  S   S9        1.0  0.99300  0.71800  0.68900  1.0000
  S   S10       1.0  0.00743  0.21800  0.81100  1.0000
  S   S11       1.0  0.72200  0.49300  0.91800  1.0000
  S   S12       1.0  0.55500  0.17500  0.91800  1.0000
  Sn  Sn1       1.0  0.38000  0.08130  0.22800  1.0000
  Sn  Sn2       1.0  0.62000  0.58100  0.27200  1.0000
  Sn  Sn3       1.0  0.38000  0.41900  0.72800  1.0000
  Sn  Sn4       1.0  0.62000  0.91900  0.77200  1.0000
