data_image0
_chemical_formula_structural       Ba4Sb8Zn8
_chemical_formula_sum              "Ba4 Sb8 Zn8"
_cell_length_a       10.6131
_cell_length_b       4.54446
_cell_length_c       11.7329
_cell_angle_alpha    90
_cell_angle_beta     90
_cell_angle_gamma    90

_space_group_name_H-M_alt    "P 1"
_space_group_IT_number       1

loop_
  _space_group_symop_operation_xyz
  'x, y, z'

loop_
  _atom_site_type_symbol
  _atom_site_label
  _atom_site_symmetry_multiplicity
  _atom_site_fract_x
  _atom_site_fract_y
  _atom_site_fract_z
  _atom_site_occupancy
  Ba  Ba1       1.0  0.75400  0.75000  0.18000  1.0000
  Ba  Ba2       1.0  0.25400  0.75000  0.32000  1.0000
  Ba  Ba3       1.0  0.74600  0.25000  0.68000  1.0000
  Ba  Ba4       1.0  0.24600  0.25000  0.82000  1.0000
  Sb  Sb1       1.0  0.15100  0.75000  0.03510  1.0000
  Sb  Sb2       1.0  0.47500  0.25000  0.16300  1.0000
  Sb  Sb3       1.0  0.97500  0.25000  0.33700  1.0000
  Sb  Sb4       1.0  0.65100  0.75000  0.46500  1.0000
  Sb  Sb5       1.0  0.34900  0.25000  0.53500  1.0000
  Sb  Sb6       1.0  0.02510  0.75000  0.66300  1.0000
  Sb  Sb7       1.0  0.52500  0.75000  0.83700  1.0000
  Sb  Sb8       1.0  0.84900  0.25000  0.96500  1.0000
  Zn  Zn1       1.0  0.40500  0.75000  0.04780  1.0000
  Zn  Zn2       1.0  0.05440  0.25000  0.11900  1.0000
  Zn  Zn3       1.0  0.55400  0.25000  0.38100  1.0000
  Zn  Zn4       1.0  0.90500  0.75000  0.45200  1.0000
  Zn  Zn5       1.0  0.09510  0.25000  0.54800  1.0000
  Zn  Zn6       1.0  0.44600  0.75000  0.61900  1.0000
  Zn  Zn7       1.0  0.94600  0.75000  0.88100  1.0000
  Zn  Zn8       1.0  0.59500  0.25000  0.95200  1.0000
