data_image0
_chemical_formula_structural       Dy8O4S8
_chemical_formula_sum              "Dy8 O4 S8"
_cell_length_a       15.5333
_cell_length_b       3.80077
_cell_length_c       6.72772
_cell_angle_alpha    90
_cell_angle_beta     90
_cell_angle_gamma    90

_space_group_name_H-M_alt    "P 1"
_space_group_IT_number       1

loop_
  _space_group_symop_operation_xyz
  'x, y, z'

loop_
  _atom_site_type_symbol
  _atom_site_label
  _atom_site_symmetry_multiplicity
  _atom_site_fract_x
  _atom_site_fract_y
  _atom_site_fract_z
  _atom_site_occupancy
  Dy  Dy1       1.0  0.04090  0.75000  0.20700  1.0000
  Dy  Dy2       1.0  0.83500  0.25000  0.24400  1.0000
  Dy  Dy3       1.0  0.33500  0.25000  0.25600  1.0000
  Dy  Dy4       1.0  0.54100  0.75000  0.29300  1.0000
  Dy  Dy5       1.0  0.45900  0.25000  0.70700  1.0000
  Dy  Dy6       1.0  0.66500  0.75000  0.74400  1.0000
  Dy  Dy7       1.0  0.16500  0.75000  0.75600  1.0000
  Dy  Dy8       1.0  0.95900  0.25000  0.79300  1.0000
  O   O1        1.0  0.96900  0.25000  0.13200  1.0000
  O   O2        1.0  0.46900  0.25000  0.36800  1.0000
  O   O3        1.0  0.53100  0.75000  0.63200  1.0000
  O   O4        1.0  0.03080  0.75000  0.86800  1.0000
  S   S1        1.0  0.39900  0.75000  0.01220  1.0000
  S   S2        1.0  0.18100  0.25000  0.04590  1.0000
  S   S3        1.0  0.68100  0.25000  0.45400  1.0000
  S   S4        1.0  0.89900  0.75000  0.48800  1.0000
  S   S5        1.0  0.10100  0.25000  0.51200  1.0000
  S   S6        1.0  0.31900  0.75000  0.54600  1.0000
  S   S7        1.0  0.81900  0.75000  0.95400  1.0000
  S   S8        1.0  0.60100  0.25000  0.98800  1.0000
