data_image0
_chemical_formula_structural       Dy4Rh6Si10
_chemical_formula_sum              "Dy4 Rh6 Si10"
_cell_length_a       5.74237
_cell_length_b       8.15895
_cell_length_c       8.15895
_cell_angle_alpha    91.0611
_cell_angle_beta     110.604
_cell_angle_gamma    110.604

_space_group_name_H-M_alt    "P 1"
_space_group_IT_number       1

loop_
  _space_group_symop_operation_xyz
  'x, y, z'

loop_
  _atom_site_type_symbol
  _atom_site_label
  _atom_site_symmetry_multiplicity
  _atom_site_fract_x
  _atom_site_fract_y
  _atom_site_fract_z
  _atom_site_occupancy
  Dy  Dy1       1.0  0.76900  0.40100  0.13800  1.0000
  Dy  Dy2       1.0  0.26900  0.13800  0.40100  1.0000
  Dy  Dy3       1.0  0.73100  0.86200  0.59900  1.0000
  Dy  Dy4       1.0  0.23100  0.59900  0.86200  1.0000
  Rh  Rh1       1.0  0.25000  0.00000  0.00000  1.0000
  Rh  Rh2       1.0  0.75000  0.00000  0.00000  1.0000
  Rh  Rh3       1.0  0.39100  0.53200  0.25100  1.0000
  Rh  Rh4       1.0  0.10900  0.74900  0.46800  1.0000
  Rh  Rh5       1.0  0.89100  0.25100  0.53200  1.0000
  Rh  Rh6       1.0  0.60900  0.46800  0.74900  1.0000
  Si  Si1       1.0  0.15800  0.26400  0.05270  1.0000
  Si  Si2       1.0  0.25000  0.78000  0.22000  1.0000
  Si  Si3       1.0  0.75000  0.78000  0.22000  1.0000
  Si  Si4       1.0  0.65800  0.05270  0.26400  1.0000
  Si  Si5       1.0  0.25000  0.50000  0.50000  1.0000
  Si  Si6       1.0  0.75000  0.50000  0.50000  1.0000
  Si  Si7       1.0  0.34200  0.94700  0.73600  1.0000
  Si  Si8       1.0  0.25000  0.22000  0.78000  1.0000
  Si  Si9       1.0  0.75000  0.22000  0.78000  1.0000
  Si  Si10      1.0  0.84200  0.73600  0.94700  1.0000
