data_image0
_chemical_formula_structural       As8Ba8Ge4
_chemical_formula_sum              "As8 Ba8 Ge4"
_cell_length_a       8.86488
_cell_length_b       9.81476
_cell_length_c       7.76351
_cell_angle_alpha    90
_cell_angle_beta     106.049
_cell_angle_gamma    90

_space_group_name_H-M_alt    "P 1"
_space_group_IT_number       1

loop_
  _space_group_symop_operation_xyz
  'x, y, z'

loop_
  _atom_site_type_symbol
  _atom_site_label
  _atom_site_symmetry_multiplicity
  _atom_site_fract_x
  _atom_site_fract_y
  _atom_site_fract_z
  _atom_site_occupancy
  As  As1       1.0  0.23600  0.40000  0.16400  1.0000
  As  As2       1.0  0.24400  0.90100  0.16600  1.0000
  As  As3       1.0  0.75600  0.40100  0.33400  1.0000
  As  As4       1.0  0.76400  0.90000  0.33600  1.0000
  As  As5       1.0  0.23600  0.10000  0.66400  1.0000
  As  As6       1.0  0.24400  0.59900  0.66600  1.0000
  As  As7       1.0  0.75600  0.09920  0.83400  1.0000
  As  As8       1.0  0.76400  0.60000  0.83600  1.0000
  Ba  Ba1       1.0  0.48100  0.16400  0.10500  1.0000
  Ba  Ba2       1.0  0.99800  0.13900  0.24400  1.0000
  Ba  Ba3       1.0  0.00227  0.63900  0.25600  1.0000
  Ba  Ba4       1.0  0.51900  0.66400  0.39500  1.0000
  Ba  Ba5       1.0  0.48100  0.33600  0.60500  1.0000
  Ba  Ba6       1.0  0.99800  0.36100  0.74400  1.0000
  Ba  Ba7       1.0  0.00227  0.86100  0.75600  1.0000
  Ba  Ba8       1.0  0.51900  0.83600  0.89500  1.0000
  Ge  Ge1       1.0  0.64000  0.46500  0.02290  1.0000
  Ge  Ge2       1.0  0.36000  0.96500  0.47700  1.0000
  Ge  Ge3       1.0  0.64000  0.03500  0.52300  1.0000
  Ge  Ge4       1.0  0.36000  0.53500  0.97700  1.0000
