data_image0
_chemical_formula_structural       Au6Sr14
_chemical_formula_sum              "Au6 Sr14"
_cell_length_a       11.084
_cell_length_b       11.084
_cell_length_c       7.13175
_cell_angle_alpha    90
_cell_angle_beta     90
_cell_angle_gamma    120

_space_group_name_H-M_alt    "P 1"
_space_group_IT_number       1

loop_
  _space_group_symop_operation_xyz
  'x, y, z'

loop_
  _atom_site_type_symbol
  _atom_site_label
  _atom_site_symmetry_multiplicity
  _atom_site_fract_x
  _atom_site_fract_y
  _atom_site_fract_z
  _atom_site_occupancy
  Au  Au1       1.0  0.81200  0.62400  0.33200  1.0000
  Au  Au2       1.0  0.37700  0.18800  0.33200  1.0000
  Au  Au3       1.0  0.81200  0.18800  0.33200  1.0000
  Au  Au4       1.0  0.18800  0.37600  0.83200  1.0000
  Au  Au5       1.0  0.18800  0.81200  0.83200  1.0000
  Au  Au6       1.0  0.62300  0.81200  0.83200  1.0000
  Sr  Sr1       1.0  0.33300  0.66700  0.04620  1.0000
  Sr  Sr2       1.0  0.54200  0.45800  0.06510  1.0000
  Sr  Sr3       1.0  0.91600  0.45800  0.06510  1.0000
  Sr  Sr4       1.0  0.54200  0.08430  0.06510  1.0000
  Sr  Sr5       1.0  0.12500  0.87500  0.25000  1.0000
  Sr  Sr6       1.0  0.75000  0.87500  0.25000  1.0000
  Sr  Sr7       1.0  0.12500  0.25000  0.25000  1.0000
  Sr  Sr8       1.0  0.66700  0.33300  0.54600  1.0000
  Sr  Sr9       1.0  0.08430  0.54200  0.56500  1.0000
  Sr  Sr10      1.0  0.45800  0.54200  0.56500  1.0000
  Sr  Sr11      1.0  0.45800  0.91600  0.56500  1.0000
  Sr  Sr12      1.0  0.25000  0.12500  0.75000  1.0000
  Sr  Sr13      1.0  0.87500  0.12500  0.75000  1.0000
  Sr  Sr14      1.0  0.87500  0.75000  0.75000  1.0000
