data_image0
_chemical_formula_structural       Ag2Cr2P4S12
_chemical_formula_sum              "Ag2 Cr2 P4 S12"
_cell_length_a       5.95064
_cell_length_b       10.6411
_cell_length_c       6.94378
_cell_angle_alpha    90
_cell_angle_beta     105.486
_cell_angle_gamma    90

_space_group_name_H-M_alt    "P 1"
_space_group_IT_number       1

loop_
  _space_group_symop_operation_xyz
  'x, y, z'

loop_
  _atom_site_type_symbol
  _atom_site_label
  _atom_site_symmetry_multiplicity
  _atom_site_fract_x
  _atom_site_fract_y
  _atom_site_fract_z
  _atom_site_occupancy
  Ag  Ag1       1.0  0.75000  0.43700  0.00000  1.0000
  Ag  Ag2       1.0  0.25000  0.56300  0.00000  1.0000
  Cr  Cr1       1.0  0.75000  0.08220  0.00000  1.0000
  Cr  Cr2       1.0  0.25000  0.91800  0.00000  1.0000
  P   P1        1.0  0.79600  0.75600  0.16600  1.0000
  P   P2        1.0  0.29600  0.24400  0.16600  1.0000
  P   P3        1.0  0.20400  0.24400  0.83400  1.0000
  P   P4        1.0  0.70400  0.75600  0.83400  1.0000
  S   S1        1.0  0.98900  0.92600  0.21700  1.0000
  S   S2        1.0  0.48900  0.07360  0.21700  1.0000
  S   S3        1.0  0.48300  0.76900  0.23200  1.0000
  S   S4        1.0  0.98300  0.23100  0.23200  1.0000
  S   S5        1.0  0.98100  0.60600  0.27800  1.0000
  S   S6        1.0  0.48100  0.39400  0.27800  1.0000
  S   S7        1.0  0.01940  0.39400  0.72200  1.0000
  S   S8        1.0  0.51900  0.60600  0.72200  1.0000
  S   S9        1.0  0.51700  0.23100  0.76800  1.0000
  S   S10       1.0  0.01710  0.76900  0.76800  1.0000
  S   S11       1.0  0.01070  0.07360  0.78300  1.0000
  S   S12       1.0  0.51100  0.92600  0.78300  1.0000
