data_image0
_chemical_formula_structural       Ga2Na2O12Si4
_chemical_formula_sum              "Ga2 Na2 O12 Si4"
_cell_length_a       5.26619
_cell_length_b       6.45524
_cell_length_c       6.45524
_cell_angle_alpha    95.5676
_cell_angle_beta     102.827
_cell_angle_gamma    77.1728

_space_group_name_H-M_alt    "P 1"
_space_group_IT_number       1

loop_
  _space_group_symop_operation_xyz
  'x, y, z'

loop_
  _atom_site_type_symbol
  _atom_site_label
  _atom_site_symmetry_multiplicity
  _atom_site_fract_x
  _atom_site_fract_y
  _atom_site_fract_z
  _atom_site_occupancy
  Ga  Ga1       1.0  0.25000  0.09700  0.09700  1.0000
  Ga  Ga2       1.0  0.75000  0.90300  0.90300  1.0000
  Na  Na1       1.0  0.75000  0.30100  0.30100  1.0000
  Na  Na2       1.0  0.25000  0.69900  0.69900  1.0000
  O   O1        1.0  0.13600  0.80800  0.03130  1.0000
  O   O2        1.0  0.30700  0.38100  0.09550  1.0000
  O   O3        1.0  0.63600  0.96900  0.19200  1.0000
  O   O4        1.0  0.00711  0.63300  0.34300  1.0000
  O   O5        1.0  0.50700  0.65700  0.36700  1.0000
  O   O6        1.0  0.19300  0.09550  0.38100  1.0000
  O   O7        1.0  0.80700  0.90500  0.61900  1.0000
  O   O8        1.0  0.49300  0.34300  0.63300  1.0000
  O   O9        1.0  0.99300  0.36700  0.65700  1.0000
  O   O10       1.0  0.36400  0.03130  0.80800  1.0000
  O   O11       1.0  0.69300  0.61900  0.90500  1.0000
  O   O12       1.0  0.86400  0.19200  0.96900  1.0000
  Si  Si1       1.0  0.23300  0.61600  0.19900  1.0000
  Si  Si2       1.0  0.73300  0.80100  0.38400  1.0000
  Si  Si3       1.0  0.26700  0.19900  0.61600  1.0000
  Si  Si4       1.0  0.76700  0.38400  0.80100  1.0000
