data_image0
_chemical_formula_structural       B4Hf6Ir10
_chemical_formula_sum              "B4 Hf6 Ir10"
_cell_length_a       9.27773
_cell_length_b       9.27773
_cell_length_c       3.39095
_cell_angle_alpha    90
_cell_angle_beta     90
_cell_angle_gamma    90

_space_group_name_H-M_alt    "P 1"
_space_group_IT_number       1

loop_
  _space_group_symop_operation_xyz
  'x, y, z'

loop_
  _atom_site_type_symbol
  _atom_site_label
  _atom_site_symmetry_multiplicity
  _atom_site_fract_x
  _atom_site_fract_y
  _atom_site_fract_z
  _atom_site_occupancy
  B   B1        1.0  0.38100  0.11900  0.00000  1.0000
  B   B2        1.0  0.88100  0.38100  0.00000  1.0000
  B   B3        1.0  0.11900  0.61900  0.00000  1.0000
  B   B4        1.0  0.61900  0.88100  0.00000  1.0000
  Hf  Hf1       1.0  0.00000  0.00000  0.00000  1.0000
  Hf  Hf2       1.0  0.67600  0.17600  0.00000  1.0000
  Hf  Hf3       1.0  0.17600  0.32400  0.00000  1.0000
  Hf  Hf4       1.0  0.50000  0.50000  0.00000  1.0000
  Hf  Hf5       1.0  0.82400  0.67600  0.00000  1.0000
  Hf  Hf6       1.0  0.32400  0.82400  0.00000  1.0000
  Ir  Ir1       1.0  0.50000  0.00000  0.50000  1.0000
  Ir  Ir2       1.0  0.22000  0.07300  0.50000  1.0000
  Ir  Ir3       1.0  0.92700  0.22000  0.50000  1.0000
  Ir  Ir4       1.0  0.42700  0.28000  0.50000  1.0000
  Ir  Ir5       1.0  0.72000  0.42700  0.50000  1.0000
  Ir  Ir6       1.0  0.00000  0.50000  0.50000  1.0000
  Ir  Ir7       1.0  0.28000  0.57300  0.50000  1.0000
  Ir  Ir8       1.0  0.57300  0.72000  0.50000  1.0000
  Ir  Ir9       1.0  0.07300  0.78000  0.50000  1.0000
  Ir  Ir10      1.0  0.78000  0.92700  0.50000  1.0000
