data_image0
_chemical_formula_structural       Cl12Mo4N4
_chemical_formula_sum              "Cl12 Mo4 N4"
_cell_length_a       9.27798
_cell_length_b       7.78369
_cell_length_c       8.30128
_cell_angle_alpha    108.843
_cell_angle_beta     99.445
_cell_angle_gamma    108.43

_space_group_name_H-M_alt    "P 1"
_space_group_IT_number       1

loop_
  _space_group_symop_operation_xyz
  'x, y, z'

loop_
  _atom_site_type_symbol
  _atom_site_label
  _atom_site_symmetry_multiplicity
  _atom_site_fract_x
  _atom_site_fract_y
  _atom_site_fract_z
  _atom_site_occupancy
  Cl  Cl1       1.0  0.86000  0.72500  0.07760  1.0000
  Cl  Cl2       1.0  0.33600  0.04970  0.10100  1.0000
  Cl  Cl3       1.0  0.48600  0.69000  0.14900  1.0000
  Cl  Cl4       1.0  0.93600  0.42000  0.27100  1.0000
  Cl  Cl5       1.0  0.11500  0.17800  0.45700  1.0000
  Cl  Cl6       1.0  0.70200  0.18900  0.47800  1.0000
  Cl  Cl7       1.0  0.29800  0.81100  0.52200  1.0000
  Cl  Cl8       1.0  0.88500  0.82200  0.54300  1.0000
  Cl  Cl9       1.0  0.06390  0.58000  0.72900  1.0000
  Cl  Cl10      1.0  0.51400  0.31000  0.85100  1.0000
  Cl  Cl11      1.0  0.66400  0.95000  0.89900  1.0000
  Cl  Cl12      1.0  0.14000  0.27500  0.92200  1.0000
  Mo  Mo1       1.0  0.36700  0.36700  0.14200  1.0000
  Mo  Mo2       1.0  0.77000  0.48300  0.44500  1.0000
  Mo  Mo3       1.0  0.23000  0.51700  0.55500  1.0000
  Mo  Mo4       1.0  0.63300  0.63300  0.85800  1.0000
  N   N1        1.0  0.60200  0.43300  0.28800  1.0000
  N   N2        1.0  0.30600  0.43500  0.32700  1.0000
  N   N3        1.0  0.69400  0.56500  0.67300  1.0000
  N   N4        1.0  0.39800  0.56700  0.71200  1.0000
