data_image0
_chemical_formula_structural       K2Na6O10W2
_chemical_formula_sum              "K2 Na6 O10 W2"
_cell_length_a       5.82216
_cell_length_b       5.82216
_cell_length_c       9.04062
_cell_angle_alpha    100.795
_cell_angle_beta     79.2047
_cell_angle_gamma    100.717

_space_group_name_H-M_alt    "P 1"
_space_group_IT_number       1

loop_
  _space_group_symop_operation_xyz
  'x, y, z'

loop_
  _atom_site_type_symbol
  _atom_site_label
  _atom_site_symmetry_multiplicity
  _atom_site_fract_x
  _atom_site_fract_y
  _atom_site_fract_z
  _atom_site_occupancy
  K   K1        1.0  0.25100  0.25100  0.50000  1.0000
  K   K2        1.0  0.74900  0.74900  0.50000  1.0000
  Na  Na1       1.0  0.35200  0.15700  0.11100  1.0000
  Na  Na2       1.0  0.84300  0.64800  0.11100  1.0000
  Na  Na3       1.0  0.81000  0.19000  0.27200  1.0000
  Na  Na4       1.0  0.19000  0.81000  0.72800  1.0000
  Na  Na5       1.0  0.15700  0.35200  0.88900  1.0000
  Na  Na6       1.0  0.64800  0.84300  0.88900  1.0000
  O   O1        1.0  0.11600  0.44400  0.15300  1.0000
  O   O2        1.0  0.55600  0.88400  0.15300  1.0000
  O   O3        1.0  0.09560  0.90400  0.25100  1.0000
  O   O4        1.0  0.52400  0.47600  0.26000  1.0000
  O   O5        1.0  0.25300  0.74700  0.46800  1.0000
  O   O6        1.0  0.74700  0.25300  0.53200  1.0000
  O   O7        1.0  0.47600  0.52400  0.74000  1.0000
  O   O8        1.0  0.90400  0.09560  0.74900  1.0000
  O   O9        1.0  0.44400  0.11600  0.84700  1.0000
  O   O10       1.0  0.88400  0.55600  0.84700  1.0000
  W   W1        1.0  0.30900  0.69100  0.25900  1.0000
  W   W2        1.0  0.69100  0.30900  0.74100  1.0000
