data_image0
_chemical_formula_structural       Cl12Mn4Tl4
_chemical_formula_sum              "Cl12 Mn4 Tl4"
_cell_length_a       9.00173
_cell_length_b       3.83295
_cell_length_c       14.7495
_cell_angle_alpha    90
_cell_angle_beta     90
_cell_angle_gamma    90

_space_group_name_H-M_alt    "P 1"
_space_group_IT_number       1

loop_
  _space_group_symop_operation_xyz
  'x, y, z'

loop_
  _atom_site_type_symbol
  _atom_site_label
  _atom_site_symmetry_multiplicity
  _atom_site_fract_x
  _atom_site_fract_y
  _atom_site_fract_z
  _atom_site_occupancy
  Cl  Cl1       1.0  0.67900  0.25000  0.00478  1.0000
  Cl  Cl2       1.0  0.98000  0.75000  0.09820  1.0000
  Cl  Cl3       1.0  0.27600  0.25000  0.20300  1.0000
  Cl  Cl4       1.0  0.77600  0.25000  0.29700  1.0000
  Cl  Cl5       1.0  0.48000  0.75000  0.40200  1.0000
  Cl  Cl6       1.0  0.17900  0.25000  0.49500  1.0000
  Cl  Cl7       1.0  0.82100  0.75000  0.50500  1.0000
  Cl  Cl8       1.0  0.52000  0.25000  0.59800  1.0000
  Cl  Cl9       1.0  0.22400  0.75000  0.70300  1.0000
  Cl  Cl10      1.0  0.72400  0.75000  0.79700  1.0000
  Cl  Cl11      1.0  0.02010  0.25000  0.90200  1.0000
  Cl  Cl12      1.0  0.32100  0.75000  0.99500  1.0000
  Mn  Mn1       1.0  0.16200  0.25000  0.05430  1.0000
  Mn  Mn2       1.0  0.66200  0.25000  0.44600  1.0000
  Mn  Mn3       1.0  0.33800  0.75000  0.55400  1.0000
  Mn  Mn4       1.0  0.83800  0.75000  0.94600  1.0000
  Tl  Tl1       1.0  0.56000  0.75000  0.17600  1.0000
  Tl  Tl2       1.0  0.06000  0.75000  0.32400  1.0000
  Tl  Tl3       1.0  0.94000  0.25000  0.67600  1.0000
  Tl  Tl4       1.0  0.44000  0.25000  0.82400  1.0000
