data_image0
_chemical_formula_structural       C12Pu8
_chemical_formula_sum              "C12 Pu8"
_cell_length_a       7.03234
_cell_length_b       7.03234
_cell_length_c       7.03234
_cell_angle_alpha    109.471
_cell_angle_beta     109.471
_cell_angle_gamma    109.471

_space_group_name_H-M_alt    "P 1"
_space_group_IT_number       1

loop_
  _space_group_symop_operation_xyz
  'x, y, z'

loop_
  _atom_site_type_symbol
  _atom_site_label
  _atom_site_symmetry_multiplicity
  _atom_site_fract_x
  _atom_site_fract_y
  _atom_site_fract_z
  _atom_site_occupancy
  C   C1        1.0  0.75000  0.28900  0.03940  1.0000
  C   C2        1.0  0.75000  0.46100  0.21100  1.0000
  C   C3        1.0  0.28900  0.53900  0.25000  1.0000
  C   C4        1.0  0.46100  0.71100  0.25000  1.0000
  C   C5        1.0  0.25000  0.03940  0.28900  1.0000
  C   C6        1.0  0.25000  0.21100  0.46100  1.0000
  C   C7        1.0  0.78900  0.25000  0.53900  1.0000
  C   C8        1.0  0.96100  0.25000  0.71100  1.0000
  C   C9        1.0  0.03940  0.78900  0.75000  1.0000
  C   C10       1.0  0.21100  0.96100  0.75000  1.0000
  C   C11       1.0  0.53900  0.75000  0.78900  1.0000
  C   C12       1.0  0.71100  0.75000  0.96100  1.0000
  Pu  Pu1       1.0  0.00000  0.09830  0.00000  1.0000
  Pu  Pu2       1.0  0.00000  0.59800  0.00000  1.0000
  Pu  Pu3       1.0  0.50000  0.00000  0.09830  1.0000
  Pu  Pu4       1.0  0.90200  0.90200  0.40200  1.0000
  Pu  Pu5       1.0  0.09830  0.50000  0.50000  1.0000
  Pu  Pu6       1.0  0.59800  0.50000  0.50000  1.0000
  Pu  Pu7       1.0  0.50000  0.00000  0.59800  1.0000
  Pu  Pu8       1.0  0.40200  0.40200  0.90200  1.0000
