data_image0
_chemical_formula_structural       Al8Er12
_chemical_formula_sum              "Al8 Er12"
_cell_length_a       8.16204
_cell_length_b       8.16204
_cell_length_c       7.52695
_cell_angle_alpha    90
_cell_angle_beta     90
_cell_angle_gamma    90

_space_group_name_H-M_alt    "P 1"
_space_group_IT_number       1

loop_
  _space_group_symop_operation_xyz
  'x, y, z'

loop_
  _atom_site_type_symbol
  _atom_site_label
  _atom_site_symmetry_multiplicity
  _atom_site_fract_x
  _atom_site_fract_y
  _atom_site_fract_z
  _atom_site_occupancy
  Al  Al1       1.0  0.38100  0.38100  0.45300  1.0000
  Al  Al2       1.0  0.61900  0.61900  0.45300  1.0000
  Al  Al3       1.0  0.11900  0.88100  0.95300  1.0000
  Al  Al4       1.0  0.88100  0.11900  0.95300  1.0000
  Al  Al5       1.0  0.38100  0.38100  0.05930  1.0000
  Al  Al6       1.0  0.61900  0.61900  0.05930  1.0000
  Al  Al7       1.0  0.11900  0.88100  0.55900  1.0000
  Al  Al8       1.0  0.88100  0.11900  0.55900  1.0000
  Er  Er1       1.0  0.20200  0.20200  0.75600  1.0000
  Er  Er2       1.0  0.79800  0.79800  0.75600  1.0000
  Er  Er3       1.0  0.29800  0.70200  0.25600  1.0000
  Er  Er4       1.0  0.70200  0.29800  0.25600  1.0000
  Er  Er5       1.0  0.00000  0.50000  0.00703  1.0000
  Er  Er6       1.0  0.00000  0.50000  0.50700  1.0000
  Er  Er7       1.0  0.50000  0.00000  0.50700  1.0000
  Er  Er8       1.0  0.50000  0.00000  0.00703  1.0000
  Er  Er9       1.0  0.15100  0.15100  0.25600  1.0000
  Er  Er10      1.0  0.84900  0.84900  0.25600  1.0000
  Er  Er11      1.0  0.34900  0.65100  0.75600  1.0000
  Er  Er12      1.0  0.65100  0.34900  0.75600  1.0000
