data_image0
_chemical_formula_structural       P4S12Sn4
_chemical_formula_sum              "P4 S12 Sn4"
_cell_length_a       6.60344
_cell_length_b       7.55369
_cell_length_c       11.5167
_cell_angle_alpha    90
_cell_angle_beta     126.14
_cell_angle_gamma    90

_space_group_name_H-M_alt    "P 1"
_space_group_IT_number       1

loop_
  _space_group_symop_operation_xyz
  'x, y, z'

loop_
  _atom_site_type_symbol
  _atom_site_label
  _atom_site_symmetry_multiplicity
  _atom_site_fract_x
  _atom_site_fract_y
  _atom_site_fract_z
  _atom_site_occupancy
  P   P1        1.0  0.00856  0.89200  0.06900  1.0000
  P   P2        1.0  0.99100  0.39200  0.43100  1.0000
  P   P3        1.0  0.00856  0.60800  0.56900  1.0000
  P   P4        1.0  0.99100  0.10800  0.93100  1.0000
  S   S1        1.0  0.35400  0.18900  0.03210  1.0000
  S   S2        1.0  0.21400  0.69800  0.06170  1.0000
  S   S3        1.0  0.84100  0.50100  0.23500  1.0000
  S   S4        1.0  0.15900  0.00097  0.26500  1.0000
  S   S5        1.0  0.78600  0.19800  0.43800  1.0000
  S   S6        1.0  0.64600  0.68900  0.46800  1.0000
  S   S7        1.0  0.35400  0.31100  0.53200  1.0000
  S   S8        1.0  0.21400  0.80200  0.56200  1.0000
  S   S9        1.0  0.84100  0.99900  0.73500  1.0000
  S   S10       1.0  0.15900  0.49900  0.76500  1.0000
  S   S11       1.0  0.78600  0.30200  0.93800  1.0000
  S   S12       1.0  0.64600  0.81100  0.96800  1.0000
  Sn  Sn1       1.0  0.70000  0.86400  0.23700  1.0000
  Sn  Sn2       1.0  0.30000  0.36400  0.26300  1.0000
  Sn  Sn3       1.0  0.70000  0.63600  0.73700  1.0000
  Sn  Sn4       1.0  0.30000  0.13600  0.76300  1.0000
