data_image0
_chemical_formula_structural       NiS6Ti3
_chemical_formula_sum              "Ni1 S6 Ti3"
_cell_length_a       5.84313
_cell_length_b       5.84313
_cell_length_c       6.59226
_cell_angle_alpha    116.307
_cell_angle_beta     116.307
_cell_angle_gamma    60

_space_group_name_H-M_alt    "P 1"
_space_group_IT_number       1

loop_
  _space_group_symop_operation_xyz
  'x, y, z'

loop_
  _atom_site_type_symbol
  _atom_site_label
  _atom_site_symmetry_multiplicity
  _atom_site_fract_x
  _atom_site_fract_y
  _atom_site_fract_z
  _atom_site_occupancy
  Ni  Ni1       1.0  0.50000  0.50000  0.50000  1.0000
  S   S1        1.0  0.75000  0.09080  0.25700  1.0000
  S   S2        1.0  0.09080  0.41600  0.25700  1.0000
  S   S3        1.0  0.41600  0.75000  0.25700  1.0000
  S   S4        1.0  0.58400  0.25000  0.74300  1.0000
  S   S5        1.0  0.90900  0.58400  0.74300  1.0000
  S   S6        1.0  0.25000  0.90900  0.74300  1.0000
  Ti  Ti1       1.0  0.32900  0.32900  0.98800  1.0000
  Ti  Ti2       1.0  0.00000  0.00000  0.00000  1.0000
  Ti  Ti3       1.0  0.67100  0.67100  0.01180  1.0000
