data_image0
_chemical_formula_structural       Ca6O12U2
_chemical_formula_sum              "Ca6 O12 U2"
_cell_length_a       5.70443
_cell_length_b       5.94534
_cell_length_c       8.28375
_cell_angle_alpha    90
_cell_angle_beta     90.762
_cell_angle_gamma    90

_space_group_name_H-M_alt    "P 1"
_space_group_IT_number       1

loop_
  _space_group_symop_operation_xyz
  'x, y, z'

loop_
  _atom_site_type_symbol
  _atom_site_label
  _atom_site_symmetry_multiplicity
  _atom_site_fract_x
  _atom_site_fract_y
  _atom_site_fract_z
  _atom_site_occupancy
  Ca  Ca1       1.0  0.73400  0.93900  0.00726  1.0000
  Ca  Ca2       1.0  0.75100  0.49500  0.25000  1.0000
  Ca  Ca3       1.0  0.76700  0.04950  0.49100  1.0000
  Ca  Ca4       1.0  0.23300  0.55000  0.50900  1.0000
  Ca  Ca5       1.0  0.24900  0.99500  0.75000  1.0000
  Ca  Ca6       1.0  0.26600  0.43900  0.99300  1.0000
  O   O1        1.0  0.11700  0.06420  0.01540  1.0000
  O   O2        1.0  0.42900  0.70600  0.16600  1.0000
  O   O3        1.0  0.55100  0.17300  0.19300  1.0000
  O   O4        1.0  0.95300  0.81400  0.30900  1.0000
  O   O5        1.0  0.07530  0.28500  0.33100  1.0000
  O   O6        1.0  0.38400  0.92300  0.48500  1.0000
  O   O7        1.0  0.61600  0.42300  0.51500  1.0000
  O   O8        1.0  0.92500  0.78500  0.66900  1.0000
  O   O9        1.0  0.04660  0.31400  0.69100  1.0000
  O   O10       1.0  0.44900  0.67300  0.80700  1.0000
  O   O11       1.0  0.57100  0.20600  0.83400  1.0000
  O   O12       1.0  0.88300  0.56400  0.98500  1.0000
  U   U1        1.0  0.25100  0.99400  0.25000  1.0000
  U   U2        1.0  0.74900  0.49400  0.75000  1.0000
