data_image0
_chemical_formula_structural       P6Tc4
_chemical_formula_sum              "P6 Tc4"
_cell_length_a       3.10754
_cell_length_b       6.39224
_cell_length_c       7.75043
_cell_angle_alpha    95.6228
_cell_angle_beta     101.565
_cell_angle_gamma    104.068

_space_group_name_H-M_alt    "P 1"
_space_group_IT_number       1

loop_
  _space_group_symop_operation_xyz
  'x, y, z'

loop_
  _atom_site_type_symbol
  _atom_site_label
  _atom_site_symmetry_multiplicity
  _atom_site_fract_x
  _atom_site_fract_y
  _atom_site_fract_z
  _atom_site_occupancy
  P   P1        1.0  0.93000  0.82000  0.04050  1.0000
  P   P2        1.0  0.73300  0.14500  0.32200  1.0000
  P   P3        1.0  0.46900  0.56700  0.37100  1.0000
  P   P4        1.0  0.53100  0.43300  0.62900  1.0000
  P   P5        1.0  0.26700  0.85500  0.67800  1.0000
  P   P6        1.0  0.06990  0.18000  0.96000  1.0000
  Tc  Tc1       1.0  0.77900  0.41400  0.14400  1.0000
  Tc  Tc2       1.0  0.11400  0.86400  0.36400  1.0000
  Tc  Tc3       1.0  0.88600  0.13600  0.63600  1.0000
  Tc  Tc4       1.0  0.22100  0.58600  0.85600  1.0000
