data_image0
_chemical_formula_structural       Cd6O12Te2
_chemical_formula_sum              "Cd6 O12 Te2"
_cell_length_a       5.53121
_cell_length_b       5.67544
_cell_length_c       8.03947
_cell_angle_alpha    90
_cell_angle_beta     89.9561
_cell_angle_gamma    90

_space_group_name_H-M_alt    "P 1"
_space_group_IT_number       1

loop_
  _space_group_symop_operation_xyz
  'x, y, z'

loop_
  _atom_site_type_symbol
  _atom_site_label
  _atom_site_symmetry_multiplicity
  _atom_site_fract_x
  _atom_site_fract_y
  _atom_site_fract_z
  _atom_site_occupancy
  Cd  Cd1       1.0  0.50000  0.50000  1.00000  1.0000
  Cd  Cd2       1.0  0.51200  0.95200  0.24300  1.0000
  Cd  Cd3       1.0  0.98800  0.45200  0.25700  1.0000
  Cd  Cd4       1.0  0.00000  0.00000  0.50000  1.0000
  Cd  Cd5       1.0  0.01160  0.54800  0.74300  1.0000
  Cd  Cd6       1.0  0.48800  0.04800  0.75700  1.0000
  O   O1        1.0  0.71000  0.17600  0.05270  1.0000
  O   O2        1.0  0.83500  0.71800  0.07910  1.0000
  O   O3        1.0  0.12000  0.07100  0.22400  1.0000
  O   O4        1.0  0.38000  0.57100  0.27600  1.0000
  O   O5        1.0  0.66500  0.21800  0.42100  1.0000
  O   O6        1.0  0.79000  0.67600  0.44700  1.0000
  O   O7        1.0  0.21000  0.32400  0.55300  1.0000
  O   O8        1.0  0.33500  0.78200  0.57900  1.0000
  O   O9        1.0  0.62000  0.42900  0.72400  1.0000
  O   O10       1.0  0.88000  0.92900  0.77600  1.0000
  O   O11       1.0  0.16500  0.28200  0.92100  1.0000
  O   O12       1.0  0.29000  0.82400  0.94700  1.0000
  Te  Te1       1.0  0.00000  0.00000  0.00000  1.0000
  Te  Te2       1.0  0.50000  0.50000  0.50000  1.0000
