data_image0
_chemical_formula_structural       Ca12Cd8
_chemical_formula_sum              "Ca12 Cd8"
_cell_length_a       8.80884
_cell_length_b       8.80884
_cell_length_c       7.98663
_cell_angle_alpha    90
_cell_angle_beta     90
_cell_angle_gamma    90

_space_group_name_H-M_alt    "P 1"
_space_group_IT_number       1

loop_
  _space_group_symop_operation_xyz
  'x, y, z'

loop_
  _atom_site_type_symbol
  _atom_site_label
  _atom_site_symmetry_multiplicity
  _atom_site_fract_x
  _atom_site_fract_y
  _atom_site_fract_z
  _atom_site_occupancy
  Ca  Ca1       1.0  0.50000  0.00000  0.00740  1.0000
  Ca  Ca2       1.0  0.00000  0.50000  0.00740  1.0000
  Ca  Ca3       1.0  0.14600  0.14600  0.25600  1.0000
  Ca  Ca4       1.0  0.85400  0.85400  0.25600  1.0000
  Ca  Ca5       1.0  0.69900  0.30100  0.25700  1.0000
  Ca  Ca6       1.0  0.30100  0.69900  0.25700  1.0000
  Ca  Ca7       1.0  0.50000  0.00000  0.50700  1.0000
  Ca  Ca8       1.0  0.00000  0.50000  0.50700  1.0000
  Ca  Ca9       1.0  0.64600  0.35400  0.75600  1.0000
  Ca  Ca10      1.0  0.35400  0.64600  0.75600  1.0000
  Ca  Ca11      1.0  0.19900  0.19900  0.75700  1.0000
  Ca  Ca12      1.0  0.80100  0.80100  0.75700  1.0000
  Cd  Cd1       1.0  0.37500  0.37500  0.05920  1.0000
  Cd  Cd2       1.0  0.62500  0.62500  0.05920  1.0000
  Cd  Cd3       1.0  0.37500  0.37500  0.45200  1.0000
  Cd  Cd4       1.0  0.62500  0.62500  0.45200  1.0000
  Cd  Cd5       1.0  0.87500  0.12500  0.55900  1.0000
  Cd  Cd6       1.0  0.12500  0.87500  0.55900  1.0000
  Cd  Cd7       1.0  0.87500  0.12500  0.95200  1.0000
  Cd  Cd8       1.0  0.12500  0.87500  0.95200  1.0000
