data_image0
_chemical_formula_structural       Br12K4Mn4
_chemical_formula_sum              "Br12 K4 Mn4"
_cell_length_a       9.34589
_cell_length_b       4.07432
_cell_length_c       15.3861
_cell_angle_alpha    90
_cell_angle_beta     90
_cell_angle_gamma    90

_space_group_name_H-M_alt    "P 1"
_space_group_IT_number       1

loop_
  _space_group_symop_operation_xyz
  'x, y, z'

loop_
  _atom_site_type_symbol
  _atom_site_label
  _atom_site_symmetry_multiplicity
  _atom_site_fract_x
  _atom_site_fract_y
  _atom_site_fract_z
  _atom_site_occupancy
  Br  Br1       1.0  0.67200  0.25000  0.00801  1.0000
  Br  Br2       1.0  0.98000  0.75000  0.10000  1.0000
  Br  Br3       1.0  0.28500  0.25000  0.20500  1.0000
  Br  Br4       1.0  0.78500  0.25000  0.29500  1.0000
  Br  Br5       1.0  0.48000  0.75000  0.40000  1.0000
  Br  Br6       1.0  0.17200  0.25000  0.49200  1.0000
  Br  Br7       1.0  0.82800  0.75000  0.50800  1.0000
  Br  Br8       1.0  0.52000  0.25000  0.60000  1.0000
  Br  Br9       1.0  0.21500  0.75000  0.70500  1.0000
  Br  Br10      1.0  0.71500  0.75000  0.79500  1.0000
  Br  Br11      1.0  0.02000  0.25000  0.90000  1.0000
  Br  Br12      1.0  0.32800  0.75000  0.99200  1.0000
  K   K1        1.0  0.57200  0.75000  0.17700  1.0000
  K   K2        1.0  0.07170  0.75000  0.32300  1.0000
  K   K3        1.0  0.92800  0.25000  0.67700  1.0000
  K   K4        1.0  0.42800  0.25000  0.82300  1.0000
  Mn  Mn1       1.0  0.16600  0.25000  0.05410  1.0000
  Mn  Mn2       1.0  0.66600  0.25000  0.44600  1.0000
  Mn  Mn3       1.0  0.33400  0.75000  0.55400  1.0000
  Mn  Mn4       1.0  0.83400  0.75000  0.94600  1.0000
