data_image0
_chemical_formula_structural       O12Ru2Sr4Tm2
_chemical_formula_sum              "O12 Ru2 Sr4 Tm2"
_cell_length_a       5.73984
_cell_length_b       5.75857
_cell_length_c       8.1222
_cell_angle_alpha    90
_cell_angle_beta     90.229
_cell_angle_gamma    90

_space_group_name_H-M_alt    "P 1"
_space_group_IT_number       1

loop_
  _space_group_symop_operation_xyz
  'x, y, z'

loop_
  _atom_site_type_symbol
  _atom_site_label
  _atom_site_symmetry_multiplicity
  _atom_site_fract_x
  _atom_site_fract_y
  _atom_site_fract_z
  _atom_site_occupancy
  O   O1        1.0  0.27200  0.29700  0.03750  1.0000
  O   O2        1.0  0.20000  0.77400  0.03800  1.0000
  O   O3        1.0  0.92800  0.48500  0.23700  1.0000
  O   O4        1.0  0.57200  0.98500  0.26300  1.0000
  O   O5        1.0  0.30000  0.27400  0.46200  1.0000
  O   O6        1.0  0.22800  0.79700  0.46300  1.0000
  O   O7        1.0  0.77200  0.20300  0.53700  1.0000
  O   O8        1.0  0.70000  0.72600  0.53800  1.0000
  O   O9        1.0  0.42800  0.01540  0.73700  1.0000
  O   O10       1.0  0.07190  0.51500  0.76300  1.0000
  O   O11       1.0  0.80000  0.22600  0.96200  1.0000
  O   O12       1.0  0.72800  0.70300  0.96300  1.0000
  Ru  Ru1       1.0  0.00000  0.50000  0.00000  1.0000
  Ru  Ru2       1.0  0.50000  0.00000  0.50000  1.0000
  Sr  Sr1       1.0  0.00627  0.03260  0.24900  1.0000
  Sr  Sr2       1.0  0.49400  0.53300  0.25100  1.0000
  Sr  Sr3       1.0  0.50600  0.46700  0.74900  1.0000
  Sr  Sr4       1.0  0.99400  0.96700  0.75100  1.0000
  Tm  Tm1       1.0  0.50000  0.00000  0.00000  1.0000
  Tm  Tm2       1.0  1.00000  0.50000  0.50000  1.0000
