data_image0
_chemical_formula_structural       Cu4S12Ta4
_chemical_formula_sum              "Cu4 S12 Ta4"
_cell_length_a       9.51851
_cell_length_b       3.50867
_cell_length_c       11.9191
_cell_angle_alpha    90
_cell_angle_beta     90
_cell_angle_gamma    90

_space_group_name_H-M_alt    "P 1"
_space_group_IT_number       1

loop_
  _space_group_symop_operation_xyz
  'x, y, z'

loop_
  _atom_site_type_symbol
  _atom_site_label
  _atom_site_symmetry_multiplicity
  _atom_site_fract_x
  _atom_site_fract_y
  _atom_site_fract_z
  _atom_site_occupancy
  Cu  Cu1       1.0  0.72800  0.75000  0.21600  1.0000
  Cu  Cu2       1.0  0.22800  0.75000  0.28400  1.0000
  Cu  Cu3       1.0  0.77200  0.25000  0.71600  1.0000
  Cu  Cu4       1.0  0.27200  0.25000  0.78400  1.0000
  S   S1        1.0  0.28000  0.75000  0.09640  1.0000
  S   S2        1.0  0.91900  0.75000  0.09750  1.0000
  S   S3        1.0  0.58000  0.25000  0.17900  1.0000
  S   S4        1.0  0.08030  0.25000  0.32100  1.0000
  S   S5        1.0  0.41900  0.75000  0.40300  1.0000
  S   S6        1.0  0.78000  0.75000  0.40400  1.0000
  S   S7        1.0  0.22000  0.25000  0.59600  1.0000
  S   S8        1.0  0.58100  0.25000  0.59700  1.0000
  S   S9        1.0  0.92000  0.75000  0.67900  1.0000
  S   S10       1.0  0.42000  0.75000  0.82100  1.0000
  S   S11       1.0  0.08150  0.25000  0.90300  1.0000
  S   S12       1.0  0.72000  0.25000  0.90400  1.0000
  Ta  Ta1       1.0  0.10800  0.25000  0.12900  1.0000
  Ta  Ta2       1.0  0.60800  0.25000  0.37100  1.0000
  Ta  Ta3       1.0  0.39200  0.75000  0.62900  1.0000
  Ta  Ta4       1.0  0.89200  0.75000  0.87100  1.0000
