data_image0
_chemical_formula_structural       K4Na4O8Zn4
_chemical_formula_sum              "K4 Na4 O8 Zn4"
_cell_length_a       5.80676
_cell_length_b       9.59175
_cell_length_c       5.55453
_cell_angle_alpha    90
_cell_angle_beta     103.425
_cell_angle_gamma    90

_space_group_name_H-M_alt    "P 1"
_space_group_IT_number       1

loop_
  _space_group_symop_operation_xyz
  'x, y, z'

loop_
  _atom_site_type_symbol
  _atom_site_label
  _atom_site_symmetry_multiplicity
  _atom_site_fract_x
  _atom_site_fract_y
  _atom_site_fract_z
  _atom_site_occupancy
  K   K1        1.0  0.25000  0.87700  0.00036  1.0000
  K   K2        1.0  0.75000  0.37700  0.50000  1.0000
  K   K3        1.0  0.25000  0.62300  0.50000  1.0000
  K   K4        1.0  0.75000  0.12300  1.00000  1.0000
  Na  Na1       1.0  0.25100  0.52200  0.00142  1.0000
  Na  Na2       1.0  0.74900  0.02210  0.49900  1.0000
  Na  Na3       1.0  0.25100  0.97800  0.50100  1.0000
  Na  Na4       1.0  0.74900  0.47800  0.99900  1.0000
  O   O1        1.0  0.06550  0.35800  0.19900  1.0000
  O   O2        1.0  0.56900  0.64100  0.20700  1.0000
  O   O3        1.0  0.43100  0.14100  0.29300  1.0000
  O   O4        1.0  0.93500  0.85800  0.30100  1.0000
  O   O5        1.0  0.06550  0.14200  0.69900  1.0000
  O   O6        1.0  0.56900  0.85900  0.70700  1.0000
  O   O7        1.0  0.43100  0.35900  0.79300  1.0000
  O   O8        1.0  0.93500  0.64200  0.80100  1.0000
  Zn  Zn1       1.0  0.75100  0.76000  0.00406  1.0000
  Zn  Zn2       1.0  0.24900  0.26000  0.49600  1.0000
  Zn  Zn3       1.0  0.75100  0.74000  0.50400  1.0000
  Zn  Zn4       1.0  0.24900  0.24000  0.99600  1.0000
