data_image0
_chemical_formula_structural       Nb6S12V2
_chemical_formula_sum              "Nb6 S12 V2"
_cell_length_a       5.79419
_cell_length_b       5.79419
_cell_length_c       12.1532
_cell_angle_alpha    90
_cell_angle_beta     90
_cell_angle_gamma    120.001

_space_group_name_H-M_alt    "P 1"
_space_group_IT_number       1

loop_
  _space_group_symop_operation_xyz
  'x, y, z'

loop_
  _atom_site_type_symbol
  _atom_site_label
  _atom_site_symmetry_multiplicity
  _atom_site_fract_x
  _atom_site_fract_y
  _atom_site_fract_z
  _atom_site_occupancy
  Nb  Nb1       1.0  0.00000  0.00000  0.00000  1.0000
  Nb  Nb2       1.0  0.66700  0.33300  0.00217  1.0000
  Nb  Nb3       1.0  0.66700  0.33300  0.49800  1.0000
  Nb  Nb4       1.0  0.99999  0.99999  0.50000  1.0000
  Nb  Nb5       1.0  0.33300  0.66700  0.50200  1.0000
  Nb  Nb6       1.0  0.33300  0.66700  0.99800  1.0000
  S   S1        1.0  0.33100  0.33400  0.13000  1.0000
  S   S2        1.0  0.00230  0.66900  0.13000  1.0000
  S   S3        1.0  0.66600  0.99800  0.13000  1.0000
  S   S4        1.0  0.00228  0.33400  0.37000  1.0000
  S   S5        1.0  0.33100  0.99800  0.37000  1.0000
  S   S6        1.0  0.66600  0.66900  0.37000  1.0000
  S   S7        1.0  0.33400  0.00228  0.63000  1.0000
  S   S8        1.0  0.66900  0.66600  0.63000  1.0000
  S   S9        1.0  0.99800  0.33100  0.63000  1.0000
  S   S10       1.0  0.99800  0.66600  0.87000  1.0000
  S   S11       1.0  0.66900  0.00230  0.87000  1.0000
  S   S12       1.0  0.33400  0.33100  0.87000  1.0000
  V   V1        1.0  0.33300  0.66700  0.25000  1.0000
  V   V2        1.0  0.66700  0.33300  0.75000  1.0000
