data_image0
_chemical_formula_structural       B16Pu4
_chemical_formula_sum              "B16 Pu4"
_cell_length_a       7.08542
_cell_length_b       7.08542
_cell_length_c       4.00322
_cell_angle_alpha    90
_cell_angle_beta     90
_cell_angle_gamma    90

_space_group_name_H-M_alt    "P 1"
_space_group_IT_number       1

loop_
  _space_group_symop_operation_xyz
  'x, y, z'

loop_
  _atom_site_type_symbol
  _atom_site_label
  _atom_site_symmetry_multiplicity
  _atom_site_fract_x
  _atom_site_fract_y
  _atom_site_fract_z
  _atom_site_occupancy
  B   B1        1.0  0.00000  0.00000  0.20200  1.0000
  B   B2        1.0  0.50000  0.50000  0.20200  1.0000
  B   B3        1.0  0.17700  0.03920  0.50000  1.0000
  B   B4        1.0  0.41300  0.08700  0.50000  1.0000
  B   B5        1.0  0.96100  0.17700  0.50000  1.0000
  B   B6        1.0  0.46100  0.32300  0.50000  1.0000
  B   B7        1.0  0.91300  0.41300  0.50000  1.0000
  B   B8        1.0  0.67700  0.46100  0.50000  1.0000
  B   B9        1.0  0.32300  0.53900  0.50000  1.0000
  B   B10       1.0  0.08700  0.58700  0.50000  1.0000
  B   B11       1.0  0.53900  0.67700  0.50000  1.0000
  B   B12       1.0  0.03920  0.82300  0.50000  1.0000
  B   B13       1.0  0.58700  0.91300  0.50000  1.0000
  B   B14       1.0  0.82300  0.96100  0.50000  1.0000
  B   B15       1.0  0.00000  0.00000  0.79800  1.0000
  B   B16       1.0  0.50000  0.50000  0.79800  1.0000
  Pu  Pu1       1.0  0.68600  0.18600  0.00000  1.0000
  Pu  Pu2       1.0  0.18600  0.31400  0.00000  1.0000
  Pu  Pu3       1.0  0.81400  0.68600  0.00000  1.0000
  Pu  Pu4       1.0  0.31400  0.81400  0.00000  1.0000
