data_image0
_chemical_formula_structural       Al13Ba7
_chemical_formula_sum              "Al13 Ba7"
_cell_length_a       6.05668
_cell_length_b       6.05668
_cell_length_c       17.2975
_cell_angle_alpha    90
_cell_angle_beta     89.9998
_cell_angle_gamma    120

_space_group_name_H-M_alt    "P 1"
_space_group_IT_number       1

loop_
  _space_group_symop_operation_xyz
  'x, y, z'

loop_
  _atom_site_type_symbol
  _atom_site_label
  _atom_site_symmetry_multiplicity
  _atom_site_fract_x
  _atom_site_fract_y
  _atom_site_fract_z
  _atom_site_occupancy
  Al  Al1       1.0  0.33300  0.66700  0.09740  1.0000
  Al  Al2       1.0  0.16100  0.32200  0.21500  1.0000
  Al  Al3       1.0  0.16100  0.83900  0.21500  1.0000
  Al  Al4       1.0  0.67800  0.83900  0.21500  1.0000
  Al  Al5       1.0  0.33300  0.66700  0.34800  1.0000
  Al  Al6       1.0  0.00000  0.50000  0.50000  1.0000
  Al  Al7       1.0  0.50000  0.50000  0.50000  1.0000
  Al  Al8       1.0  0.50000  0.00000  0.50000  1.0000
  Al  Al9       1.0  0.66700  0.33300  0.65200  1.0000
  Al  Al10      1.0  0.32200  0.16100  0.78500  1.0000
  Al  Al11      1.0  0.83900  0.16100  0.78500  1.0000
  Al  Al12      1.0  0.83900  0.67800  0.78500  1.0000
  Al  Al13      1.0  0.66700  0.33300  0.90300  1.0000
  Ba  Ba1       1.0  0.00000  0.00000  0.00000  1.0000
  Ba  Ba2       1.0  0.66700  0.33300  0.10800  1.0000
  Ba  Ba3       1.0  0.66700  0.33300  0.32200  1.0000
  Ba  Ba4       1.0  1.00000  1.00000  0.39300  1.0000
  Ba  Ba5       1.0  0.00000  0.00000  0.60700  1.0000
  Ba  Ba6       1.0  0.33300  0.66700  0.67800  1.0000
  Ba  Ba7       1.0  0.33300  0.66700  0.89200  1.0000
