data_image0
_chemical_formula_structural       K4P6
_chemical_formula_sum              "K4 P6"
_cell_length_a       6.37693
_cell_length_b       6.37693
_cell_length_c       8.36782
_cell_angle_alpha    110.608
_cell_angle_beta     110.608
_cell_angle_gamma    94.3758

_space_group_name_H-M_alt    "P 1"
_space_group_IT_number       1

loop_
  _space_group_symop_operation_xyz
  'x, y, z'

loop_
  _atom_site_type_symbol
  _atom_site_label
  _atom_site_symmetry_multiplicity
  _atom_site_fract_x
  _atom_site_fract_y
  _atom_site_fract_z
  _atom_site_occupancy
  K   K1        1.0  0.72500  0.27500  0.00000  1.0000
  K   K2        1.0  0.27500  0.72500  0.00000  1.0000
  K   K3        1.0  0.75000  0.25000  0.50000  1.0000
  K   K4        1.0  0.25000  0.75000  0.50000  1.0000
  P   P1        1.0  0.29200  0.29200  0.15100  1.0000
  P   P2        1.0  0.86000  0.86000  0.15100  1.0000
  P   P3        1.0  0.15300  0.15300  0.30500  1.0000
  P   P4        1.0  0.84700  0.84700  0.69500  1.0000
  P   P5        1.0  0.14000  0.14000  0.84900  1.0000
  P   P6        1.0  0.70800  0.70800  0.84900  1.0000
