data_image0
_chemical_formula_structural       Br12Fe4Tl4
_chemical_formula_sum              "Br12 Fe4 Tl4"
_cell_length_a       9.35855
_cell_length_b       4.02689
_cell_length_c       15.1749
_cell_angle_alpha    90
_cell_angle_beta     90
_cell_angle_gamma    90

_space_group_name_H-M_alt    "P 1"
_space_group_IT_number       1

loop_
  _space_group_symop_operation_xyz
  'x, y, z'

loop_
  _atom_site_type_symbol
  _atom_site_label
  _atom_site_symmetry_multiplicity
  _atom_site_fract_x
  _atom_site_fract_y
  _atom_site_fract_z
  _atom_site_occupancy
  Br  Br1       1.0  0.68000  0.25000  0.00410  1.0000
  Br  Br2       1.0  0.97800  0.75000  0.09860  1.0000
  Br  Br3       1.0  0.27100  0.25000  0.20300  1.0000
  Br  Br4       1.0  0.77100  0.25000  0.29700  1.0000
  Br  Br5       1.0  0.47800  0.75000  0.40100  1.0000
  Br  Br6       1.0  0.18000  0.25000  0.49600  1.0000
  Br  Br7       1.0  0.82000  0.75000  0.50400  1.0000
  Br  Br8       1.0  0.52200  0.25000  0.59900  1.0000
  Br  Br9       1.0  0.22900  0.75000  0.70300  1.0000
  Br  Br10      1.0  0.72900  0.75000  0.79700  1.0000
  Br  Br11      1.0  0.02200  0.25000  0.90100  1.0000
  Br  Br12      1.0  0.32000  0.75000  0.99600  1.0000
  Fe  Fe1       1.0  0.15800  0.25000  0.05240  1.0000
  Fe  Fe2       1.0  0.65800  0.25000  0.44800  1.0000
  Fe  Fe3       1.0  0.34200  0.75000  0.55200  1.0000
  Fe  Fe4       1.0  0.84200  0.75000  0.94800  1.0000
  Tl  Tl1       1.0  0.55700  0.75000  0.17000  1.0000
  Tl  Tl2       1.0  0.05700  0.75000  0.33000  1.0000
  Tl  Tl3       1.0  0.94300  0.25000  0.67000  1.0000
  Tl  Tl4       1.0  0.44300  0.25000  0.83000  1.0000
