data_image0
_chemical_formula_structural       Ge12Pt8
_chemical_formula_sum              "Ge12 Pt8"
_cell_length_a       16.5988
_cell_length_b       3.44619
_cell_length_c       6.28792
_cell_angle_alpha    90
_cell_angle_beta     90
_cell_angle_gamma    90

_space_group_name_H-M_alt    "P 1"
_space_group_IT_number       1

loop_
  _space_group_symop_operation_xyz
  'x, y, z'

loop_
  _atom_site_type_symbol
  _atom_site_label
  _atom_site_symmetry_multiplicity
  _atom_site_fract_x
  _atom_site_fract_y
  _atom_site_fract_z
  _atom_site_occupancy
  Ge  Ge1       1.0  0.57100  0.75000  0.05810  1.0000
  Ge  Ge2       1.0  0.88700  0.75000  0.08560  1.0000
  Ge  Ge3       1.0  0.26900  0.75000  0.15900  1.0000
  Ge  Ge4       1.0  0.76900  0.75000  0.34100  1.0000
  Ge  Ge5       1.0  0.38700  0.75000  0.41400  1.0000
  Ge  Ge6       1.0  0.07090  0.75000  0.44200  1.0000
  Ge  Ge7       1.0  0.92900  0.25000  0.55800  1.0000
  Ge  Ge8       1.0  0.61300  0.25000  0.58600  1.0000
  Ge  Ge9       1.0  0.23100  0.25000  0.65900  1.0000
  Ge  Ge10      1.0  0.73100  0.25000  0.84100  1.0000
  Ge  Ge11      1.0  0.11300  0.25000  0.91400  1.0000
  Ge  Ge12      1.0  0.42900  0.25000  0.94200  1.0000
  Pt  Pt1       1.0  0.99300  0.25000  0.19500  1.0000
  Pt  Pt2       1.0  0.67100  0.25000  0.20700  1.0000
  Pt  Pt3       1.0  0.17100  0.25000  0.29300  1.0000
  Pt  Pt4       1.0  0.49300  0.25000  0.30500  1.0000
  Pt  Pt5       1.0  0.50700  0.75000  0.69500  1.0000
  Pt  Pt6       1.0  0.82900  0.75000  0.70700  1.0000
  Pt  Pt7       1.0  0.32900  0.75000  0.79300  1.0000
  Pt  Pt8       1.0  0.00659  0.75000  0.80500  1.0000
