data_image0
_chemical_formula_structural       Bi4S6
_chemical_formula_sum              "Bi4 S6"
_cell_length_a       7.18674
_cell_length_b       7.18674
_cell_length_c       7.5601
_cell_angle_alpha    118.379
_cell_angle_beta     61.6207
_cell_angle_gamma    120

_space_group_name_H-M_alt    "P 1"
_space_group_IT_number       1

loop_
  _space_group_symop_operation_xyz
  'x, y, z'

loop_
  _atom_site_type_symbol
  _atom_site_label
  _atom_site_symmetry_multiplicity
  _atom_site_fract_x
  _atom_site_fract_y
  _atom_site_fract_z
  _atom_site_occupancy
  Bi  Bi1       1.0  0.65200  0.34800  0.04530  1.0000
  Bi  Bi2       1.0  0.84800  0.15200  0.45500  1.0000
  Bi  Bi3       1.0  0.15200  0.84800  0.54500  1.0000
  Bi  Bi4       1.0  0.34800  0.65200  0.95500  1.0000
  S   S1        1.0  0.25000  0.04240  0.25000  1.0000
  S   S2        1.0  0.95800  0.45800  0.25000  1.0000
  S   S3        1.0  0.54200  0.75000  0.25000  1.0000
  S   S4        1.0  0.45800  0.25000  0.75000  1.0000
  S   S5        1.0  0.04240  0.54200  0.75000  1.0000
  S   S6        1.0  0.75000  0.95800  0.75000  1.0000
