data_image0
_chemical_formula_structural       S12U8
_chemical_formula_sum              "S12 U8"
_cell_length_a       10.4138
_cell_length_b       10.4837
_cell_length_c       3.78849
_cell_angle_alpha    90
_cell_angle_beta     90
_cell_angle_gamma    90

_space_group_name_H-M_alt    "P 1"
_space_group_IT_number       1

loop_
  _space_group_symop_operation_xyz
  'x, y, z'

loop_
  _atom_site_type_symbol
  _atom_site_label
  _atom_site_symmetry_multiplicity
  _atom_site_fract_x
  _atom_site_fract_y
  _atom_site_fract_z
  _atom_site_occupancy
  S   S1        1.0  0.87000  0.05200  0.25000  1.0000
  S   S2        1.0  0.20500  0.22600  0.25000  1.0000
  S   S3        1.0  0.94600  0.37300  0.25000  1.0000
  S   S4        1.0  0.63000  0.55200  0.25000  1.0000
  S   S5        1.0  0.29500  0.72600  0.25000  1.0000
  S   S6        1.0  0.55400  0.87300  0.25000  1.0000
  S   S7        1.0  0.44600  0.12700  0.75000  1.0000
  S   S8        1.0  0.70500  0.27400  0.75000  1.0000
  S   S9        1.0  0.37000  0.44800  0.75000  1.0000
  S   S10       1.0  0.05440  0.62700  0.75000  1.0000
  S   S11       1.0  0.79500  0.77400  0.75000  1.0000
  S   S12       1.0  0.13000  0.94800  0.75000  1.0000
  U   U1        1.0  0.51000  0.31300  0.25000  1.0000
  U   U2        1.0  0.18300  0.48900  0.25000  1.0000
  U   U3        1.0  0.99000  0.81300  0.25000  1.0000
  U   U4        1.0  0.31700  0.98900  0.25000  1.0000
  U   U5        1.0  0.68300  0.01060  0.75000  1.0000
  U   U6        1.0  0.01010  0.18700  0.75000  1.0000
  U   U7        1.0  0.81700  0.51100  0.75000  1.0000
  U   U8        1.0  0.49000  0.68700  0.75000  1.0000
