data_image0
_chemical_formula_structural       O8Pb4Rb8
_chemical_formula_sum              "O8 Pb4 Rb8"
_cell_length_a       11.1558
_cell_length_b       8.02765
_cell_length_c       7.65731
_cell_angle_alpha    121.09
_cell_angle_beta     87.3389
_cell_angle_gamma    119.144

_space_group_name_H-M_alt    "P 1"
_space_group_IT_number       1

loop_
  _space_group_symop_operation_xyz
  'x, y, z'

loop_
  _atom_site_type_symbol
  _atom_site_label
  _atom_site_symmetry_multiplicity
  _atom_site_fract_x
  _atom_site_fract_y
  _atom_site_fract_z
  _atom_site_occupancy
  O   O1        1.0  0.63000  0.15500  0.18100  1.0000
  O   O2        1.0  0.35400  0.75600  0.20500  1.0000
  O   O3        1.0  0.02630  0.23600  0.28700  1.0000
  O   O4        1.0  0.99500  0.80000  0.30000  1.0000
  O   O5        1.0  0.00490  0.20000  0.70000  1.0000
  O   O6        1.0  0.97400  0.76400  0.71300  1.0000
  O   O7        1.0  0.64600  0.24400  0.79500  1.0000
  O   O8        1.0  0.37000  0.84500  0.81900  1.0000
  Pb  Pb1       1.0  0.52300  0.23200  0.01530  1.0000
  Pb  Pb2       1.0  0.13500  0.19500  0.46900  1.0000
  Pb  Pb3       1.0  0.86500  0.80500  0.53100  1.0000
  Pb  Pb4       1.0  0.47700  0.76800  0.98500  1.0000
  Rb  Rb1       1.0  0.81600  0.75400  0.00847  1.0000
  Rb  Rb2       1.0  0.86500  0.29100  0.03330  1.0000
  Rb  Rb3       1.0  0.17400  0.72300  0.48600  1.0000
  Rb  Rb4       1.0  0.50800  0.76700  0.49900  1.0000
  Rb  Rb5       1.0  0.49200  0.23300  0.50100  1.0000
  Rb  Rb6       1.0  0.82600  0.27700  0.51400  1.0000
  Rb  Rb7       1.0  0.13500  0.70900  0.96700  1.0000
  Rb  Rb8       1.0  0.18400  0.24600  0.99200  1.0000
