data_image0
_chemical_formula_structural       Fe4I12Tl4
_chemical_formula_sum              "Fe4 I12 Tl4"
_cell_length_a       10.0369
_cell_length_b       4.27759
_cell_length_c       16.024
_cell_angle_alpha    90
_cell_angle_beta     90
_cell_angle_gamma    90

_space_group_name_H-M_alt    "P 1"
_space_group_IT_number       1

loop_
  _space_group_symop_operation_xyz
  'x, y, z'

loop_
  _atom_site_type_symbol
  _atom_site_label
  _atom_site_symmetry_multiplicity
  _atom_site_fract_x
  _atom_site_fract_y
  _atom_site_fract_z
  _atom_site_occupancy
  Fe  Fe1       1.0  0.84000  0.75000  0.05300  1.0000
  Fe  Fe2       1.0  0.34000  0.75000  0.44700  1.0000
  Fe  Fe3       1.0  0.66000  0.25000  0.55300  1.0000
  Fe  Fe4       1.0  0.16000  0.25000  0.94700  1.0000
  I   I1        1.0  0.32300  0.75000  0.00561  1.0000
  I   I2        1.0  0.01880  0.25000  0.10100  1.0000
  I   I3        1.0  0.72500  0.75000  0.20800  1.0000
  I   I4        1.0  0.22500  0.75000  0.29200  1.0000
  I   I5        1.0  0.51900  0.25000  0.39900  1.0000
  I   I6        1.0  0.82300  0.75000  0.49400  1.0000
  I   I7        1.0  0.17700  0.25000  0.50600  1.0000
  I   I8        1.0  0.48100  0.75000  0.60100  1.0000
  I   I9        1.0  0.77500  0.25000  0.70800  1.0000
  I   I10       1.0  0.27500  0.25000  0.79200  1.0000
  I   I11       1.0  0.98100  0.75000  0.89900  1.0000
  I   I12       1.0  0.67700  0.25000  0.99400  1.0000
  Tl  Tl1       1.0  0.44800  0.25000  0.17100  1.0000
  Tl  Tl2       1.0  0.94800  0.25000  0.32900  1.0000
  Tl  Tl3       1.0  0.05170  0.75000  0.67100  1.0000
  Tl  Tl4       1.0  0.55200  0.75000  0.82900  1.0000
