data_image0
_chemical_formula_structural       Ge4Na2O12Sc2
_chemical_formula_sum              "Ge4 Na2 O12 Sc2"
_cell_length_a       5.55414
_cell_length_b       6.81579
_cell_length_c       6.81579
_cell_angle_alpha    96.569
_cell_angle_beta     102.554
_cell_angle_gamma    77.4457

_space_group_name_H-M_alt    "P 1"
_space_group_IT_number       1

loop_
  _space_group_symop_operation_xyz
  'x, y, z'

loop_
  _atom_site_type_symbol
  _atom_site_label
  _atom_site_symmetry_multiplicity
  _atom_site_fract_x
  _atom_site_fract_y
  _atom_site_fract_z
  _atom_site_occupancy
  Ge  Ge1       1.0  0.74200  0.61800  0.19600  1.0000
  Ge  Ge2       1.0  0.24200  0.80400  0.38200  1.0000
  Ge  Ge3       1.0  0.75800  0.19600  0.61800  1.0000
  Ge  Ge4       1.0  0.25800  0.38200  0.80400  1.0000
  Na  Na1       1.0  0.25000  0.30500  0.30500  1.0000
  Na  Na2       1.0  0.75000  0.69500  0.69500  1.0000
  O   O1        1.0  0.63800  0.80700  0.02510  1.0000
  O   O2        1.0  0.81800  0.37600  0.08990  1.0000
  O   O3        1.0  0.13800  0.97500  0.19300  1.0000
  O   O4        1.0  0.51800  0.62200  0.34900  1.0000
  O   O5        1.0  0.68200  0.08990  0.37600  1.0000
  O   O6        1.0  0.01780  0.65100  0.37800  1.0000
  O   O7        1.0  0.98200  0.34900  0.62200  1.0000
  O   O8        1.0  0.31800  0.91000  0.62400  1.0000
  O   O9        1.0  0.48200  0.37800  0.65100  1.0000
  O   O10       1.0  0.86200  0.02510  0.80700  1.0000
  O   O11       1.0  0.18200  0.62400  0.91000  1.0000
  O   O12       1.0  0.36200  0.19300  0.97500  1.0000
  Sc  Sc1       1.0  0.75000  0.09850  0.09850  1.0000
  Sc  Sc2       1.0  0.25000  0.90200  0.90200  1.0000
