data_image0
_chemical_formula_structural       Cl12O4V4
_chemical_formula_sum              "Cl12 O4 V4"
_cell_length_a       5.03614
_cell_length_b       9.2158
_cell_length_c       11.3093
_cell_angle_alpha    90
_cell_angle_beta     90
_cell_angle_gamma    90

_space_group_name_H-M_alt    "P 1"
_space_group_IT_number       1

loop_
  _space_group_symop_operation_xyz
  'x, y, z'

loop_
  _atom_site_type_symbol
  _atom_site_label
  _atom_site_symmetry_multiplicity
  _atom_site_fract_x
  _atom_site_fract_y
  _atom_site_fract_z
  _atom_site_occupancy
  Cl  Cl1       1.0  0.27500  0.05680  0.13400  1.0000
  Cl  Cl2       1.0  0.27500  0.44300  0.13400  1.0000
  Cl  Cl3       1.0  0.74300  0.75000  0.13700  1.0000
  Cl  Cl4       1.0  0.24300  0.75000  0.36300  1.0000
  Cl  Cl5       1.0  0.77500  0.05680  0.36600  1.0000
  Cl  Cl6       1.0  0.77500  0.44300  0.36600  1.0000
  Cl  Cl7       1.0  0.22500  0.55700  0.63400  1.0000
  Cl  Cl8       1.0  0.22500  0.94300  0.63400  1.0000
  Cl  Cl9       1.0  0.75700  0.25000  0.63700  1.0000
  Cl  Cl10      1.0  0.25700  0.25000  0.86300  1.0000
  Cl  Cl11      1.0  0.72500  0.55700  0.86600  1.0000
  Cl  Cl12      1.0  0.72500  0.94300  0.86600  1.0000
  O   O1        1.0  0.82200  0.25000  0.05090  1.0000
  O   O2        1.0  0.32200  0.25000  0.44900  1.0000
  O   O3        1.0  0.67800  0.75000  0.55100  1.0000
  O   O4        1.0  0.17800  0.75000  0.94900  1.0000
  V   V1        1.0  0.14000  0.25000  0.04570  1.0000
  V   V2        1.0  0.64000  0.25000  0.45400  1.0000
  V   V3        1.0  0.36000  0.75000  0.54600  1.0000
  V   V4        1.0  0.86000  0.75000  0.95400  1.0000
