data_image0
_chemical_formula_structural       Cs8O8Pb4
_chemical_formula_sum              "Cs8 O8 Pb4"
_cell_length_a       11.8368
_cell_length_b       8.37077
_cell_length_c       7.90977
_cell_angle_alpha    120.811
_cell_angle_beta     87.6213
_cell_angle_gamma    119.151

_space_group_name_H-M_alt    "P 1"
_space_group_IT_number       1

loop_
  _space_group_symop_operation_xyz
  'x, y, z'

loop_
  _atom_site_type_symbol
  _atom_site_label
  _atom_site_symmetry_multiplicity
  _atom_site_fract_x
  _atom_site_fract_y
  _atom_site_fract_z
  _atom_site_occupancy
  Cs  Cs1       1.0  0.81300  0.75700  0.00644  1.0000
  Cs  Cs2       1.0  0.86100  0.28800  0.03000  1.0000
  Cs  Cs3       1.0  0.17600  0.72500  0.48800  1.0000
  Cs  Cs4       1.0  0.50800  0.75900  0.49500  1.0000
  Cs  Cs5       1.0  0.49200  0.24100  0.50500  1.0000
  Cs  Cs6       1.0  0.82400  0.27500  0.51200  1.0000
  Cs  Cs7       1.0  0.13900  0.71200  0.97000  1.0000
  Cs  Cs8       1.0  0.18700  0.24300  0.99400  1.0000
  O   O1        1.0  0.62500  0.14600  0.17200  1.0000
  O   O2        1.0  0.36100  0.77000  0.20600  1.0000
  O   O3        1.0  0.02970  0.23500  0.29600  1.0000
  O   O4        1.0  0.99400  0.80900  0.30500  1.0000
  O   O5        1.0  0.00584  0.19100  0.69500  1.0000
  O   O6        1.0  0.97000  0.76500  0.70400  1.0000
  O   O7        1.0  0.63900  0.23000  0.79400  1.0000
  O   O8        1.0  0.37500  0.85400  0.82800  1.0000
  Pb  Pb1       1.0  0.52500  0.22300  0.01060  1.0000
  Pb  Pb2       1.0  0.12900  0.18700  0.47100  1.0000
  Pb  Pb3       1.0  0.87100  0.81300  0.52900  1.0000
  Pb  Pb4       1.0  0.47500  0.77700  0.98900  1.0000
