data_image0
_chemical_formula_structural       Ru6Si10Tb4
_chemical_formula_sum              "Ru6 Si10 Tb4"
_cell_length_a       5.62574
_cell_length_b       8.25436
_cell_length_c       8.25436
_cell_angle_alpha    94.806
_cell_angle_beta     109.924
_cell_angle_gamma    109.924

_space_group_name_H-M_alt    "P 1"
_space_group_IT_number       1

loop_
  _space_group_symop_operation_xyz
  'x, y, z'

loop_
  _atom_site_type_symbol
  _atom_site_label
  _atom_site_symmetry_multiplicity
  _atom_site_fract_x
  _atom_site_fract_y
  _atom_site_fract_z
  _atom_site_occupancy
  Ru  Ru1       1.0  0.40700  0.76100  0.05320  1.0000
  Ru  Ru2       1.0  0.09280  0.94700  0.23900  1.0000
  Ru  Ru3       1.0  0.25000  0.50000  0.50000  1.0000
  Ru  Ru4       1.0  0.75000  0.50000  0.50000  1.0000
  Ru  Ru5       1.0  0.90700  0.05320  0.76100  1.0000
  Ru  Ru6       1.0  0.59300  0.23900  0.94700  1.0000
  Si  Si1       1.0  0.25000  0.00000  0.00000  1.0000
  Si  Si2       1.0  0.75000  0.00000  0.00000  1.0000
  Si  Si3       1.0  0.83100  0.42700  0.23600  1.0000
  Si  Si4       1.0  0.25000  0.70800  0.29200  1.0000
  Si  Si5       1.0  0.75000  0.70800  0.29200  1.0000
  Si  Si6       1.0  0.33100  0.23600  0.42700  1.0000
  Si  Si7       1.0  0.66900  0.76400  0.57300  1.0000
  Si  Si8       1.0  0.25000  0.29200  0.70800  1.0000
  Si  Si9       1.0  0.75000  0.29200  0.70800  1.0000
  Si  Si10      1.0  0.16900  0.57300  0.76400  1.0000
  Tb  Tb1       1.0  0.23200  0.36800  0.09690  1.0000
  Tb  Tb2       1.0  0.73200  0.09690  0.36800  1.0000
  Tb  Tb3       1.0  0.26800  0.90300  0.63200  1.0000
  Tb  Tb4       1.0  0.76800  0.63200  0.90300  1.0000
