data_image0
_chemical_formula_structural       F13Na5Zr2
_chemical_formula_sum              "F13 Na5 Zr2"
_cell_length_a       5.34653
_cell_length_b       6.41263
_cell_length_c       8.60804
_cell_angle_alpha    96.7473
_cell_angle_beta     90
_cell_angle_gamma    114.637

_space_group_name_H-M_alt    "P 1"
_space_group_IT_number       1

loop_
  _space_group_symop_operation_xyz
  'x, y, z'

loop_
  _atom_site_type_symbol
  _atom_site_label
  _atom_site_symmetry_multiplicity
  _atom_site_fract_x
  _atom_site_fract_y
  _atom_site_fract_z
  _atom_site_occupancy
  F   F1        1.0  0.00000  0.00000  0.00000  1.0000
  F   F2        1.0  0.42200  0.36800  0.12400  1.0000
  F   F3        1.0  0.94600  0.36800  0.12400  1.0000
  F   F4        1.0  0.17800  0.88900  0.26200  1.0000
  F   F5        1.0  0.71100  0.88900  0.26200  1.0000
  F   F6        1.0  0.37300  0.29300  0.41500  1.0000
  F   F7        1.0  0.91900  0.29300  0.41500  1.0000
  F   F8        1.0  0.08060  0.70700  0.58500  1.0000
  F   F9        1.0  0.62700  0.70700  0.58500  1.0000
  F   F10       1.0  0.28900  0.11100  0.73800  1.0000
  F   F11       1.0  0.82200  0.11100  0.73800  1.0000
  F   F12       1.0  0.05450  0.63200  0.87600  1.0000
  F   F13       1.0  0.57800  0.63200  0.87600  1.0000
  Na  Na1       1.0  0.81600  0.63200  0.10100  1.0000
  Na  Na2       1.0  0.34200  0.68400  0.39200  1.0000
  Na  Na3       1.0  1.00000  1.00000  0.50000  1.0000
  Na  Na4       1.0  0.65800  0.31600  0.60800  1.0000
  Na  Na5       1.0  0.18400  0.36800  0.89900  1.0000
  Zr  Zr1       1.0  0.08520  0.17000  0.23000  1.0000
  Zr  Zr2       1.0  0.91500  0.83000  0.77000  1.0000
