data_image0
_chemical_formula_structural       O8Rb8Sn4
_chemical_formula_sum              "O8 Rb8 Sn4"
_cell_length_a       5.75349
_cell_length_b       7.47661
_cell_length_c       11.1226
_cell_angle_alpha    90
_cell_angle_beta     90
_cell_angle_gamma    90

_space_group_name_H-M_alt    "P 1"
_space_group_IT_number       1

loop_
  _space_group_symop_operation_xyz
  'x, y, z'

loop_
  _atom_site_type_symbol
  _atom_site_label
  _atom_site_symmetry_multiplicity
  _atom_site_fract_x
  _atom_site_fract_y
  _atom_site_fract_z
  _atom_site_occupancy
  O   O1        1.0  0.34700  0.69000  0.05320  1.0000
  O   O2        1.0  0.50200  0.08690  0.06290  1.0000
  O   O3        1.0  0.49800  0.58700  0.43700  1.0000
  O   O4        1.0  0.65300  0.19000  0.44700  1.0000
  O   O5        1.0  0.15300  0.31000  0.55300  1.0000
  O   O6        1.0  0.99800  0.91300  0.56300  1.0000
  O   O7        1.0  0.00232  0.41300  0.93700  1.0000
  O   O8        1.0  0.84700  0.81000  0.94700  1.0000
  Rb  Rb1       1.0  0.99800  0.11000  0.08880  1.0000
  Rb  Rb2       1.0  0.48500  0.36600  0.23400  1.0000
  Rb  Rb3       1.0  0.51500  0.86600  0.26600  1.0000
  Rb  Rb4       1.0  0.00210  0.61000  0.41100  1.0000
  Rb  Rb5       1.0  0.50200  0.89000  0.58900  1.0000
  Rb  Rb6       1.0  0.01510  0.63400  0.73400  1.0000
  Rb  Rb7       1.0  0.98500  0.13400  0.76600  1.0000
  Rb  Rb8       1.0  0.49800  0.39000  0.91100  1.0000
  Sn  Sn1       1.0  0.99300  0.61300  0.05940  1.0000
  Sn  Sn2       1.0  0.00688  0.11300  0.44100  1.0000
  Sn  Sn3       1.0  0.50700  0.38700  0.55900  1.0000
  Sn  Sn4       1.0  0.49300  0.88700  0.94100  1.0000
