data_image0
_chemical_formula_structural       Br4Hg4O12
_chemical_formula_sum              "Br4 Hg4 O12"
_cell_length_a       4.43653
_cell_length_b       8.51413
_cell_length_c       9.65375
_cell_angle_alpha    107.748
_cell_angle_beta     103.284
_cell_angle_gamma    90

_space_group_name_H-M_alt    "P 1"
_space_group_IT_number       1

loop_
  _space_group_symop_operation_xyz
  'x, y, z'

loop_
  _atom_site_type_symbol
  _atom_site_label
  _atom_site_symmetry_multiplicity
  _atom_site_fract_x
  _atom_site_fract_y
  _atom_site_fract_z
  _atom_site_occupancy
  Br  Br1       1.0  0.63200  0.83900  0.35300  1.0000
  Br  Br2       1.0  0.72100  0.33900  0.35300  1.0000
  Br  Br3       1.0  0.27900  0.66100  0.64700  1.0000
  Br  Br4       1.0  0.36800  0.16100  0.64700  1.0000
  Hg  Hg1       1.0  0.08970  0.98400  0.13000  1.0000
  Hg  Hg2       1.0  0.04060  0.48400  0.13000  1.0000
  Hg  Hg3       1.0  0.95900  0.51600  0.87000  1.0000
  Hg  Hg4       1.0  0.91000  0.01650  0.87000  1.0000
  O   O1        1.0  0.65800  0.78700  0.17400  1.0000
  O   O2        1.0  0.51600  0.28700  0.17400  1.0000
  O   O3        1.0  0.03970  0.45600  0.35000  1.0000
  O   O4        1.0  0.31100  0.95600  0.35000  1.0000
  O   O5        1.0  0.49100  0.66700  0.37100  1.0000
  O   O6        1.0  0.88000  0.16700  0.37100  1.0000
  O   O7        1.0  0.12000  0.83300  0.62900  1.0000
  O   O8        1.0  0.50900  0.33300  0.62900  1.0000
  O   O9        1.0  0.96000  0.54400  0.65000  1.0000
  O   O10       1.0  0.68900  0.04370  0.65000  1.0000
  O   O11       1.0  0.48400  0.71300  0.82600  1.0000
  O   O12       1.0  0.34200  0.21300  0.82600  1.0000
