data_image0
_chemical_formula_structural       Li4O12Sn2Te2
_chemical_formula_sum              "Li4 O12 Sn2 Te2"
_cell_length_a       5.22449
_cell_length_b       4.8909
_cell_length_c       8.53
_cell_angle_alpha    90
_cell_angle_beta     90
_cell_angle_gamma    90

_space_group_name_H-M_alt    "P 1"
_space_group_IT_number       1

loop_
  _space_group_symop_operation_xyz
  'x, y, z'

loop_
  _atom_site_type_symbol
  _atom_site_label
  _atom_site_symmetry_multiplicity
  _atom_site_fract_x
  _atom_site_fract_y
  _atom_site_fract_z
  _atom_site_occupancy
  Li  Li1       1.0  0.50000  0.50000  0.20200  1.0000
  Li  Li2       1.0  0.50000  0.00000  0.30400  1.0000
  Li  Li3       1.0  0.00000  0.00000  0.70200  1.0000
  Li  Li4       1.0  0.00000  0.50000  0.80400  1.0000
  O   O1        1.0  0.68800  0.21200  0.08960  1.0000
  O   O2        1.0  0.31200  0.78800  0.08960  1.0000
  O   O3        1.0  0.16600  0.23400  0.24800  1.0000
  O   O4        1.0  0.83400  0.76600  0.24800  1.0000
  O   O5        1.0  0.66000  0.29000  0.42400  1.0000
  O   O6        1.0  0.34000  0.71000  0.42400  1.0000
  O   O7        1.0  0.18800  0.28800  0.59000  1.0000
  O   O8        1.0  0.81200  0.71200  0.59000  1.0000
  O   O9        1.0  0.66600  0.26600  0.74800  1.0000
  O   O10       1.0  0.33400  0.73400  0.74800  1.0000
  O   O11       1.0  0.16000  0.21000  0.92400  1.0000
  O   O12       1.0  0.84000  0.79000  0.92400  1.0000
  Sn  Sn1       1.0  0.00000  0.50000  0.40500  1.0000
  Sn  Sn2       1.0  0.50000  0.00000  0.90500  1.0000
  Te  Te1       1.0  0.00000  0.00000  0.09470  1.0000
  Te  Te2       1.0  0.50000  0.50000  0.59500  1.0000
