data_image0
_chemical_formula_structural       Cd4Cl12Tl4
_chemical_formula_sum              "Cd4 Cl12 Tl4"
_cell_length_a       9.01324
_cell_length_b       4.01991
_cell_length_c       14.9116
_cell_angle_alpha    90
_cell_angle_beta     90
_cell_angle_gamma    90

_space_group_name_H-M_alt    "P 1"
_space_group_IT_number       1

loop_
  _space_group_symop_operation_xyz
  'x, y, z'

loop_
  _atom_site_type_symbol
  _atom_site_label
  _atom_site_symmetry_multiplicity
  _atom_site_fract_x
  _atom_site_fract_y
  _atom_site_fract_z
  _atom_site_occupancy
  Cd  Cd1       1.0  0.17200  0.25000  0.05370  1.0000
  Cd  Cd2       1.0  0.67200  0.25000  0.44600  1.0000
  Cd  Cd3       1.0  0.32800  0.75000  0.55400  1.0000
  Cd  Cd4       1.0  0.82800  0.75000  0.94600  1.0000
  Cl  Cl1       1.0  0.66600  0.25000  0.00913  1.0000
  Cl  Cl2       1.0  0.98100  0.75000  0.10100  1.0000
  Cl  Cl3       1.0  0.29100  0.25000  0.20900  1.0000
  Cl  Cl4       1.0  0.79100  0.25000  0.29100  1.0000
  Cl  Cl5       1.0  0.48100  0.75000  0.39900  1.0000
  Cl  Cl6       1.0  0.16600  0.25000  0.49100  1.0000
  Cl  Cl7       1.0  0.83400  0.75000  0.50900  1.0000
  Cl  Cl8       1.0  0.51900  0.25000  0.60100  1.0000
  Cl  Cl9       1.0  0.20900  0.75000  0.70900  1.0000
  Cl  Cl10      1.0  0.70900  0.75000  0.79100  1.0000
  Cl  Cl11      1.0  0.01870  0.25000  0.89900  1.0000
  Cl  Cl12      1.0  0.33400  0.75000  0.99100  1.0000
  Tl  Tl1       1.0  0.56700  0.75000  0.17900  1.0000
  Tl  Tl2       1.0  0.06750  0.75000  0.32100  1.0000
  Tl  Tl3       1.0  0.93300  0.25000  0.67900  1.0000
  Tl  Tl4       1.0  0.43300  0.25000  0.82100  1.0000
