data_image0
_chemical_formula_structural       Ba4F8O6W2
_chemical_formula_sum              "Ba4 F8 O6 W2"
_cell_length_a       7.15089
_cell_length_b       7.34639
_cell_length_c       7.34639
_cell_angle_alpha    101.361
_cell_angle_beta     117.193
_cell_angle_gamma    62.8074

_space_group_name_H-M_alt    "P 1"
_space_group_IT_number       1

loop_
  _space_group_symop_operation_xyz
  'x, y, z'

loop_
  _atom_site_type_symbol
  _atom_site_label
  _atom_site_symmetry_multiplicity
  _atom_site_fract_x
  _atom_site_fract_y
  _atom_site_fract_z
  _atom_site_occupancy
  Ba  Ba1       1.0  0.11500  0.50000  0.15300  1.0000
  Ba  Ba2       1.0  0.61500  0.84700  0.50000  1.0000
  Ba  Ba3       1.0  0.94500  0.26200  0.50100  1.0000
  Ba  Ba4       1.0  0.44500  0.49900  0.73800  1.0000
  F   F1        1.0  0.64600  0.08170  0.25500  1.0000
  F   F2        1.0  0.50300  0.52300  0.39700  1.0000
  F   F3        1.0  0.32300  0.22800  0.47200  1.0000
  F   F4        1.0  0.00269  0.60300  0.47700  1.0000
  F   F5        1.0  0.84100  0.10500  0.72100  1.0000
  F   F6        1.0  0.82300  0.52800  0.77200  1.0000
  F   F7        1.0  0.34100  0.27900  0.89500  1.0000
  F   F8        1.0  0.14600  0.74500  0.91800  1.0000
  O   O1        1.0  0.23900  0.07840  0.05600  1.0000
  O   O2        1.0  0.83200  0.28400  0.08770  1.0000
  O   O3        1.0  0.62400  0.72300  0.09030  1.0000
  O   O4        1.0  0.12400  0.91000  0.27700  1.0000
  O   O5        1.0  0.33200  0.91200  0.71600  1.0000
  O   O6        1.0  0.73900  0.94400  0.92200  1.0000
  W   W1        1.0  0.99400  0.02710  0.03440  1.0000
  W   W2        1.0  0.49400  0.96600  0.97300  1.0000
