data_image0
_chemical_formula_structural       Gd8Te12
_chemical_formula_sum              "Gd8 Te12"
_cell_length_a       12.085
_cell_length_b       4.32125
_cell_length_c       11.8671
_cell_angle_alpha    90
_cell_angle_beta     90
_cell_angle_gamma    90

_space_group_name_H-M_alt    "P 1"
_space_group_IT_number       1

loop_
  _space_group_symop_operation_xyz
  'x, y, z'

loop_
  _atom_site_type_symbol
  _atom_site_label
  _atom_site_symmetry_multiplicity
  _atom_site_fract_x
  _atom_site_fract_y
  _atom_site_fract_z
  _atom_site_occupancy
  Gd  Gd1       1.0  0.80400  0.25000  0.00315  1.0000
  Gd  Gd2       1.0  0.48200  0.25000  0.18800  1.0000
  Gd  Gd3       1.0  0.98200  0.25000  0.31200  1.0000
  Gd  Gd4       1.0  0.30400  0.25000  0.49700  1.0000
  Gd  Gd5       1.0  0.69600  0.75000  0.50300  1.0000
  Gd  Gd6       1.0  0.01770  0.75000  0.68800  1.0000
  Gd  Gd7       1.0  0.51800  0.75000  0.81200  1.0000
  Gd  Gd8       1.0  0.19600  0.75000  0.99700  1.0000
  Te  Te1       1.0  0.61800  0.75000  0.05640  1.0000
  Te  Te2       1.0  0.95800  0.75000  0.12300  1.0000
  Te  Te3       1.0  0.22400  0.25000  0.19600  1.0000
  Te  Te4       1.0  0.72400  0.25000  0.30400  1.0000
  Te  Te5       1.0  0.45800  0.75000  0.37700  1.0000
  Te  Te6       1.0  0.11800  0.75000  0.44400  1.0000
  Te  Te7       1.0  0.88200  0.25000  0.55600  1.0000
  Te  Te8       1.0  0.54200  0.25000  0.62300  1.0000
  Te  Te9       1.0  0.27600  0.75000  0.69600  1.0000
  Te  Te10      1.0  0.77600  0.75000  0.80400  1.0000
  Te  Te11      1.0  0.04150  0.25000  0.87700  1.0000
  Te  Te12      1.0  0.38200  0.25000  0.94400  1.0000
