data_image0
_chemical_formula_structural       BaCu2S2
_chemical_formula_sum              "Ba1 Cu2 S2"
_cell_length_a       3.90684
_cell_length_b       3.90684
_cell_length_c       6.88174
_cell_angle_alpha    106.49
_cell_angle_beta     106.49
_cell_angle_gamma    90

_space_group_name_H-M_alt    "P 1"
_space_group_IT_number       1

loop_
  _space_group_symop_operation_xyz
  'x, y, z'

loop_
  _atom_site_type_symbol
  _atom_site_label
  _atom_site_symmetry_multiplicity
  _atom_site_fract_x
  _atom_site_fract_y
  _atom_site_fract_z
  _atom_site_occupancy
  Ba  Ba1       1.0  0.00000  0.00000  0.00000  1.0000
  Cu  Cu1       1.0  0.75000  0.25000  0.50000  1.0000
  Cu  Cu2       1.0  0.25000  0.75000  0.50000  1.0000
  S   S1        1.0  0.63900  0.63900  0.27800  1.0000
  S   S2        1.0  0.36100  0.36100  0.72200  1.0000
