data_image0
_chemical_formula_structural       Br12C4F4
_chemical_formula_sum              "Br12 C4 F4"
_cell_length_a       8.58052
_cell_length_b       9.51661
_cell_length_c       6.19183
_cell_angle_alpha    90
_cell_angle_beta     90
_cell_angle_gamma    90

_space_group_name_H-M_alt    "P 1"
_space_group_IT_number       1

loop_
  _space_group_symop_operation_xyz
  'x, y, z'

loop_
  _atom_site_type_symbol
  _atom_site_label
  _atom_site_symmetry_multiplicity
  _atom_site_fract_x
  _atom_site_fract_y
  _atom_site_fract_z
  _atom_site_occupancy
  Br  Br1       1.0  0.21000  0.75000  0.13900  1.0000
  Br  Br2       1.0  0.40400  0.08110  0.22100  1.0000
  Br  Br3       1.0  0.40400  0.41900  0.22100  1.0000
  Br  Br4       1.0  0.90400  0.08110  0.27900  1.0000
  Br  Br5       1.0  0.90400  0.41900  0.27900  1.0000
  Br  Br6       1.0  0.71000  0.75000  0.36100  1.0000
  Br  Br7       1.0  0.29000  0.25000  0.63900  1.0000
  Br  Br8       1.0  0.09650  0.58100  0.72100  1.0000
  Br  Br9       1.0  0.09650  0.91900  0.72100  1.0000
  Br  Br10      1.0  0.59600  0.58100  0.77900  1.0000
  Br  Br11      1.0  0.59600  0.91900  0.77900  1.0000
  Br  Br12      1.0  0.79000  0.25000  0.86100  1.0000
  C   C1        1.0  0.93200  0.25000  0.10700  1.0000
  C   C2        1.0  0.43200  0.25000  0.39300  1.0000
  C   C3        1.0  0.56800  0.75000  0.60700  1.0000
  C   C4        1.0  0.06830  0.75000  0.89300  1.0000
  F   F1        1.0  0.08090  0.25000  0.02930  1.0000
  F   F2        1.0  0.58100  0.25000  0.47100  1.0000
  F   F3        1.0  0.41900  0.75000  0.52900  1.0000
  F   F4        1.0  0.91900  0.75000  0.97100  1.0000
