data_image0
_chemical_formula_structural       P16Zn4
_chemical_formula_sum              "P16 Zn4"
_cell_length_a       5.02828
_cell_length_b       5.02828
_cell_length_c       14.6047
_cell_angle_alpha    90
_cell_angle_beta     90
_cell_angle_gamma    90

_space_group_name_H-M_alt    "P 1"
_space_group_IT_number       1

loop_
  _space_group_symop_operation_xyz
  'x, y, z'

loop_
  _atom_site_type_symbol
  _atom_site_label
  _atom_site_symmetry_multiplicity
  _atom_site_fract_x
  _atom_site_fract_y
  _atom_site_fract_z
  _atom_site_occupancy
  P   P1        1.0  0.82300  0.57900  0.04910  1.0000
  P   P2        1.0  0.48700  0.40700  0.12500  1.0000
  P   P3        1.0  0.01250  0.90700  0.12500  1.0000
  P   P4        1.0  0.67700  0.07890  0.20100  1.0000
  P   P5        1.0  0.92100  0.32300  0.29900  1.0000
  P   P6        1.0  0.09320  0.98700  0.37500  1.0000
  P   P7        1.0  0.59300  0.51300  0.37500  1.0000
  P   P8        1.0  0.42100  0.17700  0.45100  1.0000
  P   P9        1.0  0.17700  0.42100  0.54900  1.0000
  P   P10       1.0  0.51300  0.59300  0.62500  1.0000
  P   P11       1.0  0.98700  0.09320  0.62500  1.0000
  P   P12       1.0  0.32300  0.92100  0.70100  1.0000
  P   P13       1.0  0.07890  0.67700  0.79900  1.0000
  P   P14       1.0  0.90700  0.01250  0.87500  1.0000
  P   P15       1.0  0.40700  0.48700  0.87500  1.0000
  P   P16       1.0  0.57900  0.82300  0.95100  1.0000
  Zn  Zn1       1.0  0.20200  0.20200  0.00000  1.0000
  Zn  Zn2       1.0  0.29800  0.70200  0.25000  1.0000
  Zn  Zn3       1.0  0.79800  0.79800  0.50000  1.0000
  Zn  Zn4       1.0  0.70200  0.29800  0.75000  1.0000
