data_image0
_chemical_formula_structural       Ba4O12Sr2U2
_chemical_formula_sum              "Ba4 O12 Sr2 U2"
_cell_length_a       6.25732
_cell_length_b       6.2885
_cell_length_c       8.83563
_cell_angle_alpha    90
_cell_angle_beta     89.7922
_cell_angle_gamma    90

_space_group_name_H-M_alt    "P 1"
_space_group_IT_number       1

loop_
  _space_group_symop_operation_xyz
  'x, y, z'

loop_
  _atom_site_type_symbol
  _atom_site_label
  _atom_site_symmetry_multiplicity
  _atom_site_fract_x
  _atom_site_fract_y
  _atom_site_fract_z
  _atom_site_occupancy
  Ba  Ba1       1.0  0.50800  0.53400  0.25000  1.0000
  Ba  Ba2       1.0  0.99200  0.03410  0.25000  1.0000
  Ba  Ba3       1.0  0.00768  0.96600  0.75000  1.0000
  Ba  Ba4       1.0  0.49200  0.46600  0.75000  1.0000
  O   O1        1.0  0.73200  0.30900  0.04290  1.0000
  O   O2        1.0  0.81100  0.77100  0.05070  1.0000
  O   O3        1.0  0.08840  0.47100  0.22900  1.0000
  O   O4        1.0  0.41200  0.97100  0.27100  1.0000
  O   O5        1.0  0.68900  0.27100  0.44900  1.0000
  O   O6        1.0  0.76800  0.80900  0.45700  1.0000
  O   O7        1.0  0.23200  0.19100  0.54300  1.0000
  O   O8        1.0  0.31100  0.72900  0.55100  1.0000
  O   O9        1.0  0.58800  0.02890  0.72900  1.0000
  O   O10       1.0  0.91200  0.52900  0.77100  1.0000
  O   O11       1.0  0.18900  0.22900  0.94900  1.0000
  O   O12       1.0  0.26800  0.69100  0.95700  1.0000
  Sr  Sr1       1.0  0.50000  0.00000  1.00000  1.0000
  Sr  Sr2       1.0  0.00000  0.50000  0.50000  1.0000
  U   U1        1.0  0.00000  0.50000  0.00000  1.0000
  U   U2        1.0  0.50000  0.00000  0.50000  1.0000
