data_image0
_chemical_formula_structural       Eu4Se12Zr4
_chemical_formula_sum              "Eu4 Se12 Zr4"
_cell_length_a       8.91868
_cell_length_b       3.9464
_cell_length_c       14.3199
_cell_angle_alpha    90
_cell_angle_beta     90
_cell_angle_gamma    90

_space_group_name_H-M_alt    "P 1"
_space_group_IT_number       1

loop_
  _space_group_symop_operation_xyz
  'x, y, z'

loop_
  _atom_site_type_symbol
  _atom_site_label
  _atom_site_symmetry_multiplicity
  _atom_site_fract_x
  _atom_site_fract_y
  _atom_site_fract_z
  _atom_site_occupancy
  Eu  Eu1       1.0  0.06000  0.75000  0.17900  1.0000
  Eu  Eu2       1.0  0.56000  0.75000  0.32100  1.0000
  Eu  Eu3       1.0  0.44000  0.25000  0.67900  1.0000
  Eu  Eu4       1.0  0.94000  0.25000  0.82100  1.0000
  Se  Se1       1.0  0.15500  0.25000  0.01740  1.0000
  Se  Se2       1.0  0.48300  0.75000  0.11000  1.0000
  Se  Se3       1.0  0.79500  0.25000  0.22200  1.0000
  Se  Se4       1.0  0.29500  0.25000  0.27800  1.0000
  Se  Se5       1.0  0.98300  0.75000  0.39000  1.0000
  Se  Se6       1.0  0.65500  0.25000  0.48300  1.0000
  Se  Se7       1.0  0.34500  0.75000  0.51700  1.0000
  Se  Se8       1.0  0.01730  0.25000  0.61000  1.0000
  Se  Se9       1.0  0.70500  0.75000  0.72200  1.0000
  Se  Se10      1.0  0.20500  0.75000  0.77800  1.0000
  Se  Se11      1.0  0.51700  0.25000  0.89000  1.0000
  Se  Se12      1.0  0.84500  0.75000  0.98300  1.0000
  Zr  Zr1       1.0  0.67400  0.25000  0.05750  1.0000
  Zr  Zr2       1.0  0.17400  0.25000  0.44200  1.0000
  Zr  Zr3       1.0  0.82600  0.75000  0.55800  1.0000
  Zr  Zr4       1.0  0.32600  0.75000  0.94200  1.0000
