data_image0
_chemical_formula_structural       Ag10S8Sb2
_chemical_formula_sum              "Ag10 S8 Sb2"
_cell_length_a       7.38268
_cell_length_b       7.38268
_cell_length_c       8.82487
_cell_angle_alpha    90
_cell_angle_beta     90
_cell_angle_gamma    115.791

_space_group_name_H-M_alt    "P 1"
_space_group_IT_number       1

loop_
  _space_group_symop_operation_xyz
  'x, y, z'

loop_
  _atom_site_type_symbol
  _atom_site_label
  _atom_site_symmetry_multiplicity
  _atom_site_fract_x
  _atom_site_fract_y
  _atom_site_fract_z
  _atom_site_occupancy
  Ag  Ag1       1.0  0.19100  0.43700  0.01140  1.0000
  Ag  Ag2       1.0  0.56300  0.80900  0.01140  1.0000
  Ag  Ag3       1.0  0.14200  0.85800  0.16800  1.0000
  Ag  Ag4       1.0  0.13000  0.25600  0.32700  1.0000
  Ag  Ag5       1.0  0.74400  0.87000  0.32700  1.0000
  Ag  Ag6       1.0  0.43700  0.19100  0.51100  1.0000
  Ag  Ag7       1.0  0.80900  0.56300  0.51100  1.0000
  Ag  Ag8       1.0  0.85800  0.14200  0.66800  1.0000
  Ag  Ag9       1.0  0.25600  0.13000  0.82700  1.0000
  Ag  Ag10      1.0  0.87000  0.74400  0.82700  1.0000
  S   S1        1.0  0.97400  0.02620  0.01850  1.0000
  S   S2        1.0  0.48200  0.51800  0.20200  1.0000
  S   S3        1.0  0.50000  0.03480  0.27300  1.0000
  S   S4        1.0  0.96500  0.50000  0.27300  1.0000
  S   S5        1.0  0.02620  0.97400  0.51800  1.0000
  S   S6        1.0  0.51800  0.48200  0.70200  1.0000
  S   S7        1.0  0.03480  0.50000  0.77300  1.0000
  S   S8        1.0  0.50000  0.96500  0.77300  1.0000
  Sb  Sb1       1.0  0.67100  0.32900  0.10500  1.0000
  Sb  Sb2       1.0  0.32900  0.67100  0.60500  1.0000
