data_image0
_chemical_formula_structural       Au6Yb14
_chemical_formula_sum              "Au6 Yb14"
_cell_length_a       10.298
_cell_length_b       10.2981
_cell_length_c       6.47874
_cell_angle_alpha    90
_cell_angle_beta     90
_cell_angle_gamma    120

_space_group_name_H-M_alt    "P 1"
_space_group_IT_number       1

loop_
  _space_group_symop_operation_xyz
  'x, y, z'

loop_
  _atom_site_type_symbol
  _atom_site_label
  _atom_site_symmetry_multiplicity
  _atom_site_fract_x
  _atom_site_fract_y
  _atom_site_fract_z
  _atom_site_occupancy
  Au  Au1       1.0  0.81200  0.62300  0.13800  1.0000
  Au  Au2       1.0  0.37700  0.18800  0.13800  1.0000
  Au  Au3       1.0  0.81200  0.18800  0.13800  1.0000
  Au  Au4       1.0  0.18800  0.37700  0.63800  1.0000
  Au  Au5       1.0  0.18800  0.81200  0.63800  1.0000
  Au  Au6       1.0  0.62300  0.81200  0.63800  1.0000
  Yb  Yb1       1.0  0.12600  0.87400  0.07220  1.0000
  Yb  Yb2       1.0  0.74800  0.87400  0.07220  1.0000
  Yb  Yb3       1.0  0.12600  0.25200  0.07220  1.0000
  Yb  Yb4       1.0  0.66700  0.33300  0.35800  1.0000
  Yb  Yb5       1.0  0.46000  0.91900  0.36800  1.0000
  Yb  Yb6       1.0  0.08050  0.54000  0.36800  1.0000
  Yb  Yb7       1.0  0.46000  0.54000  0.36800  1.0000
  Yb  Yb8       1.0  0.25200  0.12600  0.57200  1.0000
  Yb  Yb9       1.0  0.87400  0.12600  0.57200  1.0000
  Yb  Yb10      1.0  0.87400  0.74800  0.57200  1.0000
  Yb  Yb11      1.0  0.33300  0.66700  0.85800  1.0000
  Yb  Yb12      1.0  0.54000  0.08050  0.86800  1.0000
  Yb  Yb13      1.0  0.54000  0.46000  0.86800  1.0000
  Yb  Yb14      1.0  0.91900  0.46000  0.86800  1.0000
