data_image0
_chemical_formula_structural       Mn2Na2O12Si4
_chemical_formula_sum              "Mn2 Na2 O12 Si4"
_cell_length_a       5.3525
_cell_length_b       6.4208
_cell_length_c       6.4208
_cell_angle_alpha    95.7432
_cell_angle_beta     101.155
_cell_angle_gamma    78.8448

_space_group_name_H-M_alt    "P 1"
_space_group_IT_number       1

loop_
  _space_group_symop_operation_xyz
  'x, y, z'

loop_
  _atom_site_type_symbol
  _atom_site_label
  _atom_site_symmetry_multiplicity
  _atom_site_fract_x
  _atom_site_fract_y
  _atom_site_fract_z
  _atom_site_occupancy
  Mn  Mn1       1.0  0.25000  0.09260  0.09260  1.0000
  Mn  Mn2       1.0  0.75000  0.90700  0.90700  1.0000
  Na  Na1       1.0  0.75000  0.29900  0.29900  1.0000
  Na  Na2       1.0  0.25000  0.70100  0.70100  1.0000
  O   O1        1.0  0.16100  0.80400  0.03890  1.0000
  O   O2        1.0  0.30800  0.37900  0.09740  1.0000
  O   O3        1.0  0.66100  0.96100  0.19600  1.0000
  O   O4        1.0  0.01780  0.63200  0.34800  1.0000
  O   O5        1.0  0.51800  0.65200  0.36800  1.0000
  O   O6        1.0  0.19200  0.09740  0.37900  1.0000
  O   O7        1.0  0.80800  0.90300  0.62100  1.0000
  O   O8        1.0  0.48200  0.34800  0.63200  1.0000
  O   O9        1.0  0.98200  0.36800  0.65200  1.0000
  O   O10       1.0  0.33900  0.03890  0.80400  1.0000
  O   O11       1.0  0.69200  0.62100  0.90300  1.0000
  O   O12       1.0  0.83900  0.19600  0.96100  1.0000
  Si  Si1       1.0  0.24700  0.61600  0.20500  1.0000
  Si  Si2       1.0  0.74700  0.79500  0.38400  1.0000
  Si  Si3       1.0  0.25300  0.20500  0.61600  1.0000
  Si  Si4       1.0  0.75300  0.38400  0.79500  1.0000
