data_image0
_chemical_formula_structural       Al8Hf12
_chemical_formula_sum              "Al8 Hf12"
_cell_length_a       7.56777
_cell_length_b       7.56777
_cell_length_c       6.88401
_cell_angle_alpha    90
_cell_angle_beta     90
_cell_angle_gamma    90

_space_group_name_H-M_alt    "P 1"
_space_group_IT_number       1

loop_
  _space_group_symop_operation_xyz
  'x, y, z'

loop_
  _atom_site_type_symbol
  _atom_site_label
  _atom_site_symmetry_multiplicity
  _atom_site_fract_x
  _atom_site_fract_y
  _atom_site_fract_z
  _atom_site_occupancy
  Al  Al1       1.0  0.12100  0.12100  0.21000  1.0000
  Al  Al2       1.0  0.87900  0.87900  0.21000  1.0000
  Al  Al3       1.0  0.62100  0.37900  0.29000  1.0000
  Al  Al4       1.0  0.37900  0.62100  0.29000  1.0000
  Al  Al5       1.0  0.62100  0.37900  0.71000  1.0000
  Al  Al6       1.0  0.37900  0.62100  0.71000  1.0000
  Al  Al7       1.0  0.12100  0.12100  0.79000  1.0000
  Al  Al8       1.0  0.87900  0.87900  0.79000  1.0000
  Hf  Hf1       1.0  0.79700  0.20300  0.00000  1.0000
  Hf  Hf2       1.0  0.34500  0.34500  0.00000  1.0000
  Hf  Hf3       1.0  0.65500  0.65500  0.00000  1.0000
  Hf  Hf4       1.0  0.20300  0.79700  0.00000  1.0000
  Hf  Hf5       1.0  0.50000  0.00000  0.25000  1.0000
  Hf  Hf6       1.0  0.00000  0.50000  0.25000  1.0000
  Hf  Hf7       1.0  0.84500  0.15500  0.50000  1.0000
  Hf  Hf8       1.0  0.29700  0.29700  0.50000  1.0000
  Hf  Hf9       1.0  0.70300  0.70300  0.50000  1.0000
  Hf  Hf10      1.0  0.15500  0.84500  0.50000  1.0000
  Hf  Hf11      1.0  0.50000  0.00000  0.75000  1.0000
  Hf  Hf12      1.0  0.00000  0.50000  0.75000  1.0000
