data_image0
_chemical_formula_structural       Mo2Ni2P16
_chemical_formula_sum              "Mo2 Ni2 P16"
_cell_length_a       6.2393
_cell_length_b       6.23923
_cell_length_c       8.76238
_cell_angle_alpha    89.9995
_cell_angle_beta     90.0003
_cell_angle_gamma    120

_space_group_name_H-M_alt    "P 1"
_space_group_IT_number       1

loop_
  _space_group_symop_operation_xyz
  'x, y, z'

loop_
  _atom_site_type_symbol
  _atom_site_label
  _atom_site_symmetry_multiplicity
  _atom_site_fract_x
  _atom_site_fract_y
  _atom_site_fract_z
  _atom_site_occupancy
  Mo  Mo1       1.0  0.66700  0.33300  0.25000  1.0000
  Mo  Mo2       1.0  0.33300  0.66700  0.75000  1.0000
  Ni  Ni1       1.0  0.00000  0.00000  0.00000  1.0000
  Ni  Ni2       1.0  0.00000  0.00000  0.50000  1.0000
  P   P1        1.0  0.33300  0.66700  0.03640  1.0000
  P   P2        1.0  0.04450  0.32000  0.15300  1.0000
  P   P3        1.0  0.27600  0.95500  0.15300  1.0000
  P   P4        1.0  0.68000  0.72400  0.15300  1.0000
  P   P5        1.0  0.68000  0.95500  0.34700  1.0000
  P   P6        1.0  0.27600  0.32000  0.34700  1.0000
  P   P7        1.0  0.04450  0.72400  0.34700  1.0000
  P   P8        1.0  0.33300  0.66700  0.46400  1.0000
  P   P9        1.0  0.66700  0.33300  0.53600  1.0000
  P   P10       1.0  0.95500  0.27600  0.65300  1.0000
  P   P11       1.0  0.72400  0.68000  0.65300  1.0000
  P   P12       1.0  0.32000  0.04450  0.65300  1.0000
  P   P13       1.0  0.32000  0.27600  0.84700  1.0000
  P   P14       1.0  0.72400  0.04450  0.84700  1.0000
  P   P15       1.0  0.95500  0.68000  0.84700  1.0000
  P   P16       1.0  0.66700  0.33300  0.96400  1.0000
