data_image0
_chemical_formula_structural       Cs4I12Yb4
_chemical_formula_sum              "Cs4 I12 Yb4"
_cell_length_a       8.60474
_cell_length_b       8.76102
_cell_length_c       12.3488
_cell_angle_alpha    90
_cell_angle_beta     90
_cell_angle_gamma    90

_space_group_name_H-M_alt    "P 1"
_space_group_IT_number       1

loop_
  _space_group_symop_operation_xyz
  'x, y, z'

loop_
  _atom_site_type_symbol
  _atom_site_label
  _atom_site_symmetry_multiplicity
  _atom_site_fract_x
  _atom_site_fract_y
  _atom_site_fract_z
  _atom_site_occupancy
  Cs  Cs1       1.0  0.51300  0.45100  0.25000  1.0000
  Cs  Cs2       1.0  0.98700  0.95100  0.25000  1.0000
  Cs  Cs3       1.0  0.01320  0.04860  0.75000  1.0000
  Cs  Cs4       1.0  0.48700  0.54900  0.75000  1.0000
  I   I1        1.0  0.79300  0.20900  0.02620  1.0000
  I   I2        1.0  0.70700  0.70900  0.02620  1.0000
  I   I3        1.0  0.44800  0.00360  0.25000  1.0000
  I   I4        1.0  0.05210  0.50400  0.25000  1.0000
  I   I5        1.0  0.79300  0.20900  0.47400  1.0000
  I   I6        1.0  0.70700  0.70900  0.47400  1.0000
  I   I7        1.0  0.29300  0.29100  0.52600  1.0000
  I   I8        1.0  0.20700  0.79100  0.52600  1.0000
  I   I9        1.0  0.94800  0.49600  0.75000  1.0000
  I   I10       1.0  0.55200  0.99600  0.75000  1.0000
  I   I11       1.0  0.29300  0.29100  0.97400  1.0000
  I   I12       1.0  0.20700  0.79100  0.97400  1.0000
  Yb  Yb1       1.0  0.50000  0.00000  0.00000  1.0000
  Yb  Yb2       1.0  0.00000  0.50000  0.00000  1.0000
  Yb  Yb3       1.0  0.50000  0.00000  0.50000  1.0000
  Yb  Yb4       1.0  0.00000  0.50000  0.50000  1.0000
