data_image0
_chemical_formula_structural       Nb2O12Sm2Sr4
_chemical_formula_sum              "Nb2 O12 Sm2 Sr4"
_cell_length_a       5.83476
_cell_length_b       5.96767
_cell_length_c       8.32389
_cell_angle_alpha    90
_cell_angle_beta     90.2452
_cell_angle_gamma    90

_space_group_name_H-M_alt    "P 1"
_space_group_IT_number       1

loop_
  _space_group_symop_operation_xyz
  'x, y, z'

loop_
  _atom_site_type_symbol
  _atom_site_label
  _atom_site_symmetry_multiplicity
  _atom_site_fract_x
  _atom_site_fract_y
  _atom_site_fract_z
  _atom_site_occupancy
  Nb  Nb1       1.0  0.50000  0.50000  0.00000  1.0000
  Nb  Nb2       1.0  0.00000  0.00000  0.50000  1.0000
  O   O1        1.0  0.77900  0.68800  0.04650  1.0000
  O   O2        1.0  0.68400  0.22100  0.05300  1.0000
  O   O3        1.0  0.40600  0.53300  0.23200  1.0000
  O   O4        1.0  0.09380  0.03340  0.26800  1.0000
  O   O5        1.0  0.81600  0.72100  0.44700  1.0000
  O   O6        1.0  0.72100  0.18800  0.45400  1.0000
  O   O7        1.0  0.27900  0.81200  0.54600  1.0000
  O   O8        1.0  0.18400  0.27900  0.55300  1.0000
  O   O9        1.0  0.90600  0.96700  0.73200  1.0000
  O   O10       1.0  0.59400  0.46700  0.76800  1.0000
  O   O11       1.0  0.31600  0.77900  0.94700  1.0000
  O   O12       1.0  0.22100  0.31200  0.95400  1.0000
  Sm  Sm1       1.0  0.00000  0.00000  0.00000  1.0000
  Sm  Sm2       1.0  0.50000  0.50000  0.50000  1.0000
  Sr  Sr1       1.0  0.98900  0.45500  0.24900  1.0000
  Sr  Sr2       1.0  0.51100  0.95500  0.25100  1.0000
  Sr  Sr3       1.0  0.48900  0.04530  0.74900  1.0000
  Sr  Sr4       1.0  0.01110  0.54500  0.75100  1.0000
