data_image0
_chemical_formula_structural       Ba4S12U4
_chemical_formula_sum              "Ba4 S12 U4"
_cell_length_a       7.47516
_cell_length_b       10.3617
_cell_length_c       7.27479
_cell_angle_alpha    90
_cell_angle_beta     90
_cell_angle_gamma    90

_space_group_name_H-M_alt    "P 1"
_space_group_IT_number       1

loop_
  _space_group_symop_operation_xyz
  'x, y, z'

loop_
  _atom_site_type_symbol
  _atom_site_label
  _atom_site_symmetry_multiplicity
  _atom_site_fract_x
  _atom_site_fract_y
  _atom_site_fract_z
  _atom_site_occupancy
  Ba  Ba1       1.0  0.94800  0.75000  0.01490  1.0000
  Ba  Ba2       1.0  0.44800  0.75000  0.48500  1.0000
  Ba  Ba3       1.0  0.55200  0.25000  0.51500  1.0000
  Ba  Ba4       1.0  0.05250  0.25000  0.98500  1.0000
  S   S1        1.0  0.47900  0.25000  0.08520  1.0000
  S   S2        1.0  0.21100  0.54500  0.21000  1.0000
  S   S3        1.0  0.21100  0.95500  0.21000  1.0000
  S   S4        1.0  0.71100  0.54500  0.29000  1.0000
  S   S5        1.0  0.71100  0.95500  0.29000  1.0000
  S   S6        1.0  0.97900  0.25000  0.41500  1.0000
  S   S7        1.0  0.02100  0.75000  0.58500  1.0000
  S   S8        1.0  0.28900  0.04480  0.71000  1.0000
  S   S9        1.0  0.28900  0.45500  0.71000  1.0000
  S   S10       1.0  0.78900  0.04480  0.79000  1.0000
  S   S11       1.0  0.78900  0.45500  0.79000  1.0000
  S   S12       1.0  0.52100  0.75000  0.91500  1.0000
  U   U1        1.0  0.50000  0.00000  0.00000  1.0000
  U   U2        1.0  0.50000  0.50000  0.00000  1.0000
  U   U3        1.0  0.00000  0.00000  0.50000  1.0000
  U   U4        1.0  0.00000  0.50000  0.50000  1.0000
