data_image0
_chemical_formula_structural       F12Na4Zn4
_chemical_formula_sum              "F12 Na4 Zn4"
_cell_length_a       5.54397
_cell_length_b       7.65195
_cell_length_c       5.31841
_cell_angle_alpha    90
_cell_angle_beta     90
_cell_angle_gamma    90

_space_group_name_H-M_alt    "P 1"
_space_group_IT_number       1

loop_
  _space_group_symop_operation_xyz
  'x, y, z'

loop_
  _atom_site_type_symbol
  _atom_site_label
  _atom_site_symmetry_multiplicity
  _atom_site_fract_x
  _atom_site_fract_y
  _atom_site_fract_z
  _atom_site_occupancy
  F   F1        1.0  0.04390  0.75000  0.11800  1.0000
  F   F2        1.0  0.30500  0.06040  0.18800  1.0000
  F   F3        1.0  0.30500  0.44000  0.18800  1.0000
  F   F4        1.0  0.80500  0.06040  0.31200  1.0000
  F   F5        1.0  0.80500  0.44000  0.31200  1.0000
  F   F6        1.0  0.54400  0.75000  0.38200  1.0000
  F   F7        1.0  0.45600  0.25000  0.61800  1.0000
  F   F8        1.0  0.19500  0.56000  0.68800  1.0000
  F   F9        1.0  0.19500  0.94000  0.68800  1.0000
  F   F10       1.0  0.69500  0.56000  0.81200  1.0000
  F   F11       1.0  0.69500  0.94000  0.81200  1.0000
  F   F12       1.0  0.95600  0.25000  0.88200  1.0000
  Na  Na1       1.0  0.56600  0.25000  0.01910  1.0000
  Na  Na2       1.0  0.06650  0.25000  0.48100  1.0000
  Na  Na3       1.0  0.93400  0.75000  0.51900  1.0000
  Na  Na4       1.0  0.43400  0.75000  0.98100  1.0000
  Zn  Zn1       1.0  0.00000  0.00000  0.00000  1.0000
  Zn  Zn2       1.0  0.00000  0.50000  0.00000  1.0000
  Zn  Zn3       1.0  0.50000  0.00000  0.50000  1.0000
  Zn  Zn4       1.0  0.50000  0.50000  0.50000  1.0000
