data_image0
_chemical_formula_structural       Au2Br16Te2
_chemical_formula_sum              "Au2 Br16 Te2"
_cell_length_a       7.95572
_cell_length_b       9.05131
_cell_length_c       10.1211
_cell_angle_alpha    86.9394
_cell_angle_beta     72.6066
_cell_angle_gamma    82.9009

_space_group_name_H-M_alt    "P 1"
_space_group_IT_number       1

loop_
  _space_group_symop_operation_xyz
  'x, y, z'

loop_
  _atom_site_type_symbol
  _atom_site_label
  _atom_site_symmetry_multiplicity
  _atom_site_fract_x
  _atom_site_fract_y
  _atom_site_fract_z
  _atom_site_occupancy
  Au  Au1       1.0  0.00451  0.10600  0.31100  1.0000
  Au  Au2       1.0  0.99500  0.89400  0.68900  1.0000
  Br  Br1       1.0  0.60000  0.80700  0.04230  1.0000
  Br  Br2       1.0  0.91800  0.40500  0.06650  1.0000
  Br  Br3       1.0  0.07680  0.88400  0.16300  1.0000
  Br  Br4       1.0  0.35500  0.48000  0.21300  1.0000
  Br  Br5       1.0  0.72600  0.15900  0.25000  1.0000
  Br  Br6       1.0  0.29800  0.07090  0.35700  1.0000
  Br  Br7       1.0  0.62100  0.68200  0.39200  1.0000
  Br  Br8       1.0  0.92100  0.32500  0.46600  1.0000
  Br  Br9       1.0  0.07860  0.67500  0.53400  1.0000
  Br  Br10      1.0  0.37900  0.31800  0.60800  1.0000
  Br  Br11      1.0  0.70200  0.92900  0.64300  1.0000
  Br  Br12      1.0  0.27400  0.84100  0.75000  1.0000
  Br  Br13      1.0  0.64500  0.52000  0.78700  1.0000
  Br  Br14      1.0  0.92300  0.11600  0.83700  1.0000
  Br  Br15      1.0  0.08150  0.59500  0.93400  1.0000
  Br  Br16      1.0  0.40000  0.19300  0.95800  1.0000
  Te  Te1       1.0  0.38200  0.74400  0.27200  1.0000
  Te  Te2       1.0  0.61800  0.25600  0.72800  1.0000
