data_image0
_chemical_formula_structural       B4S12Tl4
_chemical_formula_sum              "B4 S12 Tl4"
_cell_length_a       6.99531
_cell_length_b       12.0348
_cell_length_c       5.81014
_cell_angle_alpha    90
_cell_angle_beta     113.592
_cell_angle_gamma    90

_space_group_name_H-M_alt    "P 1"
_space_group_IT_number       1

loop_
  _space_group_symop_operation_xyz
  'x, y, z'

loop_
  _atom_site_type_symbol
  _atom_site_label
  _atom_site_symmetry_multiplicity
  _atom_site_fract_x
  _atom_site_fract_y
  _atom_site_fract_z
  _atom_site_occupancy
  B   B1        1.0  0.69900  0.27000  0.14000  1.0000
  B   B2        1.0  0.30100  0.77000  0.36000  1.0000
  B   B3        1.0  0.69900  0.23000  0.64000  1.0000
  B   B4        1.0  0.30100  0.73000  0.86000  1.0000
  S   S1        1.0  0.94300  0.18200  0.16800  1.0000
  S   S2        1.0  0.19100  0.90300  0.17200  1.0000
  S   S3        1.0  0.46600  0.69800  0.20500  1.0000
  S   S4        1.0  0.53400  0.19800  0.29500  1.0000
  S   S5        1.0  0.80900  0.40300  0.32800  1.0000
  S   S6        1.0  0.05730  0.68200  0.33200  1.0000
  S   S7        1.0  0.94300  0.31800  0.66800  1.0000
  S   S8        1.0  0.19100  0.59700  0.67200  1.0000
  S   S9        1.0  0.46600  0.80200  0.70500  1.0000
  S   S10       1.0  0.53400  0.30200  0.79500  1.0000
  S   S11       1.0  0.80900  0.09720  0.82800  1.0000
  S   S12       1.0  0.05730  0.81800  0.83200  1.0000
  Tl  Tl1       1.0  0.24900  0.41300  0.22300  1.0000
  Tl  Tl2       1.0  0.75100  0.91300  0.27700  1.0000
  Tl  Tl3       1.0  0.24900  0.08730  0.72300  1.0000
  Tl  Tl4       1.0  0.75100  0.58700  0.77700  1.0000
