data_image0
_chemical_formula_structural       O4S8Y8
_chemical_formula_sum              "O4 S8 Y8"
_cell_length_a       8.27746
_cell_length_b       6.91081
_cell_length_c       6.8687
_cell_angle_alpha    90
_cell_angle_beta     99.3833
_cell_angle_gamma    90

_space_group_name_H-M_alt    "P 1"
_space_group_IT_number       1

loop_
  _space_group_symop_operation_xyz
  'x, y, z'

loop_
  _atom_site_type_symbol
  _atom_site_label
  _atom_site_symmetry_multiplicity
  _atom_site_fract_x
  _atom_site_fract_y
  _atom_site_fract_z
  _atom_site_occupancy
  O   O1        1.0  0.61700  0.58700  0.14900  1.0000
  O   O2        1.0  0.38300  0.08670  0.35100  1.0000
  O   O3        1.0  0.61700  0.91300  0.64900  1.0000
  O   O4        1.0  0.38300  0.41300  0.85100  1.0000
  S   S1        1.0  0.07590  0.27700  0.03020  1.0000
  S   S2        1.0  0.68100  0.13300  0.07560  1.0000
  S   S3        1.0  0.31900  0.63300  0.42400  1.0000
  S   S4        1.0  0.92400  0.77700  0.47000  1.0000
  S   S5        1.0  0.07590  0.22300  0.53000  1.0000
  S   S6        1.0  0.68100  0.36700  0.57600  1.0000
  S   S7        1.0  0.31900  0.86700  0.92400  1.0000
  S   S8        1.0  0.92400  0.72300  0.97000  1.0000
  Y   Y1        1.0  0.42400  0.35500  0.18000  1.0000
  Y   Y2        1.0  0.13800  0.94500  0.25000  1.0000
  Y   Y3        1.0  0.86200  0.44500  0.25000  1.0000
  Y   Y4        1.0  0.57600  0.85500  0.32000  1.0000
  Y   Y5        1.0  0.42400  0.14500  0.68000  1.0000
  Y   Y6        1.0  0.13800  0.55500  0.75000  1.0000
  Y   Y7        1.0  0.86200  0.05510  0.75000  1.0000
  Y   Y8        1.0  0.57600  0.64500  0.82000  1.0000
