data_image0
_chemical_formula_structural       Br12Rb4Yb4
_chemical_formula_sum              "Br12 Rb4 Yb4"
_cell_length_a       7.75021
_cell_length_b       8.03945
_cell_length_c       11.1991
_cell_angle_alpha    90
_cell_angle_beta     90
_cell_angle_gamma    90

_space_group_name_H-M_alt    "P 1"
_space_group_IT_number       1

loop_
  _space_group_symop_operation_xyz
  'x, y, z'

loop_
  _atom_site_type_symbol
  _atom_site_label
  _atom_site_symmetry_multiplicity
  _atom_site_fract_x
  _atom_site_fract_y
  _atom_site_fract_z
  _atom_site_occupancy
  Br  Br1       1.0  0.79900  0.20400  0.03810  1.0000
  Br  Br2       1.0  0.70100  0.70400  0.03810  1.0000
  Br  Br3       1.0  0.42500  0.01320  0.25000  1.0000
  Br  Br4       1.0  0.07470  0.51300  0.25000  1.0000
  Br  Br5       1.0  0.79900  0.20400  0.46200  1.0000
  Br  Br6       1.0  0.70100  0.70400  0.46200  1.0000
  Br  Br7       1.0  0.29900  0.29600  0.53800  1.0000
  Br  Br8       1.0  0.20100  0.79600  0.53800  1.0000
  Br  Br9       1.0  0.92500  0.48700  0.75000  1.0000
  Br  Br10      1.0  0.57500  0.98700  0.75000  1.0000
  Br  Br11      1.0  0.29900  0.29600  0.96200  1.0000
  Br  Br12      1.0  0.20100  0.79600  0.96200  1.0000
  Rb  Rb1       1.0  0.51800  0.44000  0.25000  1.0000
  Rb  Rb2       1.0  0.98200  0.94000  0.25000  1.0000
  Rb  Rb3       1.0  0.01810  0.06020  0.75000  1.0000
  Rb  Rb4       1.0  0.48200  0.56000  0.75000  1.0000
  Yb  Yb1       1.0  0.50000  0.00000  0.00000  1.0000
  Yb  Yb2       1.0  0.00000  0.50000  0.00000  1.0000
  Yb  Yb3       1.0  0.50000  0.00000  0.50000  1.0000
  Yb  Yb4       1.0  0.00000  0.50000  0.50000  1.0000
