data_image0
_chemical_formula_structural       I12O4W4
_chemical_formula_sum              "I12 O4 W4"
_cell_length_a       12.4608
_cell_length_b       12.4608
_cell_length_c       3.81304
_cell_angle_alpha    90
_cell_angle_beta     90
_cell_angle_gamma    90

_space_group_name_H-M_alt    "P 1"
_space_group_IT_number       1

loop_
  _space_group_symop_operation_xyz
  'x, y, z'

loop_
  _atom_site_type_symbol
  _atom_site_label
  _atom_site_symmetry_multiplicity
  _atom_site_fract_x
  _atom_site_fract_y
  _atom_site_fract_z
  _atom_site_occupancy
  I   I1        1.0  0.31100  0.09970  0.00000  1.0000
  I   I2        1.0  0.87300  0.12700  0.00000  1.0000
  I   I3        1.0  0.09970  0.31100  0.00000  1.0000
  I   I4        1.0  0.90000  0.68900  0.00000  1.0000
  I   I5        1.0  0.12700  0.87300  0.00000  1.0000
  I   I6        1.0  0.68900  0.90000  0.00000  1.0000
  I   I7        1.0  0.60000  0.18900  0.50000  1.0000
  I   I8        1.0  0.37300  0.37300  0.50000  1.0000
  I   I9        1.0  0.81100  0.40000  0.50000  1.0000
  I   I10       1.0  0.18900  0.60000  0.50000  1.0000
  I   I11       1.0  0.62700  0.62700  0.50000  1.0000
  I   I12       1.0  0.40000  0.81100  0.50000  1.0000
  O   O1        1.0  0.58600  0.41400  0.00000  1.0000
  O   O2        1.0  0.41400  0.58600  0.00000  1.0000
  O   O3        1.0  0.08570  0.08570  0.50000  1.0000
  O   O4        1.0  0.91400  0.91400  0.50000  1.0000
  W   W1        1.0  0.08850  0.08850  0.00000  1.0000
  W   W2        1.0  0.91100  0.91100  0.00000  1.0000
  W   W3        1.0  0.58900  0.41100  0.50000  1.0000
  W   W4        1.0  0.41100  0.58900  0.50000  1.0000
