data_image0
_chemical_formula_structural       Nb2O12Sr4Tm2
_chemical_formula_sum              "Nb2 O12 Sr4 Tm2"
_cell_length_a       5.84312
_cell_length_b       5.87126
_cell_length_c       8.27452
_cell_angle_alpha    90
_cell_angle_beta     90
_cell_angle_gamma    90

_space_group_name_H-M_alt    "P 1"
_space_group_IT_number       1

loop_
  _space_group_symop_operation_xyz
  'x, y, z'

loop_
  _atom_site_type_symbol
  _atom_site_label
  _atom_site_symmetry_multiplicity
  _atom_site_fract_x
  _atom_site_fract_y
  _atom_site_fract_z
  _atom_site_occupancy
  Nb  Nb1       1.0  0.00343  0.00000  0.00000  1.0000
  Nb  Nb2       1.0  0.50300  0.50000  0.50000  1.0000
  O   O1        1.0  0.25300  0.76900  0.00410  1.0000
  O   O2        1.0  0.77300  0.25000  0.00903  1.0000
  O   O3        1.0  0.98200  0.98700  0.24000  1.0000
  O   O4        1.0  0.48200  0.48700  0.26000  1.0000
  O   O5        1.0  0.27300  0.75000  0.49100  1.0000
  O   O6        1.0  0.75300  0.26900  0.49600  1.0000
  O   O7        1.0  0.75300  0.73100  0.50400  1.0000
  O   O8        1.0  0.27300  0.25000  0.50900  1.0000
  O   O9        1.0  0.48200  0.51300  0.74000  1.0000
  O   O10       1.0  0.98200  0.01270  0.76000  1.0000
  O   O11       1.0  0.77300  0.75000  0.99100  1.0000
  O   O12       1.0  0.25300  0.23100  0.99600  1.0000
  Sr  Sr1       1.0  0.00447  0.51400  0.25000  1.0000
  Sr  Sr2       1.0  0.50400  0.01420  0.25000  1.0000
  Sr  Sr3       1.0  0.50400  0.98600  0.75000  1.0000
  Sr  Sr4       1.0  0.00447  0.48600  0.75000  1.0000
  Tm  Tm1       1.0  0.50400  0.50000  0.00000  1.0000
  Tm  Tm2       1.0  0.00374  0.00000  0.50000  1.0000
