data_image0
_chemical_formula_structural       Ir2Na2O12Sm4
_chemical_formula_sum              "Ir2 Na2 O12 Sm4"
_cell_length_a       5.43962
_cell_length_b       5.89473
_cell_length_c       7.84717
_cell_angle_alpha    90
_cell_angle_beta     91.2508
_cell_angle_gamma    90

_space_group_name_H-M_alt    "P 1"
_space_group_IT_number       1

loop_
  _space_group_symop_operation_xyz
  'x, y, z'

loop_
  _atom_site_type_symbol
  _atom_site_label
  _atom_site_symmetry_multiplicity
  _atom_site_fract_x
  _atom_site_fract_y
  _atom_site_fract_z
  _atom_site_occupancy
  Ir  Ir1       1.0  0.50000  0.50000  1.00000  1.0000
  Ir  Ir2       1.0  1.00000  0.00000  0.50000  1.0000
  Na  Na1       1.0  0.00000  0.00000  0.00000  1.0000
  Na  Na2       1.0  0.50000  0.50000  0.50000  1.0000
  O   O1        1.0  0.19900  0.32500  0.05480  1.0000
  O   O2        1.0  0.33900  0.78600  0.07070  1.0000
  O   O3        1.0  0.62900  0.44800  0.23500  1.0000
  O   O4        1.0  0.87100  0.94800  0.26500  1.0000
  O   O5        1.0  0.16100  0.28600  0.42900  1.0000
  O   O6        1.0  0.30100  0.82500  0.44500  1.0000
  O   O7        1.0  0.69900  0.17500  0.55500  1.0000
  O   O8        1.0  0.83900  0.71400  0.57100  1.0000
  O   O9        1.0  0.12900  0.05220  0.73500  1.0000
  O   O10       1.0  0.37100  0.55200  0.76500  1.0000
  O   O11       1.0  0.66100  0.21400  0.92900  1.0000
  O   O12       1.0  0.80100  0.67500  0.94500  1.0000
  Sm  Sm1       1.0  0.02480  0.57800  0.24600  1.0000
  Sm  Sm2       1.0  0.47500  0.07760  0.25400  1.0000
  Sm  Sm3       1.0  0.52500  0.92200  0.74600  1.0000
  Sm  Sm4       1.0  0.97500  0.42200  0.75400  1.0000
