data_image0
_chemical_formula_structural       Ag2P4S12Sc2
_chemical_formula_sum              "Ag2 P4 S12 Sc2"
_cell_length_a       6.19831
_cell_length_b       6.19833
_cell_length_c       13.2486
_cell_angle_alpha    89.9999
_cell_angle_beta     90
_cell_angle_gamma    120

_space_group_name_H-M_alt    "P 1"
_space_group_IT_number       1

loop_
  _space_group_symop_operation_xyz
  'x, y, z'

loop_
  _atom_site_type_symbol
  _atom_site_label
  _atom_site_symmetry_multiplicity
  _atom_site_fract_x
  _atom_site_fract_y
  _atom_site_fract_z
  _atom_site_occupancy
  Ag  Ag1       1.0  0.66700  0.33300  0.25000  1.0000
  Ag  Ag2       1.0  0.33300  0.66700  0.75000  1.0000
  P   P1        1.0  0.33300  0.66700  0.16600  1.0000
  P   P2        1.0  0.33300  0.66700  0.33400  1.0000
  P   P3        1.0  0.66700  0.33300  0.66600  1.0000
  P   P4        1.0  0.66700  0.33300  0.83400  1.0000
  S   S1        1.0  0.30400  0.33700  0.12300  1.0000
  S   S2        1.0  0.66300  0.96700  0.12300  1.0000
  S   S3        1.0  0.03290  0.69600  0.12300  1.0000
  S   S4        1.0  0.03290  0.33700  0.37700  1.0000
  S   S5        1.0  0.66300  0.69600  0.37700  1.0000
  S   S6        1.0  0.30400  0.96700  0.37700  1.0000
  S   S7        1.0  0.69600  0.03290  0.62300  1.0000
  S   S8        1.0  0.33700  0.30400  0.62300  1.0000
  S   S9        1.0  0.96700  0.66300  0.62300  1.0000
  S   S10       1.0  0.96700  0.30400  0.87700  1.0000
  S   S11       1.0  0.33700  0.03290  0.87700  1.0000
  S   S12       1.0  0.69600  0.66300  0.87700  1.0000
  Sc  Sc1       1.0  0.99999  1.00000  0.25000  1.0000
  Sc  Sc2       1.0  0.00001  0.00000  0.75000  1.0000
