data_image0
_chemical_formula_structural       I12Mn4Tl4
_chemical_formula_sum              "I12 Mn4 Tl4"
_cell_length_a       10.1867
_cell_length_b       4.30113
_cell_length_c       16.3358
_cell_angle_alpha    90
_cell_angle_beta     90
_cell_angle_gamma    90

_space_group_name_H-M_alt    "P 1"
_space_group_IT_number       1

loop_
  _space_group_symop_operation_xyz
  'x, y, z'

loop_
  _atom_site_type_symbol
  _atom_site_label
  _atom_site_symmetry_multiplicity
  _atom_site_fract_x
  _atom_site_fract_y
  _atom_site_fract_z
  _atom_site_occupancy
  I   I1        1.0  0.32900  0.75000  0.00645  1.0000
  I   I2        1.0  0.02030  0.25000  0.10300  1.0000
  I   I3        1.0  0.72000  0.75000  0.21000  1.0000
  I   I4        1.0  0.22000  0.75000  0.29000  1.0000
  I   I5        1.0  0.52000  0.25000  0.39700  1.0000
  I   I6        1.0  0.82900  0.75000  0.49400  1.0000
  I   I7        1.0  0.17100  0.25000  0.50600  1.0000
  I   I8        1.0  0.48000  0.75000  0.60300  1.0000
  I   I9        1.0  0.78000  0.25000  0.71000  1.0000
  I   I10       1.0  0.28000  0.25000  0.79000  1.0000
  I   I11       1.0  0.98000  0.75000  0.89700  1.0000
  I   I12       1.0  0.67100  0.25000  0.99400  1.0000
  Mn  Mn1       1.0  0.83800  0.75000  0.05470  1.0000
  Mn  Mn2       1.0  0.33800  0.75000  0.44500  1.0000
  Mn  Mn3       1.0  0.66200  0.25000  0.55500  1.0000
  Mn  Mn4       1.0  0.16200  0.25000  0.94500  1.0000
  Tl  Tl1       1.0  0.44700  0.25000  0.17500  1.0000
  Tl  Tl2       1.0  0.94700  0.25000  0.32500  1.0000
  Tl  Tl3       1.0  0.05350  0.75000  0.67500  1.0000
  Tl  Tl4       1.0  0.55300  0.75000  0.82500  1.0000
