data_image0
_chemical_formula_structural       Br12Nb4Te4
_chemical_formula_sum              "Br12 Nb4 Te4"
_cell_length_a       12.705
_cell_length_b       7.24656
_cell_length_c       6.73509
_cell_angle_alpha    90
_cell_angle_beta     97.8419
_cell_angle_gamma    90

_space_group_name_H-M_alt    "P 1"
_space_group_IT_number       1

loop_
  _space_group_symop_operation_xyz
  'x, y, z'

loop_
  _atom_site_type_symbol
  _atom_site_label
  _atom_site_symmetry_multiplicity
  _atom_site_fract_x
  _atom_site_fract_y
  _atom_site_fract_z
  _atom_site_occupancy
  Br  Br1       1.0  0.54500  0.67700  0.15200  1.0000
  Br  Br2       1.0  0.04460  0.32300  0.15200  1.0000
  Br  Br3       1.0  0.80300  0.54900  0.25100  1.0000
  Br  Br4       1.0  0.30300  0.45100  0.25100  1.0000
  Br  Br5       1.0  0.56400  0.21300  0.36000  1.0000
  Br  Br6       1.0  0.06420  0.78700  0.36000  1.0000
  Br  Br7       1.0  0.93600  0.21300  0.64000  1.0000
  Br  Br8       1.0  0.43600  0.78700  0.64000  1.0000
  Br  Br9       1.0  0.69700  0.54900  0.74900  1.0000
  Br  Br10      1.0  0.19700  0.45100  0.74900  1.0000
  Br  Br11      1.0  0.95500  0.67700  0.84800  1.0000
  Br  Br12      1.0  0.45500  0.32300  0.84800  1.0000
  Nb  Nb1       1.0  0.64800  0.35400  0.06950  1.0000
  Nb  Nb2       1.0  0.14800  0.64600  0.06950  1.0000
  Nb  Nb3       1.0  0.85200  0.35400  0.93000  1.0000
  Nb  Nb4       1.0  0.35200  0.64600  0.93000  1.0000
  Te  Te1       1.0  0.80500  0.07110  0.18700  1.0000
  Te  Te2       1.0  0.30500  0.92900  0.18700  1.0000
  Te  Te3       1.0  0.69500  0.07110  0.81300  1.0000
  Te  Te4       1.0  0.19500  0.92900  0.81300  1.0000
