data_image0
_chemical_formula_structural       C6La4Ni10
_chemical_formula_sum              "C6 La4 Ni10"
_cell_length_a       8.33457
_cell_length_b       8.33457
_cell_length_c       4.02962
_cell_angle_alpha    90
_cell_angle_beta     90
_cell_angle_gamma    90

_space_group_name_H-M_alt    "P 1"
_space_group_IT_number       1

loop_
  _space_group_symop_operation_xyz
  'x, y, z'

loop_
  _atom_site_type_symbol
  _atom_site_label
  _atom_site_symmetry_multiplicity
  _atom_site_fract_x
  _atom_site_fract_y
  _atom_site_fract_z
  _atom_site_occupancy
  C   C1        1.0  0.00000  0.00000  0.50000  1.0000
  C   C2        1.0  0.44200  0.05780  0.50000  1.0000
  C   C3        1.0  0.94200  0.44200  0.50000  1.0000
  C   C4        1.0  0.50000  0.50000  0.50000  1.0000
  C   C5        1.0  0.05780  0.55800  0.50000  1.0000
  C   C6        1.0  0.55800  0.94200  0.50000  1.0000
  La  La1       1.0  0.66100  0.16100  0.00000  1.0000
  La  La2       1.0  0.16100  0.33900  0.00000  1.0000
  La  La3       1.0  0.83900  0.66100  0.00000  1.0000
  La  La4       1.0  0.33900  0.83900  0.00000  1.0000
  Ni  Ni1       1.0  0.00000  0.00000  0.00000  1.0000
  Ni  Ni2       1.0  0.50000  0.50000  0.00000  1.0000
  Ni  Ni3       1.0  0.21300  0.07520  0.50000  1.0000
  Ni  Ni4       1.0  0.92500  0.21300  0.50000  1.0000
  Ni  Ni5       1.0  0.42500  0.28700  0.50000  1.0000
  Ni  Ni6       1.0  0.71300  0.42500  0.50000  1.0000
  Ni  Ni7       1.0  0.28700  0.57500  0.50000  1.0000
  Ni  Ni8       1.0  0.57500  0.71300  0.50000  1.0000
  Ni  Ni9       1.0  0.07520  0.78700  0.50000  1.0000
  Ni  Ni10      1.0  0.78700  0.92500  0.50000  1.0000
