data_image0
_chemical_formula_structural       Ge4In2K2O12
_chemical_formula_sum              "Ge4 In2 K2 O12"
_cell_length_a       5.61983
_cell_length_b       7.02679
_cell_length_c       7.02679
_cell_angle_alpha    94.8523
_cell_angle_beta     100.955
_cell_angle_gamma    79.045

_space_group_name_H-M_alt    "P 1"
_space_group_IT_number       1

loop_
  _space_group_symop_operation_xyz
  'x, y, z'

loop_
  _atom_site_type_symbol
  _atom_site_label
  _atom_site_symmetry_multiplicity
  _atom_site_fract_x
  _atom_site_fract_y
  _atom_site_fract_z
  _atom_site_occupancy
  Ge  Ge1       1.0  0.71000  0.62500  0.19500  1.0000
  Ge  Ge2       1.0  0.21000  0.80500  0.37500  1.0000
  Ge  Ge3       1.0  0.79000  0.19500  0.62500  1.0000
  Ge  Ge4       1.0  0.29000  0.37500  0.80500  1.0000
  In  In1       1.0  0.75000  0.10400  0.10400  1.0000
  In  In2       1.0  0.25000  0.89600  0.89600  1.0000
  K   K1        1.0  0.25000  0.31200  0.31200  1.0000
  K   K2        1.0  0.75000  0.68800  0.68800  1.0000
  O   O1        1.0  0.63300  0.81700  0.03550  1.0000
  O   O2        1.0  0.78800  0.39700  0.08720  1.0000
  O   O3        1.0  0.13300  0.96400  0.18300  1.0000
  O   O4        1.0  0.47700  0.62900  0.33700  1.0000
  O   O5        1.0  0.97700  0.66300  0.37100  1.0000
  O   O6        1.0  0.71200  0.08720  0.39700  1.0000
  O   O7        1.0  0.28800  0.91300  0.60300  1.0000
  O   O8        1.0  0.02290  0.33700  0.62900  1.0000
  O   O9        1.0  0.52300  0.37100  0.66300  1.0000
  O   O10       1.0  0.86700  0.03550  0.81700  1.0000
  O   O11       1.0  0.21200  0.60300  0.91300  1.0000
  O   O12       1.0  0.36700  0.18300  0.96400  1.0000
