data_image0
_chemical_formula_structural       P8Ru8Th4
_chemical_formula_sum              "P8 Ru8 Th4"
_cell_length_a       7.57532
_cell_length_b       4.16551
_cell_length_c       10.5206
_cell_angle_alpha    90
_cell_angle_beta     90
_cell_angle_gamma    90

_space_group_name_H-M_alt    "P 1"
_space_group_IT_number       1

loop_
  _space_group_symop_operation_xyz
  'x, y, z'

loop_
  _atom_site_type_symbol
  _atom_site_label
  _atom_site_symmetry_multiplicity
  _atom_site_fract_x
  _atom_site_fract_y
  _atom_site_fract_z
  _atom_site_occupancy
  P   P1        1.0  0.09480  0.25000  0.03020  1.0000
  P   P2        1.0  0.47100  0.75000  0.16000  1.0000
  P   P3        1.0  0.97100  0.75000  0.34000  1.0000
  P   P4        1.0  0.59500  0.25000  0.47000  1.0000
  P   P5        1.0  0.40500  0.75000  0.53000  1.0000
  P   P6        1.0  0.02910  0.25000  0.66000  1.0000
  P   P7        1.0  0.52900  0.25000  0.84000  1.0000
  P   P8        1.0  0.90500  0.75000  0.97000  1.0000
  Ru  Ru1       1.0  0.39000  0.25000  0.04950  1.0000
  Ru  Ru2       1.0  0.13300  0.75000  0.13300  1.0000
  Ru  Ru3       1.0  0.63300  0.75000  0.36700  1.0000
  Ru  Ru4       1.0  0.89000  0.25000  0.45000  1.0000
  Ru  Ru5       1.0  0.11000  0.75000  0.55000  1.0000
  Ru  Ru6       1.0  0.36700  0.25000  0.63300  1.0000
  Ru  Ru7       1.0  0.86700  0.25000  0.86700  1.0000
  Ru  Ru8       1.0  0.61000  0.75000  0.95000  1.0000
  Th  Th1       1.0  0.76700  0.25000  0.16900  1.0000
  Th  Th2       1.0  0.26700  0.25000  0.33100  1.0000
  Th  Th3       1.0  0.73300  0.75000  0.66900  1.0000
  Th  Th4       1.0  0.23300  0.75000  0.83100  1.0000
