data_image0
_chemical_formula_structural       Cl12Cr2Na6
_chemical_formula_sum              "Cl12 Cr2 Na6"
_cell_length_a       6.82728
_cell_length_b       6.82742
_cell_length_c       11.9932
_cell_angle_alpha    90
_cell_angle_beta     90
_cell_angle_gamma    120.001

_space_group_name_H-M_alt    "P 1"
_space_group_IT_number       1

loop_
  _space_group_symop_operation_xyz
  'x, y, z'

loop_
  _atom_site_type_symbol
  _atom_site_label
  _atom_site_symmetry_multiplicity
  _atom_site_fract_x
  _atom_site_fract_y
  _atom_site_fract_z
  _atom_site_occupancy
  Cl  Cl1       1.0  0.62000  0.67800  0.13400  1.0000
  Cl  Cl2       1.0  0.05810  0.38000  0.13400  1.0000
  Cl  Cl3       1.0  0.32200  0.94200  0.13400  1.0000
  Cl  Cl4       1.0  0.05810  0.67800  0.36600  1.0000
  Cl  Cl5       1.0  0.32200  0.38000  0.36600  1.0000
  Cl  Cl6       1.0  0.62000  0.94200  0.36600  1.0000
  Cl  Cl7       1.0  0.38000  0.05810  0.63400  1.0000
  Cl  Cl8       1.0  0.94200  0.32200  0.63400  1.0000
  Cl  Cl9       1.0  0.67800  0.62000  0.63400  1.0000
  Cl  Cl10      1.0  0.94200  0.62000  0.86600  1.0000
  Cl  Cl11      1.0  0.67800  0.05810  0.86600  1.0000
  Cl  Cl12      1.0  0.38000  0.32200  0.86600  1.0000
  Cr  Cr1       1.0  0.33300  0.66700  0.25000  1.0000
  Cr  Cr2       1.0  0.66700  0.33300  0.75000  1.0000
  Na  Na1       1.0  0.66700  0.33300  0.04450  1.0000
  Na  Na2       1.0  0.00000  0.00000  0.25000  1.0000
  Na  Na3       1.0  0.66700  0.33300  0.45500  1.0000
  Na  Na4       1.0  0.33300  0.66700  0.54500  1.0000
  Na  Na5       1.0  1.00000  1.00000  0.75000  1.0000
  Na  Na6       1.0  0.33300  0.66700  0.95500  1.0000
