data_image0
_chemical_formula_structural       In2Na10O8
_chemical_formula_sum              "In2 Na10 O8"
_cell_length_a       7.58596
_cell_length_b       7.34377
_cell_length_c       5.45034
_cell_angle_alpha    90
_cell_angle_beta     90
_cell_angle_gamma    90

_space_group_name_H-M_alt    "P 1"
_space_group_IT_number       1

loop_
  _space_group_symop_operation_xyz
  'x, y, z'

loop_
  _atom_site_type_symbol
  _atom_site_label
  _atom_site_symmetry_multiplicity
  _atom_site_fract_x
  _atom_site_fract_y
  _atom_site_fract_z
  _atom_site_occupancy
  In  In1       1.0  0.25000  0.25000  0.22100  1.0000
  In  In2       1.0  0.75000  0.75000  0.77900  1.0000
  Na  Na1       1.0  0.25000  0.75000  0.19600  1.0000
  Na  Na2       1.0  0.55600  0.51100  0.25500  1.0000
  Na  Na3       1.0  0.94400  0.51100  0.25500  1.0000
  Na  Na4       1.0  0.55600  0.98900  0.25500  1.0000
  Na  Na5       1.0  0.94400  0.98900  0.25500  1.0000
  Na  Na6       1.0  0.05620  0.01050  0.74500  1.0000
  Na  Na7       1.0  0.44400  0.01050  0.74500  1.0000
  Na  Na8       1.0  0.05620  0.48900  0.74500  1.0000
  Na  Na9       1.0  0.44400  0.48900  0.74500  1.0000
  Na  Na10      1.0  0.75000  0.25000  0.80400  1.0000
  O   O1        1.0  0.01540  0.25000  0.01660  1.0000
  O   O2        1.0  0.48500  0.25000  0.01660  1.0000
  O   O3        1.0  0.25000  0.01010  0.42400  1.0000
  O   O4        1.0  0.25000  0.49000  0.42400  1.0000
  O   O5        1.0  0.75000  0.51000  0.57600  1.0000
  O   O6        1.0  0.75000  0.99000  0.57600  1.0000
  O   O7        1.0  0.51500  0.75000  0.98300  1.0000
  O   O8        1.0  0.98500  0.75000  0.98300  1.0000
