data_image0
_chemical_formula_structural       La4Rh6Si10
_chemical_formula_sum              "La4 Rh6 Si10"
_cell_length_a       5.88298
_cell_length_b       8.34105
_cell_length_c       8.34105
_cell_angle_alpha    91.5537
_cell_angle_beta     110.65
_cell_angle_gamma    110.65

_space_group_name_H-M_alt    "P 1"
_space_group_IT_number       1

loop_
  _space_group_symop_operation_xyz
  'x, y, z'

loop_
  _atom_site_type_symbol
  _atom_site_label
  _atom_site_symmetry_multiplicity
  _atom_site_fract_x
  _atom_site_fract_y
  _atom_site_fract_z
  _atom_site_occupancy
  La  La1       1.0  0.23300  0.36400  0.10200  1.0000
  La  La2       1.0  0.73300  0.10200  0.36400  1.0000
  La  La3       1.0  0.26700  0.89800  0.63600  1.0000
  La  La4       1.0  0.76700  0.63600  0.89800  1.0000
  Rh  Rh1       1.0  0.39100  0.75300  0.03010  1.0000
  Rh  Rh2       1.0  0.10900  0.97000  0.24700  1.0000
  Rh  Rh3       1.0  0.25000  0.50000  0.50000  1.0000
  Rh  Rh4       1.0  0.75000  0.50000  0.50000  1.0000
  Rh  Rh5       1.0  0.89100  0.03010  0.75300  1.0000
  Rh  Rh6       1.0  0.60900  0.24700  0.97000  1.0000
  Si  Si1       1.0  0.25000  0.00000  0.00000  1.0000
  Si  Si2       1.0  0.75000  0.00000  0.00000  1.0000
  Si  Si3       1.0  0.84800  0.45500  0.24100  1.0000
  Si  Si4       1.0  0.25000  0.72400  0.27600  1.0000
  Si  Si5       1.0  0.75000  0.72400  0.27600  1.0000
  Si  Si6       1.0  0.34800  0.24100  0.45500  1.0000
  Si  Si7       1.0  0.65200  0.75900  0.54500  1.0000
  Si  Si8       1.0  0.25000  0.27600  0.72400  1.0000
  Si  Si9       1.0  0.75000  0.27600  0.72400  1.0000
  Si  Si10      1.0  0.15200  0.54500  0.75900  1.0000
