data_image0
_chemical_formula_structural       Ba2Pb12Rh6
_chemical_formula_sum              "Ba2 Pb12 Rh6"
_cell_length_a       4.5612
_cell_length_b       8.29271
_cell_length_c       14.2792
_cell_angle_alpha    73.1194
_cell_angle_beta     90
_cell_angle_gamma    90

_space_group_name_H-M_alt    "P 1"
_space_group_IT_number       1

loop_
  _space_group_symop_operation_xyz
  'x, y, z'

loop_
  _atom_site_type_symbol
  _atom_site_label
  _atom_site_symmetry_multiplicity
  _atom_site_fract_x
  _atom_site_fract_y
  _atom_site_fract_z
  _atom_site_occupancy
  Ba  Ba1       1.0  0.75000  0.41100  0.17800  1.0000
  Ba  Ba2       1.0  0.25000  0.58900  0.82200  1.0000
  Pb  Pb1       1.0  0.25000  0.15800  0.09220  1.0000
  Pb  Pb2       1.0  0.25000  0.75000  0.09220  1.0000
  Pb  Pb3       1.0  0.75000  0.86600  0.26900  1.0000
  Pb  Pb4       1.0  0.25000  0.13100  0.34200  1.0000
  Pb  Pb5       1.0  0.25000  0.52800  0.34200  1.0000
  Pb  Pb6       1.0  0.75000  0.25100  0.49900  1.0000
  Pb  Pb7       1.0  0.25000  0.74900  0.50100  1.0000
  Pb  Pb8       1.0  0.75000  0.47200  0.65800  1.0000
  Pb  Pb9       1.0  0.75000  0.86900  0.65800  1.0000
  Pb  Pb10      1.0  0.25000  0.13400  0.73100  1.0000
  Pb  Pb11      1.0  0.75000  0.25000  0.90800  1.0000
  Pb  Pb12      1.0  0.75000  0.84200  0.90800  1.0000
  Rh  Rh1       1.0  0.75000  0.96300  0.07370  1.0000
  Rh  Rh2       1.0  0.75000  0.59400  0.43400  1.0000
  Rh  Rh3       1.0  0.75000  0.97100  0.43400  1.0000
  Rh  Rh4       1.0  0.25000  0.02880  0.56600  1.0000
  Rh  Rh5       1.0  0.25000  0.40600  0.56600  1.0000
  Rh  Rh6       1.0  0.25000  0.03680  0.92600  1.0000
