data_image0
_chemical_formula_structural       Ba2Cu2F14Fe2
_chemical_formula_sum              "Ba2 Cu2 F14 Fe2"
_cell_length_a       5.54143
_cell_length_b       7.20356
_cell_length_c       7.20356
_cell_angle_alpha    94.0079
_cell_angle_beta     110.599
_cell_angle_gamma    69.4013

_space_group_name_H-M_alt    "P 1"
_space_group_IT_number       1

loop_
  _space_group_symop_operation_xyz
  'x, y, z'

loop_
  _atom_site_type_symbol
  _atom_site_label
  _atom_site_symmetry_multiplicity
  _atom_site_fract_x
  _atom_site_fract_y
  _atom_site_fract_z
  _atom_site_occupancy
  Ba  Ba1       1.0  0.24100  0.30700  0.31800  1.0000
  Ba  Ba2       1.0  0.74100  0.68200  0.69300  1.0000
  Cu  Cu1       1.0  0.11100  0.08200  0.71100  1.0000
  Cu  Cu2       1.0  0.61100  0.28900  0.91800  1.0000
  F   F1        1.0  0.72700  0.56200  0.04650  1.0000
  F   F2        1.0  0.99100  0.82800  0.07040  1.0000
  F   F3        1.0  0.49100  0.93000  0.17200  1.0000
  F   F4        1.0  0.72900  0.19500  0.19300  1.0000
  F   F5        1.0  0.47800  0.58300  0.33100  1.0000
  F   F6        1.0  0.97800  0.66900  0.41700  1.0000
  F   F7        1.0  0.22700  0.95400  0.43800  1.0000
  F   F8        1.0  0.75800  0.03310  0.52700  1.0000
  F   F9        1.0  0.00274  0.33000  0.58300  1.0000
  F   F10       1.0  0.50300  0.41700  0.67000  1.0000
  F   F11       1.0  0.22900  0.80700  0.80500  1.0000
  F   F12       1.0  0.49400  0.05420  0.80700  1.0000
  F   F13       1.0  0.99400  0.19300  0.94600  1.0000
  F   F14       1.0  0.25800  0.47300  0.96700  1.0000
  Fe  Fe1       1.0  0.38200  0.69900  0.08110  1.0000
  Fe  Fe2       1.0  0.88200  0.91900  0.30100  1.0000
