data_image0
_chemical_formula_structural       In2Na2O12Si4
_chemical_formula_sum              "In2 Na2 O12 Si4"
_cell_length_a       5.36663
_cell_length_b       6.73087
_cell_length_c       6.73087
_cell_angle_alpha    94.8663
_cell_angle_beta     102.434
_cell_angle_gamma    77.566

_space_group_name_H-M_alt    "P 1"
_space_group_IT_number       1

loop_
  _space_group_symop_operation_xyz
  'x, y, z'

loop_
  _atom_site_type_symbol
  _atom_site_label
  _atom_site_symmetry_multiplicity
  _atom_site_fract_x
  _atom_site_fract_y
  _atom_site_fract_z
  _atom_site_occupancy
  In  In1       1.0  0.75000  0.10500  0.10500  1.0000
  In  In2       1.0  0.25000  0.89500  0.89500  1.0000
  Na  Na1       1.0  0.25000  0.30400  0.30400  1.0000
  Na  Na2       1.0  0.75000  0.69600  0.69600  1.0000
  O   O1        1.0  0.65600  0.79900  0.03720  1.0000
  O   O2        1.0  0.82500  0.39600  0.10600  1.0000
  O   O3        1.0  0.15600  0.96300  0.20100  1.0000
  O   O4        1.0  0.52000  0.63400  0.33800  1.0000
  O   O5        1.0  0.01970  0.66200  0.36600  1.0000
  O   O6        1.0  0.67500  0.10600  0.39600  1.0000
  O   O7        1.0  0.32500  0.89400  0.60400  1.0000
  O   O8        1.0  0.98000  0.33800  0.63400  1.0000
  O   O9        1.0  0.48000  0.36600  0.66200  1.0000
  O   O10       1.0  0.84400  0.03720  0.79900  1.0000
  O   O11       1.0  0.17500  0.60400  0.89400  1.0000
  O   O12       1.0  0.34400  0.20100  0.96300  1.0000
  Si  Si1       1.0  0.75100  0.62100  0.20500  1.0000
  Si  Si2       1.0  0.25100  0.79500  0.37900  1.0000
  Si  Si3       1.0  0.74900  0.20500  0.62100  1.0000
  Si  Si4       1.0  0.24900  0.37900  0.79500  1.0000
