data_image0
_chemical_formula_structural       Cl12K4Tc4
_chemical_formula_sum              "Cl12 K4 Tc4"
_cell_length_a       8.17143
_cell_length_b       8.17143
_cell_length_c       8.81683
_cell_angle_alpha    92.4323
_cell_angle_beta     92.4323
_cell_angle_gamma    118.348

_space_group_name_H-M_alt    "P 1"
_space_group_IT_number       1

loop_
  _space_group_symop_operation_xyz
  'x, y, z'

loop_
  _atom_site_type_symbol
  _atom_site_label
  _atom_site_symmetry_multiplicity
  _atom_site_fract_x
  _atom_site_fract_y
  _atom_site_fract_z
  _atom_site_occupancy
  Cl  Cl1       1.0  0.02390  0.23300  0.05480  1.0000
  Cl  Cl2       1.0  0.34000  0.12600  0.16900  1.0000
  Cl  Cl3       1.0  0.87400  0.84800  0.29100  1.0000
  Cl  Cl4       1.0  0.20500  0.60900  0.31700  1.0000
  Cl  Cl5       1.0  0.76300  0.17600  0.39700  1.0000
  Cl  Cl6       1.0  0.51300  0.48200  0.44500  1.0000
  Cl  Cl7       1.0  0.23300  0.02390  0.55500  1.0000
  Cl  Cl8       1.0  0.12600  0.34000  0.66900  1.0000
  Cl  Cl9       1.0  0.84800  0.87400  0.79100  1.0000
  Cl  Cl10      1.0  0.60900  0.20500  0.81700  1.0000
  Cl  Cl11      1.0  0.17600  0.76300  0.89700  1.0000
  Cl  Cl12      1.0  0.48200  0.51300  0.94500  1.0000
  K   K1        1.0  0.55900  0.89000  0.10100  1.0000
  K   K2        1.0  0.82300  0.48800  0.11100  1.0000
  K   K3        1.0  0.89000  0.55900  0.60100  1.0000
  K   K4        1.0  0.48800  0.82300  0.61100  1.0000
  Tc  Tc1       1.0  0.22700  0.32500  0.28700  1.0000
  Tc  Tc2       1.0  0.04040  0.14300  0.43400  1.0000
  Tc  Tc3       1.0  0.32500  0.22700  0.78700  1.0000
  Tc  Tc4       1.0  0.14300  0.04040  0.93400  1.0000
