data_image0
_chemical_formula_structural       Cs4Ga2Li6O8
_chemical_formula_sum              "Cs4 Ga2 Li6 O8"
_cell_length_a       5.01428
_cell_length_b       8.12176
_cell_length_c       8.12176
_cell_angle_alpha    92.9773
_cell_angle_beta     107.981
_cell_angle_gamma    107.981

_space_group_name_H-M_alt    "P 1"
_space_group_IT_number       1

loop_
  _space_group_symop_operation_xyz
  'x, y, z'

loop_
  _atom_site_type_symbol
  _atom_site_label
  _atom_site_symmetry_multiplicity
  _atom_site_fract_x
  _atom_site_fract_y
  _atom_site_fract_z
  _atom_site_occupancy
  Cs  Cs1       1.0  0.39000  0.12800  0.12800  1.0000
  Cs  Cs2       1.0  0.13400  0.37200  0.37200  1.0000
  Cs  Cs3       1.0  0.86600  0.62800  0.62800  1.0000
  Cs  Cs4       1.0  0.61000  0.87200  0.87200  1.0000
  Ga  Ga1       1.0  1.00000  0.75000  0.25000  1.0000
  Ga  Ga2       1.0  1.00000  0.25000  0.75000  1.0000
  Li  Li1       1.0  0.26000  0.51000  0.01010  1.0000
  Li  Li2       1.0  0.50000  0.75000  0.25000  1.0000
  Li  Li3       1.0  0.74000  0.99000  0.49000  1.0000
  Li  Li4       1.0  0.26000  0.01010  0.51000  1.0000
  Li  Li5       1.0  0.50000  0.25000  0.75000  1.0000
  Li  Li6       1.0  0.74000  0.49000  0.99000  1.0000
  O   O1        1.0  0.11600  0.70700  0.05600  1.0000
  O   O2        1.0  0.64800  0.55600  0.20700  1.0000
  O   O3        1.0  0.88400  0.94400  0.29300  1.0000
  O   O4        1.0  0.35200  0.79300  0.44400  1.0000
  O   O5        1.0  0.64800  0.20700  0.55600  1.0000
  O   O6        1.0  0.11600  0.05600  0.70700  1.0000
  O   O7        1.0  0.35200  0.44400  0.79300  1.0000
  O   O8        1.0  0.88400  0.29300  0.94400  1.0000
