data_image0
_chemical_formula_structural       Ge10Ho4Rh6
_chemical_formula_sum              "Ge10 Ho4 Rh6"
_cell_length_a       5.88135
_cell_length_b       8.33026
_cell_length_c       8.33026
_cell_angle_alpha    93.5636
_cell_angle_beta     109.006
_cell_angle_gamma    109.006

_space_group_name_H-M_alt    "P 1"
_space_group_IT_number       1

loop_
  _space_group_symop_operation_xyz
  'x, y, z'

loop_
  _atom_site_type_symbol
  _atom_site_label
  _atom_site_symmetry_multiplicity
  _atom_site_fract_x
  _atom_site_fract_y
  _atom_site_fract_z
  _atom_site_occupancy
  Ge  Ge1       1.0  0.75000  0.98900  0.01070  1.0000
  Ge  Ge2       1.0  0.83200  0.42700  0.23600  1.0000
  Ge  Ge3       1.0  0.75000  0.72200  0.27800  1.0000
  Ge  Ge4       1.0  0.25000  0.70900  0.29100  1.0000
  Ge  Ge5       1.0  0.33200  0.23600  0.42700  1.0000
  Ge  Ge6       1.0  0.66800  0.76400  0.57300  1.0000
  Ge  Ge7       1.0  0.75000  0.29100  0.70900  1.0000
  Ge  Ge8       1.0  0.25000  0.27800  0.72200  1.0000
  Ge  Ge9       1.0  0.16800  0.57300  0.76400  1.0000
  Ge  Ge10      1.0  0.25000  0.01070  0.98900  1.0000
  Ho  Ho1       1.0  0.23300  0.36800  0.09150  1.0000
  Ho  Ho2       1.0  0.73300  0.09150  0.36800  1.0000
  Ho  Ho3       1.0  0.26700  0.90800  0.63200  1.0000
  Ho  Ho4       1.0  0.76700  0.63200  0.90800  1.0000
  Rh  Rh1       1.0  0.37800  0.75800  0.04270  1.0000
  Rh  Rh2       1.0  0.12200  0.95700  0.24200  1.0000
  Rh  Rh3       1.0  0.25000  0.50200  0.49800  1.0000
  Rh  Rh4       1.0  0.75000  0.49800  0.50200  1.0000
  Rh  Rh5       1.0  0.87800  0.04270  0.75800  1.0000
  Rh  Rh6       1.0  0.62200  0.24200  0.95700  1.0000
