data_image0
_chemical_formula_structural       B4Rb4S12
_chemical_formula_sum              "B4 Rb4 S12"
_cell_length_a       7.21569
_cell_length_b       12.0375
_cell_length_c       5.83997
_cell_angle_alpha    90
_cell_angle_beta     106.475
_cell_angle_gamma    90

_space_group_name_H-M_alt    "P 1"
_space_group_IT_number       1

loop_
  _space_group_symop_operation_xyz
  'x, y, z'

loop_
  _atom_site_type_symbol
  _atom_site_label
  _atom_site_symmetry_multiplicity
  _atom_site_fract_x
  _atom_site_fract_y
  _atom_site_fract_z
  _atom_site_occupancy
  B   B1        1.0  0.70700  0.26800  0.17000  1.0000
  B   B2        1.0  0.29300  0.76800  0.33000  1.0000
  B   B3        1.0  0.70700  0.23200  0.67000  1.0000
  B   B4        1.0  0.29300  0.73200  0.83000  1.0000
  Rb  Rb1       1.0  0.25900  0.42000  0.20700  1.0000
  Rb  Rb2       1.0  0.74100  0.92000  0.29300  1.0000
  Rb  Rb3       1.0  0.25900  0.07990  0.70700  1.0000
  Rb  Rb4       1.0  0.74100  0.58000  0.79300  1.0000
  S   S1        1.0  0.44500  0.69600  0.14600  1.0000
  S   S2        1.0  0.93200  0.17900  0.16200  1.0000
  S   S3        1.0  0.19200  0.90200  0.16300  1.0000
  S   S4        1.0  0.80800  0.40200  0.33700  1.0000
  S   S5        1.0  0.06840  0.67900  0.33800  1.0000
  S   S6        1.0  0.55500  0.19600  0.35400  1.0000
  S   S7        1.0  0.44500  0.80400  0.64600  1.0000
  S   S8        1.0  0.93200  0.32100  0.66200  1.0000
  S   S9        1.0  0.19200  0.59800  0.66300  1.0000
  S   S10       1.0  0.80800  0.09840  0.83700  1.0000
  S   S11       1.0  0.06840  0.82100  0.83800  1.0000
  S   S12       1.0  0.55500  0.30400  0.85400  1.0000
