data_image0
_chemical_formula_structural       Br12Ge4Rb4
_chemical_formula_sum              "Br12 Ge4 Rb4"
_cell_length_a       8.25368
_cell_length_b       11.3978
_cell_length_c       7.7406
_cell_angle_alpha    90
_cell_angle_beta     90
_cell_angle_gamma    90

_space_group_name_H-M_alt    "P 1"
_space_group_IT_number       1

loop_
  _space_group_symop_operation_xyz
  'x, y, z'

loop_
  _atom_site_type_symbol
  _atom_site_label
  _atom_site_symmetry_multiplicity
  _atom_site_fract_x
  _atom_site_fract_y
  _atom_site_fract_z
  _atom_site_occupancy
  Br  Br1       1.0  0.00418  0.24100  0.06830  1.0000
  Br  Br2       1.0  0.71600  0.53500  0.17900  1.0000
  Br  Br3       1.0  0.68400  0.97000  0.20600  1.0000
  Br  Br4       1.0  0.18400  0.97000  0.29400  1.0000
  Br  Br5       1.0  0.21600  0.53500  0.32100  1.0000
  Br  Br6       1.0  0.50400  0.24100  0.43200  1.0000
  Br  Br7       1.0  0.49600  0.74100  0.56800  1.0000
  Br  Br8       1.0  0.78400  0.03540  0.67900  1.0000
  Br  Br9       1.0  0.81600  0.47000  0.70600  1.0000
  Br  Br10      1.0  0.31600  0.47000  0.79400  1.0000
  Br  Br11      1.0  0.28400  0.03540  0.82100  1.0000
  Br  Br12      1.0  0.99600  0.74100  0.93200  1.0000
  Ge  Ge1       1.0  0.02890  0.01870  0.01500  1.0000
  Ge  Ge2       1.0  0.52900  0.01870  0.48500  1.0000
  Ge  Ge3       1.0  0.47100  0.51900  0.51500  1.0000
  Ge  Ge4       1.0  0.97100  0.51900  0.98500  1.0000
  Rb  Rb1       1.0  0.42700  0.75000  0.02580  1.0000
  Rb  Rb2       1.0  0.92700  0.75000  0.47400  1.0000
  Rb  Rb3       1.0  0.07320  0.25000  0.52600  1.0000
  Rb  Rb4       1.0  0.57300  0.25000  0.97400  1.0000
