data_image0
_chemical_formula_structural       O4S8Sm8
_chemical_formula_sum              "O4 S8 Sm8"
_cell_length_a       8.43541
_cell_length_b       7.08255
_cell_length_c       6.98663
_cell_angle_alpha    90
_cell_angle_beta     98.8942
_cell_angle_gamma    90

_space_group_name_H-M_alt    "P 1"
_space_group_IT_number       1

loop_
  _space_group_symop_operation_xyz
  'x, y, z'

loop_
  _atom_site_type_symbol
  _atom_site_label
  _atom_site_symmetry_multiplicity
  _atom_site_fract_x
  _atom_site_fract_y
  _atom_site_fract_z
  _atom_site_occupancy
  O   O1        1.0  0.61700  0.58800  0.14900  1.0000
  O   O2        1.0  0.38300  0.08770  0.35100  1.0000
  O   O3        1.0  0.61700  0.91200  0.64900  1.0000
  O   O4        1.0  0.38300  0.41200  0.85100  1.0000
  S   S1        1.0  0.07770  0.27600  0.02900  1.0000
  S   S2        1.0  0.67800  0.14000  0.06760  1.0000
  S   S3        1.0  0.32200  0.64000  0.43200  1.0000
  S   S4        1.0  0.92200  0.77600  0.47100  1.0000
  S   S5        1.0  0.07770  0.22400  0.52900  1.0000
  S   S6        1.0  0.67800  0.36000  0.56800  1.0000
  S   S7        1.0  0.32200  0.86000  0.93200  1.0000
  S   S8        1.0  0.92200  0.72400  0.97100  1.0000
  Sm  Sm1       1.0  0.42100  0.36200  0.18400  1.0000
  Sm  Sm2       1.0  0.86300  0.44500  0.24900  1.0000
  Sm  Sm3       1.0  0.13700  0.94500  0.25100  1.0000
  Sm  Sm4       1.0  0.57900  0.86200  0.31600  1.0000
  Sm  Sm5       1.0  0.42100  0.13800  0.68400  1.0000
  Sm  Sm6       1.0  0.86300  0.05530  0.74900  1.0000
  Sm  Sm7       1.0  0.13700  0.55500  0.75100  1.0000
  Sm  Sm8       1.0  0.57900  0.63800  0.81600  1.0000
