data_image0
_chemical_formula_structural       S4Ta6
_chemical_formula_sum              "S4 Ta6"
_cell_length_a       6.46232
_cell_length_b       6.46232
_cell_length_c       5.95548
_cell_angle_alpha    122.858
_cell_angle_beta     57.1424
_cell_angle_gamma    120

_space_group_name_H-M_alt    "P 1"
_space_group_IT_number       1

loop_
  _space_group_symop_operation_xyz
  'x, y, z'

loop_
  _atom_site_type_symbol
  _atom_site_label
  _atom_site_symmetry_multiplicity
  _atom_site_fract_x
  _atom_site_fract_y
  _atom_site_fract_z
  _atom_site_occupancy
  S   S1        1.0  0.61000  0.39000  0.16900  1.0000
  S   S2        1.0  0.89000  0.11000  0.33100  1.0000
  S   S3        1.0  0.11000  0.89000  0.66900  1.0000
  S   S4        1.0  0.39000  0.61000  0.83100  1.0000
  Ta  Ta1       1.0  0.51400  0.75000  0.25000  1.0000
  Ta  Ta2       1.0  0.98600  0.48600  0.25000  1.0000
  Ta  Ta3       1.0  0.25000  0.01370  0.25000  1.0000
  Ta  Ta4       1.0  0.75000  0.98600  0.75000  1.0000
  Ta  Ta5       1.0  0.01370  0.51400  0.75000  1.0000
  Ta  Ta6       1.0  0.48600  0.25000  0.75000  1.0000
