data_image0
_chemical_formula_structural       S16V4
_chemical_formula_sum              "S16 V4"
_cell_length_a       6.95568
_cell_length_b       8.34493
_cell_length_c       8.34493
_cell_angle_alpha    99.6885
_cell_angle_beta     72.8705
_cell_angle_gamma    107.129

_space_group_name_H-M_alt    "P 1"
_space_group_IT_number       1

loop_
  _space_group_symop_operation_xyz
  'x, y, z'

loop_
  _atom_site_type_symbol
  _atom_site_label
  _atom_site_symmetry_multiplicity
  _atom_site_fract_x
  _atom_site_fract_y
  _atom_site_fract_z
  _atom_site_occupancy
  S   S1        1.0  0.24400  0.02540  0.07910  1.0000
  S   S2        1.0  0.53500  0.67100  0.14400  1.0000
  S   S3        1.0  0.96500  0.64400  0.17100  1.0000
  S   S4        1.0  0.04460  0.17400  0.18100  1.0000
  S   S5        1.0  0.55300  0.87600  0.31200  1.0000
  S   S6        1.0  0.54500  0.31900  0.32600  1.0000
  S   S7        1.0  0.94700  0.81200  0.37600  1.0000
  S   S8        1.0  0.74400  0.42100  0.47500  1.0000
  S   S9        1.0  0.25600  0.57900  0.52500  1.0000
  S   S10       1.0  0.05290  0.18800  0.62400  1.0000
  S   S11       1.0  0.45500  0.68100  0.67400  1.0000
  S   S12       1.0  0.44700  0.12400  0.68800  1.0000
  S   S13       1.0  0.95500  0.82600  0.81900  1.0000
  S   S14       1.0  0.03500  0.35600  0.82900  1.0000
  S   S15       1.0  0.46500  0.32900  0.85600  1.0000
  S   S16       1.0  0.75600  0.97500  0.92100  1.0000
  V   V1        1.0  0.88400  0.88500  0.11600  1.0000
  V   V2        1.0  0.61600  0.61600  0.38500  1.0000
  V   V3        1.0  0.38400  0.38400  0.61500  1.0000
  V   V4        1.0  0.11600  0.11500  0.88400  1.0000
