data_image0
_chemical_formula_structural       Cl12Er2Na6
_chemical_formula_sum              "Cl12 Er2 Na6"
_cell_length_a       6.84329
_cell_length_b       7.24939
_cell_length_c       10.0978
_cell_angle_alpha    90
_cell_angle_beta     90.7267
_cell_angle_gamma    90

_space_group_name_H-M_alt    "P 1"
_space_group_IT_number       1

loop_
  _space_group_symop_operation_xyz
  'x, y, z'

loop_
  _atom_site_type_symbol
  _atom_site_label
  _atom_site_symmetry_multiplicity
  _atom_site_fract_x
  _atom_site_fract_y
  _atom_site_fract_z
  _atom_site_occupancy
  Cl  Cl1       1.0  0.68600  0.17900  0.06520  1.0000
  Cl  Cl2       1.0  0.83200  0.69400  0.07770  1.0000
  Cl  Cl3       1.0  0.13900  0.06440  0.24000  1.0000
  Cl  Cl4       1.0  0.36100  0.56400  0.26000  1.0000
  Cl  Cl5       1.0  0.66800  0.19400  0.42200  1.0000
  Cl  Cl6       1.0  0.81400  0.67900  0.43500  1.0000
  Cl  Cl7       1.0  0.18600  0.32100  0.56500  1.0000
  Cl  Cl8       1.0  0.33200  0.80600  0.57800  1.0000
  Cl  Cl9       1.0  0.63900  0.43600  0.74000  1.0000
  Cl  Cl10      1.0  0.86100  0.93600  0.76000  1.0000
  Cl  Cl11      1.0  0.16800  0.30600  0.92200  1.0000
  Cl  Cl12      1.0  0.31400  0.82100  0.93500  1.0000
  Er  Er1       1.0  0.00000  0.00000  0.00000  1.0000
  Er  Er2       1.0  0.50000  0.50000  0.50000  1.0000
  Na  Na1       1.0  0.50000  0.50000  0.00000  1.0000
  Na  Na2       1.0  0.52400  0.92400  0.24200  1.0000
  Na  Na3       1.0  0.97600  0.42400  0.25800  1.0000
  Na  Na4       1.0  1.00000  0.00000  0.50000  1.0000
  Na  Na5       1.0  0.02360  0.57600  0.74200  1.0000
  Na  Na6       1.0  0.47600  0.07640  0.75800  1.0000
