data_image0
_chemical_formula_structural       Cr4S12U4
_chemical_formula_sum              "Cr4 S12 U4"
_cell_length_a       7.04282
_cell_length_b       6.09308
_cell_length_c       8.83042
_cell_angle_alpha    90
_cell_angle_beta     90
_cell_angle_gamma    90

_space_group_name_H-M_alt    "P 1"
_space_group_IT_number       1

loop_
  _space_group_symop_operation_xyz
  'x, y, z'

loop_
  _atom_site_type_symbol
  _atom_site_label
  _atom_site_symmetry_multiplicity
  _atom_site_fract_x
  _atom_site_fract_y
  _atom_site_fract_z
  _atom_site_occupancy
  Cr  Cr1       1.0  0.00000  0.00000  0.00000  1.0000
  Cr  Cr2       1.0  0.50000  0.50000  0.00000  1.0000
  Cr  Cr3       1.0  0.00000  0.00000  0.50000  1.0000
  Cr  Cr4       1.0  0.50000  0.50000  0.50000  1.0000
  S   S1        1.0  0.68000  0.16500  0.05730  1.0000
  S   S2        1.0  0.18000  0.33500  0.05730  1.0000
  S   S3        1.0  0.54100  0.64600  0.25000  1.0000
  S   S4        1.0  0.04080  0.85400  0.25000  1.0000
  S   S5        1.0  0.68000  0.16500  0.44300  1.0000
  S   S6        1.0  0.18000  0.33500  0.44300  1.0000
  S   S7        1.0  0.82000  0.66500  0.55700  1.0000
  S   S8        1.0  0.32000  0.83500  0.55700  1.0000
  S   S9        1.0  0.95900  0.14600  0.75000  1.0000
  S   S10       1.0  0.45900  0.35400  0.75000  1.0000
  S   S11       1.0  0.82000  0.66500  0.94300  1.0000
  S   S12       1.0  0.32000  0.83500  0.94300  1.0000
  U   U1        1.0  0.38100  0.05710  0.25000  1.0000
  U   U2        1.0  0.88100  0.44300  0.25000  1.0000
  U   U3        1.0  0.11900  0.55700  0.75000  1.0000
  U   U4        1.0  0.61900  0.94300  0.75000  1.0000
