data_image0
_chemical_formula_structural       Cr4Ga4Se12
_chemical_formula_sum              "Cr4 Ga4 Se12"
_cell_length_a       10.281
_cell_length_b       3.7848
_cell_length_c       12.5682
_cell_angle_alpha    90
_cell_angle_beta     90
_cell_angle_gamma    90

_space_group_name_H-M_alt    "P 1"
_space_group_IT_number       1

loop_
  _space_group_symop_operation_xyz
  'x, y, z'

loop_
  _atom_site_type_symbol
  _atom_site_label
  _atom_site_symmetry_multiplicity
  _atom_site_fract_x
  _atom_site_fract_y
  _atom_site_fract_z
  _atom_site_occupancy
  Cr  Cr1       1.0  0.90400  0.25000  0.11100  1.0000
  Cr  Cr2       1.0  0.40400  0.25000  0.38900  1.0000
  Cr  Cr3       1.0  0.59600  0.75000  0.61100  1.0000
  Cr  Cr4       1.0  0.09630  0.75000  0.88900  1.0000
  Ga  Ga1       1.0  0.26800  0.75000  0.20500  1.0000
  Ga  Ga2       1.0  0.76800  0.75000  0.29500  1.0000
  Ga  Ga3       1.0  0.23200  0.25000  0.70500  1.0000
  Ga  Ga4       1.0  0.73200  0.25000  0.79500  1.0000
  Se  Se1       1.0  0.07200  0.75000  0.09330  1.0000
  Se  Se2       1.0  0.73600  0.75000  0.10500  1.0000
  Se  Se3       1.0  0.41500  0.25000  0.18300  1.0000
  Se  Se4       1.0  0.91500  0.25000  0.31700  1.0000
  Se  Se5       1.0  0.23600  0.75000  0.39500  1.0000
  Se  Se6       1.0  0.57200  0.75000  0.40700  1.0000
  Se  Se7       1.0  0.42800  0.25000  0.59300  1.0000
  Se  Se8       1.0  0.76400  0.25000  0.60500  1.0000
  Se  Se9       1.0  0.08530  0.75000  0.68300  1.0000
  Se  Se10      1.0  0.58500  0.75000  0.81700  1.0000
  Se  Se11      1.0  0.26400  0.25000  0.89500  1.0000
  Se  Se12      1.0  0.92800  0.25000  0.90700  1.0000
