data_image0
_chemical_formula_structural       Ba4S12Zr4
_chemical_formula_sum              "Ba4 S12 Zr4"
_cell_length_a       7.16908
_cell_length_b       10.054
_cell_length_c       7.05226
_cell_angle_alpha    90
_cell_angle_beta     90
_cell_angle_gamma    90

_space_group_name_H-M_alt    "P 1"
_space_group_IT_number       1

loop_
  _space_group_symop_operation_xyz
  'x, y, z'

loop_
  _atom_site_type_symbol
  _atom_site_label
  _atom_site_symmetry_multiplicity
  _atom_site_fract_x
  _atom_site_fract_y
  _atom_site_fract_z
  _atom_site_occupancy
  Ba  Ba1       1.0  0.04910  0.25000  0.01010  1.0000
  Ba  Ba2       1.0  0.54900  0.25000  0.49000  1.0000
  Ba  Ba3       1.0  0.45100  0.75000  0.51000  1.0000
  Ba  Ba4       1.0  0.95100  0.75000  0.99000  1.0000
  S   S1        1.0  0.50700  0.75000  0.06450  1.0000
  S   S2        1.0  0.78800  0.03400  0.21100  1.0000
  S   S3        1.0  0.78800  0.46600  0.21100  1.0000
  S   S4        1.0  0.28800  0.03400  0.28900  1.0000
  S   S5        1.0  0.28800  0.46600  0.28900  1.0000
  S   S6        1.0  0.00654  0.75000  0.43500  1.0000
  S   S7        1.0  0.99300  0.25000  0.56500  1.0000
  S   S8        1.0  0.71200  0.53400  0.71100  1.0000
  S   S9        1.0  0.71200  0.96600  0.71100  1.0000
  S   S10       1.0  0.21200  0.53400  0.78900  1.0000
  S   S11       1.0  0.21200  0.96600  0.78900  1.0000
  S   S12       1.0  0.49300  0.25000  0.93500  1.0000
  Zr  Zr1       1.0  0.50000  0.00000  0.00000  1.0000
  Zr  Zr2       1.0  0.50000  0.50000  0.00000  1.0000
  Zr  Zr3       1.0  0.00000  0.00000  0.50000  1.0000
  Zr  Zr4       1.0  0.00000  0.50000  0.50000  1.0000
