data_image0
_chemical_formula_structural       O14Ta4Th2
_chemical_formula_sum              "O14 Ta4 Th2"
_cell_length_a       3.90028
_cell_length_b       7.91203
_cell_length_c       8.40147
_cell_angle_alpha    95.8662
_cell_angle_beta     90
_cell_angle_gamma    104.269

_space_group_name_H-M_alt    "P 1"
_space_group_IT_number       1

loop_
  _space_group_symop_operation_xyz
  'x, y, z'

loop_
  _atom_site_type_symbol
  _atom_site_label
  _atom_site_symmetry_multiplicity
  _atom_site_fract_x
  _atom_site_fract_y
  _atom_site_fract_z
  _atom_site_occupancy
  O   O1        1.0  0.39300  0.78600  0.06380  1.0000
  O   O2        1.0  0.01210  0.02410  0.14100  1.0000
  O   O3        1.0  0.80100  0.60200  0.16300  1.0000
  O   O4        1.0  0.16900  0.33800  0.19500  1.0000
  O   O5        1.0  0.58400  0.16800  0.38900  1.0000
  O   O6        1.0  0.94200  0.88400  0.39100  1.0000
  O   O7        1.0  0.19600  0.39200  0.49600  1.0000
  O   O8        1.0  0.80400  0.60800  0.50400  1.0000
  O   O9        1.0  0.05790  0.11600  0.60900  1.0000
  O   O10       1.0  0.41600  0.83200  0.61100  1.0000
  O   O11       1.0  0.83100  0.66200  0.80500  1.0000
  O   O12       1.0  0.19900  0.39800  0.83700  1.0000
  O   O13       1.0  0.98800  0.97600  0.85900  1.0000
  O   O14       1.0  0.60700  0.21400  0.93600  1.0000
  Ta  Ta1       1.0  0.89000  0.78100  0.01820  1.0000
  Ta  Ta2       1.0  0.07250  0.14500  0.36500  1.0000
  Ta  Ta3       1.0  0.92800  0.85500  0.63500  1.0000
  Ta  Ta4       1.0  0.11000  0.21900  0.98200  1.0000
  Th  Th1       1.0  0.31600  0.63300  0.33400  1.0000
  Th  Th2       1.0  0.68400  0.36700  0.66600  1.0000
