data_image0
_chemical_formula_structural       O4S8Tm8
_chemical_formula_sum              "O4 S8 Tm8"
_cell_length_a       8.15044
_cell_length_b       6.7882
_cell_length_c       6.7622
_cell_angle_alpha    90
_cell_angle_beta     99.5591
_cell_angle_gamma    90

_space_group_name_H-M_alt    "P 1"
_space_group_IT_number       1

loop_
  _space_group_symop_operation_xyz
  'x, y, z'

loop_
  _atom_site_type_symbol
  _atom_site_label
  _atom_site_symmetry_multiplicity
  _atom_site_fract_x
  _atom_site_fract_y
  _atom_site_fract_z
  _atom_site_occupancy
  O   O1        1.0  0.61700  0.58700  0.15000  1.0000
  O   O2        1.0  0.38300  0.08710  0.35000  1.0000
  O   O3        1.0  0.61700  0.91300  0.65000  1.0000
  O   O4        1.0  0.38300  0.41300  0.85000  1.0000
  S   S1        1.0  0.07530  0.27700  0.03040  1.0000
  S   S2        1.0  0.68200  0.13200  0.07940  1.0000
  S   S3        1.0  0.31800  0.63200  0.42100  1.0000
  S   S4        1.0  0.92500  0.77700  0.47000  1.0000
  S   S5        1.0  0.07530  0.22300  0.53000  1.0000
  S   S6        1.0  0.68200  0.36800  0.57900  1.0000
  S   S7        1.0  0.31800  0.86800  0.92100  1.0000
  S   S8        1.0  0.92500  0.72300  0.97000  1.0000
  Tm  Tm1       1.0  0.42500  0.35500  0.17700  1.0000
  Tm  Tm2       1.0  0.13800  0.94700  0.24900  1.0000
  Tm  Tm3       1.0  0.86200  0.44700  0.25100  1.0000
  Tm  Tm4       1.0  0.57500  0.85500  0.32300  1.0000
  Tm  Tm5       1.0  0.42500  0.14500  0.67700  1.0000
  Tm  Tm6       1.0  0.13800  0.55300  0.74900  1.0000
  Tm  Tm7       1.0  0.86200  0.05320  0.75100  1.0000
  Tm  Tm8       1.0  0.57500  0.64500  0.82300  1.0000
