data_image0
_chemical_formula_structural       Al2Cl16Nb2
_chemical_formula_sum              "Al2 Cl16 Nb2"
_cell_length_a       8.07004
_cell_length_b       8.17493
_cell_length_c       9.52307
_cell_angle_alpha    90
_cell_angle_beta     64.9309
_cell_angle_gamma    90

_space_group_name_H-M_alt    "P 1"
_space_group_IT_number       1

loop_
  _space_group_symop_operation_xyz
  'x, y, z'

loop_
  _atom_site_type_symbol
  _atom_site_label
  _atom_site_symmetry_multiplicity
  _atom_site_fract_x
  _atom_site_fract_y
  _atom_site_fract_z
  _atom_site_occupancy
  Al  Al1       1.0  0.31600  0.75000  0.36800  1.0000
  Al  Al2       1.0  0.68400  0.25000  0.63200  1.0000
  Cl  Cl1       1.0  0.18900  0.25000  0.05610  1.0000
  Cl  Cl2       1.0  0.75500  0.25000  0.05610  1.0000
  Cl  Cl3       1.0  0.38200  0.53300  0.23600  1.0000
  Cl  Cl4       1.0  0.38200  0.96700  0.23600  1.0000
  Cl  Cl5       1.0  0.86800  0.52900  0.26500  1.0000
  Cl  Cl6       1.0  0.86800  0.97100  0.26500  1.0000
  Cl  Cl7       1.0  0.56200  0.25000  0.46200  1.0000
  Cl  Cl8       1.0  0.97600  0.25000  0.46200  1.0000
  Cl  Cl9       1.0  0.02450  0.75000  0.53800  1.0000
  Cl  Cl10      1.0  0.43800  0.75000  0.53800  1.0000
  Cl  Cl11      1.0  0.13200  0.02950  0.73500  1.0000
  Cl  Cl12      1.0  0.13200  0.47100  0.73500  1.0000
  Cl  Cl13      1.0  0.61800  0.03300  0.76400  1.0000
  Cl  Cl14      1.0  0.61800  0.46700  0.76400  1.0000
  Cl  Cl15      1.0  0.24500  0.75000  0.94400  1.0000
  Cl  Cl16      1.0  0.81100  0.75000  0.94400  1.0000
  Nb  Nb1       1.0  0.89000  0.25000  0.22000  1.0000
  Nb  Nb2       1.0  0.11000  0.75000  0.78000  1.0000
