data_image0
_chemical_formula_structural       Cd4O8Rb8
_chemical_formula_sum              "Cd4 O8 Rb8"
_cell_length_a       10.4878
_cell_length_b       6.35204
_cell_length_c       6.29376
_cell_angle_alpha    90
_cell_angle_beta     90
_cell_angle_gamma    90

_space_group_name_H-M_alt    "P 1"
_space_group_IT_number       1

loop_
  _space_group_symop_operation_xyz
  'x, y, z'

loop_
  _atom_site_type_symbol
  _atom_site_label
  _atom_site_symmetry_multiplicity
  _atom_site_fract_x
  _atom_site_fract_y
  _atom_site_fract_z
  _atom_site_occupancy
  Cd  Cd1       1.0  0.00000  0.03780  0.25000  1.0000
  Cd  Cd2       1.0  0.50000  0.53800  0.25000  1.0000
  Cd  Cd3       1.0  0.50000  0.46200  0.75000  1.0000
  Cd  Cd4       1.0  0.00000  0.96200  0.75000  1.0000
  O   O1        1.0  0.59700  0.30800  0.01900  1.0000
  O   O2        1.0  0.90300  0.80800  0.01900  1.0000
  O   O3        1.0  0.40300  0.30800  0.48100  1.0000
  O   O4        1.0  0.09750  0.80800  0.48100  1.0000
  O   O5        1.0  0.90300  0.19200  0.51900  1.0000
  O   O6        1.0  0.59700  0.69200  0.51900  1.0000
  O   O7        1.0  0.09750  0.19200  0.98100  1.0000
  O   O8        1.0  0.40300  0.69200  0.98100  1.0000
  Rb  Rb1       1.0  0.34400  0.10700  0.10200  1.0000
  Rb  Rb2       1.0  0.15600  0.60700  0.10200  1.0000
  Rb  Rb3       1.0  0.65600  0.10700  0.39800  1.0000
  Rb  Rb4       1.0  0.84400  0.60700  0.39800  1.0000
  Rb  Rb5       1.0  0.15600  0.39300  0.60200  1.0000
  Rb  Rb6       1.0  0.34400  0.89300  0.60200  1.0000
  Rb  Rb7       1.0  0.84400  0.39300  0.89800  1.0000
  Rb  Rb8       1.0  0.65600  0.89300  0.89800  1.0000
