data_image0
_chemical_formula_structural       Er8O4S8
_chemical_formula_sum              "Er8 O4 S8"
_cell_length_a       8.17874
_cell_length_b       6.82468
_cell_length_c       6.79445
_cell_angle_alpha    90
_cell_angle_beta     99.58
_cell_angle_gamma    90

_space_group_name_H-M_alt    "P 1"
_space_group_IT_number       1

loop_
  _space_group_symop_operation_xyz
  'x, y, z'

loop_
  _atom_site_type_symbol
  _atom_site_label
  _atom_site_symmetry_multiplicity
  _atom_site_fract_x
  _atom_site_fract_y
  _atom_site_fract_z
  _atom_site_occupancy
  Er  Er1       1.0  0.42400  0.35600  0.17900  1.0000
  Er  Er2       1.0  0.13800  0.94600  0.24900  1.0000
  Er  Er3       1.0  0.86200  0.44600  0.25100  1.0000
  Er  Er4       1.0  0.57600  0.85600  0.32100  1.0000
  Er  Er5       1.0  0.42400  0.14400  0.67900  1.0000
  Er  Er6       1.0  0.13800  0.55400  0.74900  1.0000
  Er  Er7       1.0  0.86200  0.05440  0.75100  1.0000
  Er  Er8       1.0  0.57600  0.64400  0.82100  1.0000
  O   O1        1.0  0.61700  0.58700  0.15000  1.0000
  O   O2        1.0  0.38300  0.08720  0.35000  1.0000
  O   O3        1.0  0.61700  0.91300  0.65000  1.0000
  O   O4        1.0  0.38300  0.41300  0.85000  1.0000
  S   S1        1.0  0.07580  0.27700  0.03030  1.0000
  S   S2        1.0  0.68100  0.13200  0.07700  1.0000
  S   S3        1.0  0.31900  0.63200  0.42300  1.0000
  S   S4        1.0  0.92400  0.77700  0.47000  1.0000
  S   S5        1.0  0.07580  0.22300  0.53000  1.0000
  S   S6        1.0  0.68100  0.36800  0.57700  1.0000
  S   S7        1.0  0.31900  0.86800  0.92300  1.0000
  S   S8        1.0  0.92400  0.72300  0.97000  1.0000
