data_image0
_chemical_formula_structural       Er4Ru6Si10
_chemical_formula_sum              "Er4 Ru6 Si10"
_cell_length_a       5.57815
_cell_length_b       8.22591
_cell_length_c       8.22591
_cell_angle_alpha    95.1084
_cell_angle_beta     109.82
_cell_angle_gamma    109.82

_space_group_name_H-M_alt    "P 1"
_space_group_IT_number       1

loop_
  _space_group_symop_operation_xyz
  'x, y, z'

loop_
  _atom_site_type_symbol
  _atom_site_label
  _atom_site_symmetry_multiplicity
  _atom_site_fract_x
  _atom_site_fract_y
  _atom_site_fract_z
  _atom_site_occupancy
  Er  Er1       1.0  0.23200  0.36900  0.09530  1.0000
  Er  Er2       1.0  0.73200  0.09530  0.36900  1.0000
  Er  Er3       1.0  0.26800  0.90500  0.63100  1.0000
  Er  Er4       1.0  0.76800  0.63100  0.90500  1.0000
  Ru  Ru1       1.0  0.40800  0.76100  0.05490  1.0000
  Ru  Ru2       1.0  0.09180  0.94500  0.23900  1.0000
  Ru  Ru3       1.0  0.25000  0.50000  0.50000  1.0000
  Ru  Ru4       1.0  0.75000  0.50000  0.50000  1.0000
  Ru  Ru5       1.0  0.90800  0.05490  0.76100  1.0000
  Ru  Ru6       1.0  0.59200  0.23900  0.94500  1.0000
  Si  Si1       1.0  0.25000  0.00000  0.00000  1.0000
  Si  Si2       1.0  0.75000  0.00000  0.00000  1.0000
  Si  Si3       1.0  0.82900  0.42400  0.23500  1.0000
  Si  Si4       1.0  0.25000  0.70700  0.29300  1.0000
  Si  Si5       1.0  0.75000  0.70700  0.29300  1.0000
  Si  Si6       1.0  0.32900  0.23500  0.42400  1.0000
  Si  Si7       1.0  0.67100  0.76500  0.57600  1.0000
  Si  Si8       1.0  0.25000  0.29300  0.70700  1.0000
  Si  Si9       1.0  0.75000  0.29300  0.70700  1.0000
  Si  Si10      1.0  0.17100  0.57600  0.76500  1.0000
