data_image0
_chemical_formula_structural       Cl12Cs4Li2Sc2
_chemical_formula_sum              "Cl12 Cs4 Li2 Sc2"
_cell_length_a       7.32571
_cell_length_b       7.32571
_cell_length_c       12.7528
_cell_angle_alpha    90
_cell_angle_beta     106.692
_cell_angle_gamma    60

_space_group_name_H-M_alt    "P 1"
_space_group_IT_number       1

loop_
  _space_group_symop_operation_xyz
  'x, y, z'

loop_
  _atom_site_type_symbol
  _atom_site_label
  _atom_site_symmetry_multiplicity
  _atom_site_fract_x
  _atom_site_fract_y
  _atom_site_fract_z
  _atom_site_occupancy
  Cl  Cl1       1.0  0.91800  0.28300  0.11900  1.0000
  Cl  Cl2       1.0  0.40200  0.79900  0.11900  1.0000
  Cl  Cl3       1.0  0.91800  0.79900  0.11900  1.0000
  Cl  Cl4       1.0  0.23100  0.38400  0.37500  1.0000
  Cl  Cl5       1.0  0.76000  0.38400  0.37500  1.0000
  Cl  Cl6       1.0  0.76000  0.85600  0.37500  1.0000
  Cl  Cl7       1.0  0.24000  0.14400  0.62500  1.0000
  Cl  Cl8       1.0  0.24000  0.61600  0.62500  1.0000
  Cl  Cl9       1.0  0.76900  0.61600  0.62500  1.0000
  Cl  Cl10      1.0  0.59800  0.20100  0.88100  1.0000
  Cl  Cl11      1.0  0.08200  0.20100  0.88100  1.0000
  Cl  Cl12      1.0  0.08200  0.71700  0.88100  1.0000
  Cs  Cs1       1.0  0.42300  0.28800  0.13500  1.0000
  Cs  Cs2       1.0  0.25300  0.87400  0.37900  1.0000
  Cs  Cs3       1.0  0.74700  0.12600  0.62100  1.0000
  Cs  Cs4       1.0  0.57700  0.71200  0.86500  1.0000
  Li  Li1       1.0  0.82100  0.58900  0.23200  1.0000
  Li  Li2       1.0  0.17900  0.41100  0.76800  1.0000
  Sc  Sc1       1.0  0.00000  0.00000  0.00000  1.0000
  Sc  Sc2       1.0  0.00000  0.50000  0.50000  1.0000
