data_image0
_chemical_formula_structural       Ag2Cl2O8Pb8
_chemical_formula_sum              "Ag2 Cl2 O8 Pb8"
_cell_length_a       8.23631
_cell_length_b       8.23631
_cell_length_c       6.24397
_cell_angle_alpha    90
_cell_angle_beta     90
_cell_angle_gamma    90

_space_group_name_H-M_alt    "P 1"
_space_group_IT_number       1

loop_
  _space_group_symop_operation_xyz
  'x, y, z'

loop_
  _atom_site_type_symbol
  _atom_site_label
  _atom_site_symmetry_multiplicity
  _atom_site_fract_x
  _atom_site_fract_y
  _atom_site_fract_z
  _atom_site_occupancy
  Ag  Ag1       1.0  0.25000  0.25000  0.08900  1.0000
  Ag  Ag2       1.0  0.75000  0.75000  0.91100  1.0000
  Cl  Cl1       1.0  0.25000  0.25000  0.49400  1.0000
  Cl  Cl2       1.0  0.75000  0.75000  0.50600  1.0000
  O   O1        1.0  0.84200  0.00890  0.08290  1.0000
  O   O2        1.0  0.65800  0.49100  0.08290  1.0000
  O   O3        1.0  0.00890  0.65800  0.08290  1.0000
  O   O4        1.0  0.49100  0.84200  0.08290  1.0000
  O   O5        1.0  0.50900  0.15800  0.91700  1.0000
  O   O6        1.0  0.99100  0.34200  0.91700  1.0000
  O   O7        1.0  0.34200  0.50900  0.91700  1.0000
  O   O8        1.0  0.15800  0.99100  0.91700  1.0000
  Pb  Pb1       1.0  0.60300  0.06290  0.23800  1.0000
  Pb  Pb2       1.0  0.89700  0.43700  0.23800  1.0000
  Pb  Pb3       1.0  0.43700  0.60300  0.23800  1.0000
  Pb  Pb4       1.0  0.06290  0.89700  0.23800  1.0000
  Pb  Pb5       1.0  0.93700  0.10300  0.76200  1.0000
  Pb  Pb6       1.0  0.56300  0.39700  0.76200  1.0000
  Pb  Pb7       1.0  0.10300  0.56300  0.76200  1.0000
  Pb  Pb8       1.0  0.39700  0.93700  0.76200  1.0000
