data_image0
_chemical_formula_structural       Cl16Si4
_chemical_formula_sum              "Cl16 Si4"
_cell_length_a       9.66775
_cell_length_b       6.39752
_cell_length_c       9.73204
_cell_angle_alpha    90
_cell_angle_beta     102.939
_cell_angle_gamma    90

_space_group_name_H-M_alt    "P 1"
_space_group_IT_number       1

loop_
  _space_group_symop_operation_xyz
  'x, y, z'

loop_
  _atom_site_type_symbol
  _atom_site_label
  _atom_site_symmetry_multiplicity
  _atom_site_fract_x
  _atom_site_fract_y
  _atom_site_fract_z
  _atom_site_occupancy
  Cl  Cl1       1.0  0.20000  0.57500  0.02480  1.0000
  Cl  Cl2       1.0  0.69400  0.87200  0.09010  1.0000
  Cl  Cl3       1.0  0.07740  0.06820  0.19200  1.0000
  Cl  Cl4       1.0  0.58700  0.42200  0.19900  1.0000
  Cl  Cl5       1.0  0.41300  0.92200  0.30100  1.0000
  Cl  Cl6       1.0  0.92300  0.56800  0.30800  1.0000
  Cl  Cl7       1.0  0.30600  0.37200  0.41000  1.0000
  Cl  Cl8       1.0  0.80000  0.07550  0.47500  1.0000
  Cl  Cl9       1.0  0.20000  0.92500  0.52500  1.0000
  Cl  Cl10      1.0  0.69400  0.62800  0.59000  1.0000
  Cl  Cl11      1.0  0.07740  0.43200  0.69200  1.0000
  Cl  Cl12      1.0  0.58700  0.07840  0.69900  1.0000
  Cl  Cl13      1.0  0.41300  0.57800  0.80100  1.0000
  Cl  Cl14      1.0  0.92300  0.93200  0.80800  1.0000
  Cl  Cl15      1.0  0.30600  0.12800  0.91000  1.0000
  Cl  Cl16      1.0  0.80000  0.42500  0.97500  1.0000
  Si  Si1       1.0  0.75100  0.57200  0.14300  1.0000
  Si  Si2       1.0  0.24900  0.07210  0.35700  1.0000
  Si  Si3       1.0  0.75100  0.92800  0.64300  1.0000
  Si  Si4       1.0  0.24900  0.42800  0.85700  1.0000
