data_image0
_chemical_formula_structural       As12Tc8
_chemical_formula_sum              "As12 Tc8"
_cell_length_a       6.65114
_cell_length_b       6.67969
_cell_length_c       8.05028
_cell_angle_alpha    95.8116
_cell_angle_beta     101.615
_cell_angle_gamma    104.458

_space_group_name_H-M_alt    "P 1"
_space_group_IT_number       1

loop_
  _space_group_symop_operation_xyz
  'x, y, z'

loop_
  _atom_site_type_symbol
  _atom_site_label
  _atom_site_symmetry_multiplicity
  _atom_site_fract_x
  _atom_site_fract_y
  _atom_site_fract_z
  _atom_site_occupancy
  As  As1       1.0  0.45500  0.79500  0.03590  1.0000
  As  As2       1.0  0.96800  0.81100  0.04980  1.0000
  As  As3       1.0  0.86000  0.13000  0.31400  1.0000
  As  As4       1.0  0.37200  0.15600  0.32000  1.0000
  As  As5       1.0  0.73600  0.59200  0.34700  1.0000
  As  As6       1.0  0.23600  0.56600  0.38600  1.0000
  As  As7       1.0  0.76400  0.43400  0.61400  1.0000
  As  As8       1.0  0.26400  0.40800  0.65300  1.0000
  As  As9       1.0  0.62800  0.84400  0.68000  1.0000
  As  As10      1.0  0.14000  0.87000  0.68600  1.0000
  As  As11      1.0  0.03220  0.18900  0.95000  1.0000
  As  As12      1.0  0.54500  0.20500  0.96400  1.0000
  Tc  Tc1       1.0  0.36900  0.42900  0.13300  1.0000
  Tc  Tc2       1.0  0.91500  0.42600  0.14200  1.0000
  Tc  Tc3       1.0  0.53100  0.86500  0.36500  1.0000
  Tc  Tc4       1.0  0.08870  0.87600  0.37500  1.0000
  Tc  Tc5       1.0  0.91100  0.12400  0.62500  1.0000
  Tc  Tc6       1.0  0.46900  0.13500  0.63500  1.0000
  Tc  Tc7       1.0  0.08480  0.57400  0.85800  1.0000
  Tc  Tc8       1.0  0.63100  0.57100  0.86700  1.0000
