data_image0
_chemical_formula_structural       C8Er8Re4
_chemical_formula_sum              "C8 Er8 Re4"
_cell_length_a       6.52926
_cell_length_b       5.05357
_cell_length_c       9.76911
_cell_angle_alpha    90
_cell_angle_beta     90
_cell_angle_gamma    90

_space_group_name_H-M_alt    "P 1"
_space_group_IT_number       1

loop_
  _space_group_symop_operation_xyz
  'x, y, z'

loop_
  _atom_site_type_symbol
  _atom_site_label
  _atom_site_symmetry_multiplicity
  _atom_site_fract_x
  _atom_site_fract_y
  _atom_site_fract_z
  _atom_site_occupancy
  C   C1        1.0  0.82500  0.75000  0.05300  1.0000
  C   C2        1.0  0.54800  0.25000  0.24100  1.0000
  C   C3        1.0  0.04850  0.25000  0.25900  1.0000
  C   C4        1.0  0.32500  0.75000  0.44700  1.0000
  C   C5        1.0  0.67500  0.25000  0.55300  1.0000
  C   C6        1.0  0.95200  0.75000  0.74100  1.0000
  C   C7        1.0  0.45200  0.75000  0.75900  1.0000
  C   C8        1.0  0.17500  0.25000  0.94700  1.0000
  Er  Er1       1.0  0.82200  0.25000  0.05690  1.0000
  Er  Er2       1.0  0.53400  0.75000  0.21700  1.0000
  Er  Er3       1.0  0.03370  0.75000  0.28300  1.0000
  Er  Er4       1.0  0.32200  0.25000  0.44300  1.0000
  Er  Er5       1.0  0.67800  0.75000  0.55700  1.0000
  Er  Er6       1.0  0.96600  0.25000  0.71700  1.0000
  Er  Er7       1.0  0.46600  0.25000  0.78300  1.0000
  Er  Er8       1.0  0.17800  0.75000  0.94300  1.0000
  Re  Re1       1.0  0.28200  0.25000  0.13200  1.0000
  Re  Re2       1.0  0.78200  0.25000  0.36800  1.0000
  Re  Re3       1.0  0.21800  0.75000  0.63200  1.0000
  Re  Re4       1.0  0.71800  0.75000  0.86800  1.0000
