data_image0
_chemical_formula_structural       O12Ru2Sr4Yb2
_chemical_formula_sum              "O12 Ru2 Sr4 Yb2"
_cell_length_a       5.71955
_cell_length_b       5.78093
_cell_length_c       8.10382
_cell_angle_alpha    90
_cell_angle_beta     90.3358
_cell_angle_gamma    90

_space_group_name_H-M_alt    "P 1"
_space_group_IT_number       1

loop_
  _space_group_symop_operation_xyz
  'x, y, z'

loop_
  _atom_site_type_symbol
  _atom_site_label
  _atom_site_symmetry_multiplicity
  _atom_site_fract_x
  _atom_site_fract_y
  _atom_site_fract_z
  _atom_site_occupancy
  O   O1        1.0  0.27100  0.30600  0.04120  1.0000
  O   O2        1.0  0.18900  0.77300  0.04270  1.0000
  O   O3        1.0  0.92100  0.48100  0.23100  1.0000
  O   O4        1.0  0.57900  0.98100  0.26900  1.0000
  O   O5        1.0  0.31100  0.27300  0.45700  1.0000
  O   O6        1.0  0.22900  0.80600  0.45900  1.0000
  O   O7        1.0  0.77100  0.19400  0.54100  1.0000
  O   O8        1.0  0.68900  0.72700  0.54300  1.0000
  O   O9        1.0  0.42100  0.01920  0.73100  1.0000
  O   O10       1.0  0.07920  0.51900  0.76900  1.0000
  O   O11       1.0  0.81100  0.22700  0.95700  1.0000
  O   O12       1.0  0.72900  0.69400  0.95900  1.0000
  Ru  Ru1       1.0  0.00000  0.50000  0.00000  1.0000
  Ru  Ru2       1.0  0.50000  0.00000  0.50000  1.0000
  Sr  Sr1       1.0  0.00880  0.04300  0.25000  1.0000
  Sr  Sr2       1.0  0.49100  0.54300  0.25000  1.0000
  Sr  Sr3       1.0  0.50900  0.45700  0.75000  1.0000
  Sr  Sr4       1.0  0.99100  0.95700  0.75000  1.0000
  Yb  Yb1       1.0  0.50000  0.00000  1.00000  1.0000
  Yb  Yb2       1.0  1.00000  0.50000  0.50000  1.0000
