data_image0
_chemical_formula_structural       Ca2O12Sr4U2
_chemical_formula_sum              "Ca2 O12 Sr4 U2"
_cell_length_a       5.91966
_cell_length_b       6.07336
_cell_length_c       8.44326
_cell_angle_alpha    90
_cell_angle_beta     90.2484
_cell_angle_gamma    90

_space_group_name_H-M_alt    "P 1"
_space_group_IT_number       1

loop_
  _space_group_symop_operation_xyz
  'x, y, z'

loop_
  _atom_site_type_symbol
  _atom_site_label
  _atom_site_symmetry_multiplicity
  _atom_site_fract_x
  _atom_site_fract_y
  _atom_site_fract_z
  _atom_site_occupancy
  Ca  Ca1       1.0  0.50000  0.00000  1.00000  1.0000
  Ca  Ca2       1.0  1.00000  0.50000  0.50000  1.0000
  O   O1        1.0  0.71300  0.31100  0.05020  1.0000
  O   O2        1.0  0.81400  0.78400  0.06050  1.0000
  O   O3        1.0  0.10500  0.45700  0.23700  1.0000
  O   O4        1.0  0.39500  0.95700  0.26300  1.0000
  O   O5        1.0  0.68600  0.28400  0.43900  1.0000
  O   O6        1.0  0.78700  0.81100  0.45000  1.0000
  O   O7        1.0  0.21300  0.18900  0.55000  1.0000
  O   O8        1.0  0.31400  0.71600  0.56100  1.0000
  O   O9        1.0  0.60500  0.04250  0.73700  1.0000
  O   O10       1.0  0.89500  0.54300  0.76300  1.0000
  O   O11       1.0  0.18600  0.21600  0.93900  1.0000
  O   O12       1.0  0.28700  0.68900  0.95000  1.0000
  Sr  Sr1       1.0  0.51200  0.54800  0.24800  1.0000
  Sr  Sr2       1.0  0.98800  0.04780  0.25200  1.0000
  Sr  Sr3       1.0  0.01230  0.95200  0.74800  1.0000
  Sr  Sr4       1.0  0.48800  0.45200  0.75200  1.0000
  U   U1        1.0  0.00000  0.50000  0.00000  1.0000
  U   U2        1.0  0.50000  0.00000  0.50000  1.0000
