data_image0
_chemical_formula_structural       Hf4S12Sn4
_chemical_formula_sum              "Hf4 S12 Sn4"
_cell_length_a       9.30578
_cell_length_b       3.7136
_cell_length_c       14.0506
_cell_angle_alpha    90
_cell_angle_beta     90
_cell_angle_gamma    90

_space_group_name_H-M_alt    "P 1"
_space_group_IT_number       1

loop_
  _space_group_symop_operation_xyz
  'x, y, z'

loop_
  _atom_site_type_symbol
  _atom_site_label
  _atom_site_symmetry_multiplicity
  _atom_site_fract_x
  _atom_site_fract_y
  _atom_site_fract_z
  _atom_site_occupancy
  Hf  Hf1       1.0  0.15900  0.25000  0.04910  1.0000
  Hf  Hf2       1.0  0.65900  0.25000  0.45100  1.0000
  Hf  Hf3       1.0  0.34100  0.75000  0.54900  1.0000
  Hf  Hf4       1.0  0.84100  0.75000  0.95100  1.0000
  S   S1        1.0  0.67300  0.25000  0.00679  1.0000
  S   S2        1.0  0.98700  0.75000  0.10600  1.0000
  S   S3        1.0  0.26700  0.25000  0.21400  1.0000
  S   S4        1.0  0.76700  0.25000  0.28600  1.0000
  S   S5        1.0  0.48700  0.75000  0.39400  1.0000
  S   S6        1.0  0.17300  0.25000  0.49300  1.0000
  S   S7        1.0  0.82700  0.75000  0.50700  1.0000
  S   S8        1.0  0.51300  0.25000  0.60600  1.0000
  S   S9        1.0  0.23300  0.75000  0.71400  1.0000
  S   S10       1.0  0.73300  0.75000  0.78600  1.0000
  S   S11       1.0  0.01340  0.25000  0.89400  1.0000
  S   S12       1.0  0.32700  0.75000  0.99300  1.0000
  Sn  Sn1       1.0  0.45500  0.75000  0.16900  1.0000
  Sn  Sn2       1.0  0.95500  0.75000  0.33100  1.0000
  Sn  Sn3       1.0  0.04450  0.25000  0.66900  1.0000
  Sn  Sn4       1.0  0.54500  0.25000  0.83100  1.0000
