data_image0
_chemical_formula_structural       B4Cs2Nb2O12
_chemical_formula_sum              "B4 Cs2 Nb2 O12"
_cell_length_a       7.5771
_cell_length_b       3.96621
_cell_length_c       9.77937
_cell_angle_alpha    90
_cell_angle_beta     90
_cell_angle_gamma    90

_space_group_name_H-M_alt    "P 1"
_space_group_IT_number       1

loop_
  _space_group_symop_operation_xyz
  'x, y, z'

loop_
  _atom_site_type_symbol
  _atom_site_label
  _atom_site_symmetry_multiplicity
  _atom_site_fract_x
  _atom_site_fract_y
  _atom_site_fract_z
  _atom_site_occupancy
  B   B1        1.0  0.16300  0.51100  0.28400  1.0000
  B   B2        1.0  0.83700  0.51100  0.28400  1.0000
  B   B3        1.0  0.33700  0.48900  0.78400  1.0000
  B   B4        1.0  0.66300  0.48900  0.78400  1.0000
  Cs  Cs1       1.0  0.50000  0.96700  0.10400  1.0000
  Cs  Cs2       1.0  0.00000  0.03250  0.60400  1.0000
  Nb  Nb1       1.0  0.50000  0.61700  0.49600  1.0000
  Nb  Nb2       1.0  0.00000  0.38300  0.99600  1.0000
  O   O1        1.0  0.18000  0.43400  0.14900  1.0000
  O   O2        1.0  0.82000  0.43400  0.14900  1.0000
  O   O3        1.0  0.00000  0.53200  0.35000  1.0000
  O   O4        1.0  0.30800  0.57500  0.36000  1.0000
  O   O5        1.0  0.69200  0.57500  0.36000  1.0000
  O   O6        1.0  0.50000  0.07800  0.49600  1.0000
  O   O7        1.0  0.32000  0.56600  0.64900  1.0000
  O   O8        1.0  0.68000  0.56600  0.64900  1.0000
  O   O9        1.0  0.50000  0.46800  0.85000  1.0000
  O   O10       1.0  0.19200  0.42500  0.86000  1.0000
  O   O11       1.0  0.80800  0.42500  0.86000  1.0000
  O   O12       1.0  0.00000  0.92200  0.99600  1.0000
