data_image0
_chemical_formula_structural       Hg4K8S8
_chemical_formula_sum              "Hg4 K8 S8"
_cell_length_a       10.8115
_cell_length_b       8.09354
_cell_length_c       7.29049
_cell_angle_alpha    90
_cell_angle_beta     90
_cell_angle_gamma    90

_space_group_name_H-M_alt    "P 1"
_space_group_IT_number       1

loop_
  _space_group_symop_operation_xyz
  'x, y, z'

loop_
  _atom_site_type_symbol
  _atom_site_label
  _atom_site_symmetry_multiplicity
  _atom_site_fract_x
  _atom_site_fract_y
  _atom_site_fract_z
  _atom_site_occupancy
  Hg  Hg1       1.0  0.28500  0.16400  0.25000  1.0000
  Hg  Hg2       1.0  0.71500  0.66400  0.25000  1.0000
  Hg  Hg3       1.0  0.28500  0.33600  0.75000  1.0000
  Hg  Hg4       1.0  0.71500  0.83600  0.75000  1.0000
  K   K1        1.0  0.60400  0.25000  0.00000  1.0000
  K   K2        1.0  0.39600  0.75000  0.00000  1.0000
  K   K3        1.0  0.88800  0.04860  0.25000  1.0000
  K   K4        1.0  0.11200  0.54900  0.25000  1.0000
  K   K5        1.0  0.60400  0.25000  0.50000  1.0000
  K   K6        1.0  0.39600  0.75000  0.50000  1.0000
  K   K7        1.0  0.88800  0.45100  0.75000  1.0000
  K   K8        1.0  0.11200  0.95100  0.75000  1.0000
  S   S1        1.0  0.39400  0.41600  0.25000  1.0000
  S   S2        1.0  0.83500  0.42300  0.25000  1.0000
  S   S3        1.0  0.60600  0.91600  0.25000  1.0000
  S   S4        1.0  0.16500  0.92300  0.25000  1.0000
  S   S5        1.0  0.83500  0.07690  0.75000  1.0000
  S   S6        1.0  0.39400  0.08440  0.75000  1.0000
  S   S7        1.0  0.16500  0.57700  0.75000  1.0000
  S   S8        1.0  0.60600  0.58400  0.75000  1.0000
