data_image0
_chemical_formula_structural       Fe2S12Ti6
_chemical_formula_sum              "Fe2 S12 Ti6"
_cell_length_a       5.91866
_cell_length_b       5.91878
_cell_length_c       11.5229
_cell_angle_alpha    90.0005
_cell_angle_beta     89.9998
_cell_angle_gamma    120.001

_space_group_name_H-M_alt    "P 1"
_space_group_IT_number       1

loop_
  _space_group_symop_operation_xyz
  'x, y, z'

loop_
  _atom_site_type_symbol
  _atom_site_label
  _atom_site_symmetry_multiplicity
  _atom_site_fract_x
  _atom_site_fract_y
  _atom_site_fract_z
  _atom_site_occupancy
  Fe  Fe1       1.0  0.00000  0.00000  0.00000  1.0000
  Fe  Fe2       1.0  1.00000  1.00000  0.50000  1.0000
  S   S1        1.0  0.00051  0.33300  0.12500  1.0000
  S   S2        1.0  0.66700  0.66800  0.12500  1.0000
  S   S3        1.0  0.33200  0.99900  0.12500  1.0000
  S   S4        1.0  0.33200  0.33300  0.37500  1.0000
  S   S5        1.0  0.66700  0.00000  0.37500  1.0000
  S   S6        1.0  0.00051  0.66800  0.37500  1.0000
  S   S7        1.0  0.99900  0.33200  0.62500  1.0000
  S   S8        1.0  0.33300  0.00049  0.62500  1.0000
  S   S9        1.0  0.66800  0.66700  0.62500  1.0000
  S   S10       1.0  0.66800  0.00050  0.87500  1.0000
  S   S11       1.0  0.33300  0.33200  0.87500  1.0000
  S   S12       1.0  0.99900  0.66700  0.87500  1.0000
  Ti  Ti1       1.0  0.66700  0.33300  0.00010  1.0000
  Ti  Ti2       1.0  0.33300  0.66700  0.25000  1.0000
  Ti  Ti3       1.0  0.66700  0.33300  0.50000  1.0000
  Ti  Ti4       1.0  0.33300  0.66700  0.50000  1.0000
  Ti  Ti5       1.0  0.66700  0.33300  0.75000  1.0000
  Ti  Ti6       1.0  0.33300  0.66700  0.00000  1.0000
