data_image0
_chemical_formula_structural       K8O8Pb4
_chemical_formula_sum              "K8 O8 Pb4"
_cell_length_a       10.8589
_cell_length_b       7.54178
_cell_length_c       7.3421
_cell_angle_alpha    119.689
_cell_angle_beta     88.4898
_cell_angle_gamma    117.731

_space_group_name_H-M_alt    "P 1"
_space_group_IT_number       1

loop_
  _space_group_symop_operation_xyz
  'x, y, z'

loop_
  _atom_site_type_symbol
  _atom_site_label
  _atom_site_symmetry_multiplicity
  _atom_site_fract_x
  _atom_site_fract_y
  _atom_site_fract_z
  _atom_site_occupancy
  K   K1        1.0  0.82400  0.75600  0.00841  1.0000
  K   K2        1.0  0.86300  0.29300  0.03430  1.0000
  K   K3        1.0  0.16900  0.71800  0.48300  1.0000
  K   K4        1.0  0.49300  0.22300  0.49100  1.0000
  K   K5        1.0  0.50700  0.77700  0.50900  1.0000
  K   K6        1.0  0.83100  0.28200  0.51700  1.0000
  K   K7        1.0  0.13700  0.70700  0.96600  1.0000
  K   K8        1.0  0.17600  0.24400  0.99200  1.0000
  O   O1        1.0  0.63400  0.15300  0.18500  1.0000
  O   O2        1.0  0.35000  0.74700  0.21100  1.0000
  O   O3        1.0  0.01940  0.23700  0.27500  1.0000
  O   O4        1.0  0.99300  0.78800  0.29300  1.0000
  O   O5        1.0  0.00715  0.21200  0.70700  1.0000
  O   O6        1.0  0.98100  0.76300  0.72500  1.0000
  O   O7        1.0  0.65000  0.25300  0.78900  1.0000
  O   O8        1.0  0.36600  0.84700  0.81500  1.0000
  Pb  Pb1       1.0  0.52400  0.24500  0.01680  1.0000
  Pb  Pb2       1.0  0.13700  0.19600  0.46300  1.0000
  Pb  Pb3       1.0  0.86300  0.80400  0.53700  1.0000
  Pb  Pb4       1.0  0.47600  0.75500  0.98300  1.0000
