data_image0
_chemical_formula_structural       Ba4Rh8Si8
_chemical_formula_sum              "Ba4 Rh8 Si8"
_cell_length_a       7.97641
_cell_length_b       6.75828
_cell_length_c       7.74222
_cell_angle_alpha    90
_cell_angle_beta     91.4591
_cell_angle_gamma    90

_space_group_name_H-M_alt    "P 1"
_space_group_IT_number       1

loop_
  _space_group_symop_operation_xyz
  'x, y, z'

loop_
  _atom_site_type_symbol
  _atom_site_label
  _atom_site_symmetry_multiplicity
  _atom_site_fract_x
  _atom_site_fract_y
  _atom_site_fract_z
  _atom_site_occupancy
  Ba  Ba1       1.0  0.76300  0.38300  0.00272  1.0000
  Ba  Ba2       1.0  0.23700  0.88300  0.49700  1.0000
  Ba  Ba3       1.0  0.76300  0.11700  0.50300  1.0000
  Ba  Ba4       1.0  0.23700  0.61700  0.99700  1.0000
  Rh  Rh1       1.0  0.62200  0.89700  0.11300  1.0000
  Rh  Rh2       1.0  0.13800  0.16800  0.17200  1.0000
  Rh  Rh3       1.0  0.86200  0.66800  0.32800  1.0000
  Rh  Rh4       1.0  0.37800  0.39700  0.38700  1.0000
  Rh  Rh5       1.0  0.62200  0.60300  0.61300  1.0000
  Rh  Rh6       1.0  0.13800  0.33200  0.67200  1.0000
  Rh  Rh7       1.0  0.86200  0.83200  0.82800  1.0000
  Rh  Rh8       1.0  0.37800  0.10300  0.88700  1.0000
  Si  Si1       1.0  0.92500  0.92200  0.12800  1.0000
  Si  Si2       1.0  0.43600  0.15000  0.18600  1.0000
  Si  Si3       1.0  0.56400  0.65000  0.31400  1.0000
  Si  Si4       1.0  0.07460  0.42200  0.37200  1.0000
  Si  Si5       1.0  0.92500  0.57800  0.62800  1.0000
  Si  Si6       1.0  0.43600  0.35000  0.68600  1.0000
  Si  Si7       1.0  0.56400  0.85000  0.81400  1.0000
  Si  Si8       1.0  0.07460  0.07840  0.87200  1.0000
