data_image0
_chemical_formula_structural       Cl12Cs4In2Li2
_chemical_formula_sum              "Cl12 Cs4 In2 Li2"
_cell_length_a       7.36175
_cell_length_b       7.36175
_cell_length_c       12.8905
_cell_angle_alpha    106.592
_cell_angle_beta     106.592
_cell_angle_gamma    60

_space_group_name_H-M_alt    "P 1"
_space_group_IT_number       1

loop_
  _space_group_symop_operation_xyz
  'x, y, z'

loop_
  _atom_site_type_symbol
  _atom_site_label
  _atom_site_symmetry_multiplicity
  _atom_site_fract_x
  _atom_site_fract_y
  _atom_site_fract_z
  _atom_site_occupancy
  Cl  Cl1       1.0  0.20300  0.20300  0.12100  1.0000
  Cl  Cl2       1.0  0.71400  0.20300  0.12100  1.0000
  Cl  Cl3       1.0  0.20300  0.71400  0.12100  1.0000
  Cl  Cl4       1.0  0.61600  0.14100  0.37400  1.0000
  Cl  Cl5       1.0  0.14100  0.61600  0.37400  1.0000
  Cl  Cl6       1.0  0.61600  0.61600  0.37400  1.0000
  Cl  Cl7       1.0  0.38400  0.38400  0.62600  1.0000
  Cl  Cl8       1.0  0.85900  0.38400  0.62600  1.0000
  Cl  Cl9       1.0  0.38400  0.85900  0.62600  1.0000
  Cl  Cl10      1.0  0.79700  0.28600  0.87900  1.0000
  Cl  Cl11      1.0  0.28600  0.79700  0.87900  1.0000
  Cl  Cl12      1.0  0.79700  0.79700  0.87900  1.0000
  Cs  Cs1       1.0  0.71000  0.71000  0.13000  1.0000
  Cs  Cs2       1.0  0.12600  0.12600  0.37800  1.0000
  Cs  Cs3       1.0  0.87400  0.87400  0.62200  1.0000
  Cs  Cs4       1.0  0.29000  0.29000  0.87000  1.0000
  In  In1       1.0  0.00000  0.00000  0.00000  1.0000
  In  In2       1.0  0.50000  0.50000  0.50000  1.0000
  Li  Li1       1.0  0.41300  0.41300  0.23900  1.0000
  Li  Li2       1.0  0.58700  0.58700  0.76100  1.0000
