data_image0
_chemical_formula_structural       F14Mn2Rb2Zr2
_chemical_formula_sum              "F14 Mn2 Rb2 Zr2"
_cell_length_a       6.31127
_cell_length_b       8.17422
_cell_length_c       6.31144
_cell_angle_alpha    90
_cell_angle_beta     117.23
_cell_angle_gamma    90

_space_group_name_H-M_alt    "P 1"
_space_group_IT_number       1

loop_
  _space_group_symop_operation_xyz
  'x, y, z'

loop_
  _atom_site_type_symbol
  _atom_site_label
  _atom_site_symmetry_multiplicity
  _atom_site_fract_x
  _atom_site_fract_y
  _atom_site_fract_z
  _atom_site_occupancy
  F   F1        1.0  0.49900  0.25000  0.00459  1.0000
  F   F2        1.0  0.94300  0.75000  0.16400  1.0000
  F   F3        1.0  0.96300  0.25000  0.16900  1.0000
  F   F4        1.0  0.29500  0.00207  0.20600  1.0000
  F   F5        1.0  0.29500  0.49800  0.20600  1.0000
  F   F6        1.0  0.66600  0.25000  0.44600  1.0000
  F   F7        1.0  0.66800  0.75000  0.46100  1.0000
  F   F8        1.0  0.33200  0.25000  0.53900  1.0000
  F   F9        1.0  0.33400  0.75000  0.55400  1.0000
  F   F10       1.0  0.70500  0.50200  0.79400  1.0000
  F   F11       1.0  0.70500  0.99800  0.79400  1.0000
  F   F12       1.0  0.03730  0.75000  0.83100  1.0000
  F   F13       1.0  0.05690  0.25000  0.83600  1.0000
  F   F14       1.0  0.50100  0.75000  0.99500  1.0000
  Mn  Mn1       1.0  0.30700  0.75000  0.19100  1.0000
  Mn  Mn2       1.0  0.69300  0.25000  0.80900  1.0000
  Rb  Rb1       1.0  0.00000  0.00000  0.50000  1.0000
  Rb  Rb2       1.0  0.00000  0.50000  0.50000  1.0000
  Zr  Zr1       1.0  0.30900  0.25000  0.19400  1.0000
  Zr  Zr2       1.0  0.69100  0.75000  0.80600  1.0000
