data_image0
_chemical_formula_structural       B6Eu2O12
_chemical_formula_sum              "B6 Eu2 O12"
_cell_length_a       6.24634
_cell_length_b       6.31354
_cell_length_c       6.31354
_cell_angle_alpha    99.9688
_cell_angle_beta     116.731
_cell_angle_gamma    63.2686

_space_group_name_H-M_alt    "P 1"
_space_group_IT_number       1

loop_
  _space_group_symop_operation_xyz
  'x, y, z'

loop_
  _atom_site_type_symbol
  _atom_site_label
  _atom_site_symmetry_multiplicity
  _atom_site_fract_x
  _atom_site_fract_y
  _atom_site_fract_z
  _atom_site_occupancy
  B   B1        1.0  0.41600  0.65400  0.21100  1.0000
  B   B2        1.0  0.75000  0.21700  0.21700  1.0000
  B   B3        1.0  0.91600  0.78900  0.34600  1.0000
  B   B4        1.0  0.08410  0.21100  0.65400  1.0000
  B   B5        1.0  0.25000  0.78300  0.78300  1.0000
  B   B6        1.0  0.58400  0.34600  0.78900  1.0000
  Eu  Eu1       1.0  0.25000  0.19000  0.19000  1.0000
  Eu  Eu2       1.0  0.75000  0.81000  0.81000  1.0000
  O   O1        1.0  0.21600  0.78300  0.00036  1.0000
  O   O2        1.0  0.50800  0.41100  0.21200  1.0000
  O   O3        1.0  0.71600  0.00000  0.21700  1.0000
  O   O4        1.0  0.00100  0.60200  0.22300  1.0000
  O   O5        1.0  0.50100  0.77700  0.39800  1.0000
  O   O6        1.0  0.99200  0.21200  0.41100  1.0000
  O   O7        1.0  0.00807  0.78800  0.58900  1.0000
  O   O8        1.0  0.49900  0.22300  0.60200  1.0000
  O   O9        1.0  0.99900  0.39800  0.77700  1.0000
  O   O10       1.0  0.28400  0.00036  0.78300  1.0000
  O   O11       1.0  0.49200  0.58900  0.78800  1.0000
  O   O12       1.0  0.78400  0.21700  0.00000  1.0000
