data_image0
_chemical_formula_structural       Mn3Nb6O11
_chemical_formula_sum              "Mn3 Nb6 O11"
_cell_length_a       6.10814
_cell_length_b       6.10804
_cell_length_c       7.67
_cell_angle_alpha    90
_cell_angle_beta     89.9996
_cell_angle_gamma    119.999

_space_group_name_H-M_alt    "P 1"
_space_group_IT_number       1

loop_
  _space_group_symop_operation_xyz
  'x, y, z'

loop_
  _atom_site_type_symbol
  _atom_site_label
  _atom_site_symmetry_multiplicity
  _atom_site_fract_x
  _atom_site_fract_y
  _atom_site_fract_z
  _atom_site_occupancy
  Mn  Mn1       1.0  0.66700  0.33300  0.43100  1.0000
  Mn  Mn2       1.0  1.00000  1.00000  0.50000  1.0000
  Mn  Mn3       1.0  0.33300  0.66700  0.56900  1.0000
  Nb  Nb1       1.0  0.69100  0.84500  0.14900  1.0000
  Nb  Nb2       1.0  0.15500  0.84500  0.14900  1.0000
  Nb  Nb3       1.0  0.15500  0.30900  0.14900  1.0000
  Nb  Nb4       1.0  0.84500  0.69100  0.85100  1.0000
  Nb  Nb5       1.0  0.84500  0.15500  0.85100  1.0000
  Nb  Nb6       1.0  0.30900  0.15500  0.85100  1.0000
  O   O1        1.0  0.00000  0.50000  1.00000  1.0000
  O   O2        1.0  0.50000  0.50000  1.00000  1.0000
  O   O3        1.0  0.50000  0.00000  1.00000  1.0000
  O   O4        1.0  0.33300  0.66700  0.30400  1.0000
  O   O5        1.0  0.31400  0.15700  0.31700  1.0000
  O   O6        1.0  0.84300  0.68600  0.31700  1.0000
  O   O7        1.0  0.84300  0.15700  0.31700  1.0000
  O   O8        1.0  0.15700  0.31400  0.68300  1.0000
  O   O9        1.0  0.15700  0.84300  0.68300  1.0000
  O   O10       1.0  0.68600  0.84300  0.68300  1.0000
  O   O11       1.0  0.66700  0.33300  0.69600  1.0000
