data_image0
_chemical_formula_structural       C8Pr8Re4
_chemical_formula_sum              "C8 Pr8 Re4"
_cell_length_a       6.73186
_cell_length_b       5.40244
_cell_length_c       10.2753
_cell_angle_alpha    90
_cell_angle_beta     90
_cell_angle_gamma    90

_space_group_name_H-M_alt    "P 1"
_space_group_IT_number       1

loop_
  _space_group_symop_operation_xyz
  'x, y, z'

loop_
  _atom_site_type_symbol
  _atom_site_label
  _atom_site_symmetry_multiplicity
  _atom_site_fract_x
  _atom_site_fract_y
  _atom_site_fract_z
  _atom_site_occupancy
  C   C1        1.0  0.81200  0.75000  0.03610  1.0000
  C   C2        1.0  0.53200  0.25000  0.24200  1.0000
  C   C3        1.0  0.03180  0.25000  0.25800  1.0000
  C   C4        1.0  0.31200  0.75000  0.46400  1.0000
  C   C5        1.0  0.68800  0.25000  0.53600  1.0000
  C   C6        1.0  0.96800  0.75000  0.74200  1.0000
  C   C7        1.0  0.46800  0.75000  0.75800  1.0000
  C   C8        1.0  0.18800  0.25000  0.96400  1.0000
  Pr  Pr1       1.0  0.81000  0.25000  0.05000  1.0000
  Pr  Pr2       1.0  0.52400  0.75000  0.21400  1.0000
  Pr  Pr3       1.0  0.02440  0.75000  0.28600  1.0000
  Pr  Pr4       1.0  0.31000  0.25000  0.45000  1.0000
  Pr  Pr5       1.0  0.69000  0.75000  0.55000  1.0000
  Pr  Pr6       1.0  0.97600  0.25000  0.71400  1.0000
  Pr  Pr7       1.0  0.47600  0.25000  0.78600  1.0000
  Pr  Pr8       1.0  0.19000  0.75000  0.95000  1.0000
  Re  Re1       1.0  0.26800  0.25000  0.14300  1.0000
  Re  Re2       1.0  0.76800  0.25000  0.35700  1.0000
  Re  Re3       1.0  0.23200  0.75000  0.64300  1.0000
  Re  Re4       1.0  0.73200  0.75000  0.85700  1.0000
