data_image0
_chemical_formula_structural       Ga4La4O4Se8
_chemical_formula_sum              "Ga4 La4 O4 Se8"
_cell_length_a       5.95972
_cell_length_b       5.97194
_cell_length_c       12.3421
_cell_angle_alpha    90
_cell_angle_beta     90
_cell_angle_gamma    90

_space_group_name_H-M_alt    "P 1"
_space_group_IT_number       1

loop_
  _space_group_symop_operation_xyz
  'x, y, z'

loop_
  _atom_site_type_symbol
  _atom_site_label
  _atom_site_symmetry_multiplicity
  _atom_site_fract_x
  _atom_site_fract_y
  _atom_site_fract_z
  _atom_site_occupancy
  Ga  Ga1       1.0  0.65700  0.07690  0.39800  1.0000
  Ga  Ga2       1.0  0.15700  0.42300  0.39800  1.0000
  Ga  Ga3       1.0  0.65700  0.57700  0.60200  1.0000
  Ga  Ga4       1.0  0.15700  0.92300  0.60200  1.0000
  La  La1       1.0  0.25700  0.00289  0.09590  1.0000
  La  La2       1.0  0.75700  0.49700  0.09590  1.0000
  La  La3       1.0  0.25700  0.50300  0.90400  1.0000
  La  La4       1.0  0.75700  0.99700  0.90400  1.0000
  O   O1        1.0  0.50200  0.75000  0.00133  1.0000
  O   O2        1.0  0.00231  0.75000  0.00133  1.0000
  O   O3        1.0  0.50200  0.25000  0.99900  1.0000
  O   O4        1.0  0.00231  0.25000  0.99900  1.0000
  Se  Se1       1.0  0.25500  0.50700  0.21900  1.0000
  Se  Se2       1.0  0.75500  0.99300  0.21900  1.0000
  Se  Se3       1.0  0.24800  0.02120  0.41300  1.0000
  Se  Se4       1.0  0.74800  0.47900  0.41300  1.0000
  Se  Se5       1.0  0.24800  0.52100  0.58700  1.0000
  Se  Se6       1.0  0.74800  0.97900  0.58700  1.0000
  Se  Se7       1.0  0.25500  0.00711  0.78100  1.0000
  Se  Se8       1.0  0.75500  0.49300  0.78100  1.0000
