data_image0
_chemical_formula_structural       K8O10U2
_chemical_formula_sum              "K8 O10 U2"
_cell_length_a       6.42763
_cell_length_b       9.70005
_cell_length_c       6.40841
_cell_angle_alpha    101.428
_cell_angle_beta     102.448
_cell_angle_gamma    108.674

_space_group_name_H-M_alt    "P 1"
_space_group_IT_number       1

loop_
  _space_group_symop_operation_xyz
  'x, y, z'

loop_
  _atom_site_type_symbol
  _atom_site_label
  _atom_site_symmetry_multiplicity
  _atom_site_fract_x
  _atom_site_fract_y
  _atom_site_fract_z
  _atom_site_occupancy
  K   K1        1.0  1.00000  0.50000  1.00000  1.0000
  K   K2        1.0  0.42700  0.90400  0.21000  1.0000
  K   K3        1.0  0.59800  0.59500  0.29400  1.0000
  K   K4        1.0  0.80000  0.30400  0.42000  1.0000
  K   K5        1.0  0.00000  0.00000  0.50000  1.0000
  K   K6        1.0  0.20000  0.69600  0.58000  1.0000
  K   K7        1.0  0.40200  0.40500  0.70600  1.0000
  K   K8        1.0  0.57300  0.09610  0.79000  1.0000
  O   O1        1.0  0.50900  0.30900  0.06140  1.0000
  O   O2        1.0  0.85100  0.03590  0.10600  1.0000
  O   O3        1.0  0.97600  0.76400  0.17600  1.0000
  O   O4        1.0  0.17800  0.39500  0.30200  1.0000
  O   O5        1.0  0.35700  0.15800  0.38000  1.0000
  O   O6        1.0  0.64300  0.84200  0.62000  1.0000
  O   O7        1.0  0.82200  0.60500  0.69800  1.0000
  O   O8        1.0  0.02410  0.23600  0.82400  1.0000
  O   O9        1.0  0.14900  0.96400  0.89400  1.0000
  O   O10       1.0  0.49100  0.69100  0.93900  1.0000
  U   U1        1.0  0.19000  0.19700  0.10200  1.0000
  U   U2        1.0  0.81000  0.80300  0.89800  1.0000
