data_image0
_chemical_formula_structural       S12Sn2Ta6
_chemical_formula_sum              "S12 Sn2 Ta6"
_cell_length_a       5.79215
_cell_length_b       5.79215
_cell_length_c       14.6419
_cell_angle_alpha    90
_cell_angle_beta     90
_cell_angle_gamma    120

_space_group_name_H-M_alt    "P 1"
_space_group_IT_number       1

loop_
  _space_group_symop_operation_xyz
  'x, y, z'

loop_
  _atom_site_type_symbol
  _atom_site_label
  _atom_site_symmetry_multiplicity
  _atom_site_fract_x
  _atom_site_fract_y
  _atom_site_fract_z
  _atom_site_occupancy
  S   S1        1.0  0.66400  0.00001  0.10700  1.0000
  S   S2        1.0  0.00001  0.66400  0.10700  1.0000
  S   S3        1.0  0.33600  0.33600  0.10700  1.0000
  S   S4        1.0  0.66400  0.66400  0.39300  1.0000
  S   S5        1.0  0.33600  0.99999  0.39300  1.0000
  S   S6        1.0  0.99999  0.33600  0.39300  1.0000
  S   S7        1.0  0.33600  0.99999  0.60700  1.0000
  S   S8        1.0  0.99999  0.33600  0.60700  1.0000
  S   S9        1.0  0.66400  0.66400  0.60700  1.0000
  S   S10       1.0  0.33600  0.33600  0.89300  1.0000
  S   S11       1.0  0.66400  0.00001  0.89300  1.0000
  S   S12       1.0  0.00001  0.66400  0.89300  1.0000
  Sn  Sn1       1.0  0.00000  0.00000  0.25000  1.0000
  Sn  Sn2       1.0  0.00000  0.00000  0.75000  1.0000
  Ta  Ta1       1.0  0.00001  0.00001  0.00000  1.0000
  Ta  Ta2       1.0  0.66700  0.33300  0.00000  1.0000
  Ta  Ta3       1.0  0.33300  0.66700  0.00000  1.0000
  Ta  Ta4       1.0  0.99999  0.99999  0.50000  1.0000
  Ta  Ta5       1.0  0.66700  0.33300  0.50000  1.0000
  Ta  Ta6       1.0  0.33300  0.66700  0.50000  1.0000
