data_image0
_chemical_formula_structural       Rh6Si10Y4
_chemical_formula_sum              "Rh6 Si10 Y4"
_cell_length_a       5.70183
_cell_length_b       8.11456
_cell_length_c       8.11456
_cell_angle_alpha    93.4472
_cell_angle_beta     108.919
_cell_angle_gamma    108.919

_space_group_name_H-M_alt    "P 1"
_space_group_IT_number       1

loop_
  _space_group_symop_operation_xyz
  'x, y, z'

loop_
  _atom_site_type_symbol
  _atom_site_label
  _atom_site_symmetry_multiplicity
  _atom_site_fract_x
  _atom_site_fract_y
  _atom_site_fract_z
  _atom_site_occupancy
  Rh  Rh1       1.0  0.25000  0.99800  0.00152  1.0000
  Rh  Rh2       1.0  0.37400  0.54000  0.26000  1.0000
  Rh  Rh3       1.0  0.12600  0.74000  0.46000  1.0000
  Rh  Rh4       1.0  0.87400  0.26000  0.54000  1.0000
  Rh  Rh5       1.0  0.62600  0.46000  0.74000  1.0000
  Rh  Rh6       1.0  0.75000  0.00152  0.99800  1.0000
  Si  Si1       1.0  0.16100  0.26600  0.05810  1.0000
  Si  Si2       1.0  0.25000  0.79000  0.21000  1.0000
  Si  Si3       1.0  0.75000  0.77600  0.22400  1.0000
  Si  Si4       1.0  0.66100  0.05810  0.26600  1.0000
  Si  Si5       1.0  0.75000  0.51200  0.48800  1.0000
  Si  Si6       1.0  0.25000  0.48800  0.51200  1.0000
  Si  Si7       1.0  0.33900  0.94200  0.73400  1.0000
  Si  Si8       1.0  0.25000  0.22400  0.77600  1.0000
  Si  Si9       1.0  0.75000  0.21000  0.79000  1.0000
  Si  Si10      1.0  0.83900  0.73400  0.94200  1.0000
  Y   Y1        1.0  0.76000  0.40100  0.13300  1.0000
  Y   Y2        1.0  0.26000  0.13300  0.40100  1.0000
  Y   Y3        1.0  0.74000  0.86700  0.59900  1.0000
  Y   Y4        1.0  0.24000  0.59900  0.86700  1.0000
