data_image0
_chemical_formula_structural       Bi2Nd2O12Sr4
_chemical_formula_sum              "Bi2 Nd2 O12 Sr4"
_cell_length_a       5.94825
_cell_length_b       6.1235
_cell_length_c       8.50588
_cell_angle_alpha    90
_cell_angle_beta     90.2908
_cell_angle_gamma    90

_space_group_name_H-M_alt    "P 1"
_space_group_IT_number       1

loop_
  _space_group_symop_operation_xyz
  'x, y, z'

loop_
  _atom_site_type_symbol
  _atom_site_label
  _atom_site_symmetry_multiplicity
  _atom_site_fract_x
  _atom_site_fract_y
  _atom_site_fract_z
  _atom_site_occupancy
  Bi  Bi1       1.0  0.00000  0.00000  0.00000  1.0000
  Bi  Bi2       1.0  0.50000  0.50000  0.50000  1.0000
  Nd  Nd1       1.0  0.50000  0.50000  1.00000  1.0000
  Nd  Nd2       1.0  0.00000  0.00000  0.50000  1.0000
  O   O1        1.0  0.28800  0.80900  0.05300  1.0000
  O   O2        1.0  0.18500  0.28700  0.05860  1.0000
  O   O3        1.0  0.89400  0.95700  0.23700  1.0000
  O   O4        1.0  0.60600  0.45700  0.26300  1.0000
  O   O5        1.0  0.31500  0.78700  0.44100  1.0000
  O   O6        1.0  0.21200  0.30900  0.44700  1.0000
  O   O7        1.0  0.78800  0.69100  0.55300  1.0000
  O   O8        1.0  0.68500  0.21300  0.55900  1.0000
  O   O9        1.0  0.39400  0.54300  0.73700  1.0000
  O   O10       1.0  0.10600  0.04310  0.76300  1.0000
  O   O11       1.0  0.81500  0.71300  0.94100  1.0000
  O   O12       1.0  0.71200  0.19100  0.94700  1.0000
  Sr  Sr1       1.0  0.48700  0.04910  0.24900  1.0000
  Sr  Sr2       1.0  0.01340  0.54900  0.25100  1.0000
  Sr  Sr3       1.0  0.98700  0.45100  0.74900  1.0000
  Sr  Sr4       1.0  0.51300  0.95100  0.75100  1.0000
