data_image0
_chemical_formula_structural       C4I8O4Pt4
_chemical_formula_sum              "C4 I8 O4 Pt4"
_cell_length_a       7.09293
_cell_length_b       7.09293
_cell_length_c       12.8678
_cell_angle_alpha    101.212
_cell_angle_beta     104.898
_cell_angle_gamma    100.418

_space_group_name_H-M_alt    "P 1"
_space_group_IT_number       1

loop_
  _space_group_symop_operation_xyz
  'x, y, z'

loop_
  _atom_site_type_symbol
  _atom_site_label
  _atom_site_symmetry_multiplicity
  _atom_site_fract_x
  _atom_site_fract_y
  _atom_site_fract_z
  _atom_site_occupancy
  C   C1        1.0  0.79900  0.41000  0.08710  1.0000
  C   C2        1.0  0.82300  0.71200  0.41300  1.0000
  C   C3        1.0  0.17700  0.28800  0.58700  1.0000
  C   C4        1.0  0.20100  0.59000  0.91300  1.0000
  I   I1        1.0  0.26200  0.05240  0.07590  1.0000
  I   I2        1.0  0.26600  0.55800  0.22800  1.0000
  I   I3        1.0  0.83000  0.03850  0.27200  1.0000
  I   I4        1.0  0.47600  0.18700  0.42400  1.0000
  I   I5        1.0  0.52400  0.81300  0.57600  1.0000
  I   I6        1.0  0.17000  0.96200  0.72800  1.0000
  I   I7        1.0  0.73400  0.44200  0.77200  1.0000
  I   I8        1.0  0.73800  0.94800  0.92400  1.0000
  O   O1        1.0  0.68400  0.50400  0.09370  1.0000
  O   O2        1.0  0.91100  0.59000  0.40600  1.0000
  O   O3        1.0  0.08930  0.41000  0.59400  1.0000
  O   O4        1.0  0.31600  0.49600  0.90600  1.0000
  Pt  Pt1       1.0  0.98700  0.26000  0.08020  1.0000
  Pt  Pt2       1.0  0.68000  0.90700  0.42000  1.0000
  Pt  Pt3       1.0  0.32000  0.09290  0.58000  1.0000
  Pt  Pt4       1.0  0.01270  0.74000  0.92000  1.0000
