data_image0
_chemical_formula_structural       Cu2Pb6Y10
_chemical_formula_sum              "Cu2 Pb6 Y10"
_cell_length_a       9.55551
_cell_length_b       9.55551
_cell_length_c       7.04564
_cell_angle_alpha    90
_cell_angle_beta     90
_cell_angle_gamma    120.099

_space_group_name_H-M_alt    "P 1"
_space_group_IT_number       1

loop_
  _space_group_symop_operation_xyz
  'x, y, z'

loop_
  _atom_site_type_symbol
  _atom_site_label
  _atom_site_symmetry_multiplicity
  _atom_site_fract_x
  _atom_site_fract_y
  _atom_site_fract_z
  _atom_site_occupancy
  Cu  Cu1       1.0  1.00000  1.00000  0.00003  1.0000
  Cu  Cu2       1.0  0.00000  0.00000  0.50000  1.0000
  Pb  Pb1       1.0  0.60900  0.99993  0.25000  1.0000
  Pb  Pb2       1.0  0.99993  0.60900  0.25000  1.0000
  Pb  Pb3       1.0  0.39100  0.39100  0.25000  1.0000
  Pb  Pb4       1.0  0.39100  0.00007  0.75000  1.0000
  Pb  Pb5       1.0  0.00007  0.39100  0.75000  1.0000
  Pb  Pb6       1.0  0.60900  0.60900  0.75000  1.0000
  Y   Y1        1.0  0.66700  0.33300  0.00010  1.0000
  Y   Y2        1.0  0.33300  0.66700  0.00010  1.0000
  Y   Y3        1.0  0.74900  0.74900  0.25000  1.0000
  Y   Y4        1.0  0.25100  0.00001  0.25000  1.0000
  Y   Y5        1.0  0.00001  0.25100  0.25000  1.0000
  Y   Y6        1.0  0.66700  0.33300  0.50000  1.0000
  Y   Y7        1.0  0.33300  0.66700  0.50000  1.0000
  Y   Y8        1.0  0.25100  0.25100  0.75000  1.0000
  Y   Y9        1.0  0.74900  0.99999  0.75000  1.0000
  Y   Y10       1.0  0.99999  0.74900  0.75000  1.0000
