data_image0
_chemical_formula_structural       In2Li2O12Si4
_chemical_formula_sum              "In2 Li2 O12 Si4"
_cell_length_a       5.39449
_cell_length_b       6.6691
_cell_length_c       6.6691
_cell_angle_alpha    94.6057
_cell_angle_beta     104.812
_cell_angle_gamma    75.1879

_space_group_name_H-M_alt    "P 1"
_space_group_IT_number       1

loop_
  _space_group_symop_operation_xyz
  'x, y, z'

loop_
  _atom_site_type_symbol
  _atom_site_label
  _atom_site_symmetry_multiplicity
  _atom_site_fract_x
  _atom_site_fract_y
  _atom_site_fract_z
  _atom_site_occupancy
  In  In1       1.0  0.75000  0.10700  0.10700  1.0000
  In  In2       1.0  0.25000  0.89300  0.89300  1.0000
  Li  Li1       1.0  0.25000  0.24800  0.24800  1.0000
  Li  Li2       1.0  0.75000  0.75200  0.75200  1.0000
  O   O1        1.0  0.66600  0.79300  0.03770  1.0000
  O   O2        1.0  0.87100  0.38300  0.12500  1.0000
  O   O3        1.0  0.16600  0.96200  0.20700  1.0000
  O   O4        1.0  0.54700  0.62400  0.33700  1.0000
  O   O5        1.0  0.04750  0.66300  0.37600  1.0000
  O   O6        1.0  0.62900  0.12500  0.38300  1.0000
  O   O7        1.0  0.37100  0.87500  0.61700  1.0000
  O   O8        1.0  0.95300  0.33700  0.62400  1.0000
  O   O9        1.0  0.45300  0.37600  0.66300  1.0000
  O   O10       1.0  0.83400  0.03770  0.79300  1.0000
  O   O11       1.0  0.12900  0.61700  0.87500  1.0000
  O   O12       1.0  0.33400  0.20700  0.96200  1.0000
  Si  Si1       1.0  0.78200  0.61200  0.21600  1.0000
  Si  Si2       1.0  0.28200  0.78400  0.38800  1.0000
  Si  Si3       1.0  0.71800  0.21600  0.61200  1.0000
  Si  Si4       1.0  0.21800  0.38800  0.78400  1.0000
