data_image0
_chemical_formula_structural       Ba4Ga8Pt8
_chemical_formula_sum              "Ba4 Ga8 Pt8"
_cell_length_a       8.60384
_cell_length_b       6.57756
_cell_length_c       8.30969
_cell_angle_alpha    90
_cell_angle_beta     96.1783
_cell_angle_gamma    90

_space_group_name_H-M_alt    "P 1"
_space_group_IT_number       1

loop_
  _space_group_symop_operation_xyz
  'x, y, z'

loop_
  _atom_site_type_symbol
  _atom_site_label
  _atom_site_symmetry_multiplicity
  _atom_site_fract_x
  _atom_site_fract_y
  _atom_site_fract_z
  _atom_site_occupancy
  Ba  Ba1       1.0  0.23300  0.61100  0.00180  1.0000
  Ba  Ba2       1.0  0.76700  0.11100  0.49800  1.0000
  Ba  Ba3       1.0  0.23300  0.88900  0.50200  1.0000
  Ba  Ba4       1.0  0.76700  0.38900  0.99800  1.0000
  Ga  Ga1       1.0  0.92800  0.92200  0.12900  1.0000
  Ga  Ga2       1.0  0.44500  0.15300  0.19500  1.0000
  Ga  Ga3       1.0  0.55500  0.65300  0.30500  1.0000
  Ga  Ga4       1.0  0.07210  0.42200  0.37100  1.0000
  Ga  Ga5       1.0  0.92800  0.57800  0.62900  1.0000
  Ga  Ga6       1.0  0.44500  0.34700  0.69500  1.0000
  Ga  Ga7       1.0  0.55500  0.84700  0.80500  1.0000
  Ga  Ga8       1.0  0.07210  0.07790  0.87100  1.0000
  Pt  Pt1       1.0  0.62900  0.90100  0.10300  1.0000
  Pt  Pt2       1.0  0.14800  0.16900  0.17200  1.0000
  Pt  Pt3       1.0  0.85200  0.66900  0.32800  1.0000
  Pt  Pt4       1.0  0.37100  0.40100  0.39700  1.0000
  Pt  Pt5       1.0  0.62900  0.59900  0.60300  1.0000
  Pt  Pt6       1.0  0.14800  0.33100  0.67200  1.0000
  Pt  Pt7       1.0  0.85200  0.83100  0.82800  1.0000
  Pt  Pt8       1.0  0.37100  0.09870  0.89700  1.0000
