data_image0
_chemical_formula_structural       O4S8Sb8
_chemical_formula_sum              "O4 S8 Sb8"
_cell_length_a       8.17106
_cell_length_b       10.8013
_cell_length_c       5.84904
_cell_angle_alpha    103.04
_cell_angle_beta     110.434
_cell_angle_gamma    100.905

_space_group_name_H-M_alt    "P 1"
_space_group_IT_number       1

loop_
  _space_group_symop_operation_xyz
  'x, y, z'

loop_
  _atom_site_type_symbol
  _atom_site_label
  _atom_site_symmetry_multiplicity
  _atom_site_fract_x
  _atom_site_fract_y
  _atom_site_fract_z
  _atom_site_occupancy
  O   O1        1.0  0.89900  0.56800  0.03560  1.0000
  O   O2        1.0  0.41400  0.57100  0.07690  1.0000
  O   O3        1.0  0.58600  0.42900  0.92300  1.0000
  O   O4        1.0  0.10100  0.43200  0.96400  1.0000
  S   S1        1.0  0.52400  0.91300  0.22600  1.0000
  S   S2        1.0  0.04660  0.91200  0.22600  1.0000
  S   S3        1.0  0.70500  0.30200  0.47600  1.0000
  S   S4        1.0  0.18900  0.29400  0.49600  1.0000
  S   S5        1.0  0.81100  0.70600  0.50400  1.0000
  S   S6        1.0  0.29500  0.69800  0.52400  1.0000
  S   S7        1.0  0.95300  0.08770  0.77400  1.0000
  S   S8        1.0  0.47600  0.08690  0.77400  1.0000
  Sb  Sb1       1.0  0.66200  0.63200  0.01900  1.0000
  Sb  Sb2       1.0  0.17000  0.63400  0.04210  1.0000
  Sb  Sb3       1.0  0.35300  0.09590  0.33100  1.0000
  Sb  Sb4       1.0  0.86900  0.13200  0.35700  1.0000
  Sb  Sb5       1.0  0.13100  0.86800  0.64300  1.0000
  Sb  Sb6       1.0  0.64700  0.90400  0.66900  1.0000
  Sb  Sb7       1.0  0.83000  0.36600  0.95800  1.0000
  Sb  Sb8       1.0  0.33800  0.36800  0.98100  1.0000
