data_image0
_chemical_formula_structural       Nb6Pb2S12
_chemical_formula_sum              "Nb6 Pb2 S12"
_cell_length_a       5.83733
_cell_length_b       5.83733
_cell_length_c       14.9091
_cell_angle_alpha    90
_cell_angle_beta     90
_cell_angle_gamma    119.993

_space_group_name_H-M_alt    "P 1"
_space_group_IT_number       1

loop_
  _space_group_symop_operation_xyz
  'x, y, z'

loop_
  _atom_site_type_symbol
  _atom_site_label
  _atom_site_symmetry_multiplicity
  _atom_site_fract_x
  _atom_site_fract_y
  _atom_site_fract_z
  _atom_site_occupancy
  Nb  Nb1       1.0  0.66700  0.33300  0.00000  1.0000
  Nb  Nb2       1.0  0.33300  0.66700  0.00000  1.0000
  Nb  Nb3       1.0  0.00000  0.00000  0.00000  1.0000
  Nb  Nb4       1.0  0.00012  0.00012  0.50000  1.0000
  Nb  Nb5       1.0  0.66700  0.33300  0.50000  1.0000
  Nb  Nb6       1.0  0.33300  0.66700  0.50000  1.0000
  Pb  Pb1       1.0  0.00000  0.00000  0.25000  1.0000
  Pb  Pb2       1.0  0.00000  0.00000  0.75000  1.0000
  S   S1        1.0  0.66300  0.00004  0.10500  1.0000
  S   S2        1.0  0.00004  0.66300  0.10500  1.0000
  S   S3        1.0  0.33700  0.33700  0.10500  1.0000
  S   S4        1.0  0.66300  0.66300  0.39500  1.0000
  S   S5        1.0  0.33700  0.99996  0.39500  1.0000
  S   S6        1.0  0.99996  0.33700  0.39500  1.0000
  S   S7        1.0  0.33700  0.99996  0.60500  1.0000
  S   S8        1.0  0.99996  0.33700  0.60500  1.0000
  S   S9        1.0  0.66300  0.66300  0.60500  1.0000
  S   S10       1.0  0.33700  0.33700  0.89500  1.0000
  S   S11       1.0  0.66300  0.00004  0.89500  1.0000
  S   S12       1.0  0.00004  0.66300  0.89500  1.0000
