data_image0
_chemical_formula_structural       Ba12Ge4O4
_chemical_formula_sum              "Ba12 Ge4 O4"
_cell_length_a       7.69512
_cell_length_b       10.82
_cell_length_c       7.58281
_cell_angle_alpha    90
_cell_angle_beta     90
_cell_angle_gamma    90

_space_group_name_H-M_alt    "P 1"
_space_group_IT_number       1

loop_
  _space_group_symop_operation_xyz
  'x, y, z'

loop_
  _atom_site_type_symbol
  _atom_site_label
  _atom_site_symmetry_multiplicity
  _atom_site_fract_x
  _atom_site_fract_y
  _atom_site_fract_z
  _atom_site_occupancy
  Ba  Ba1       1.0  0.98100  0.75000  0.07870  1.0000
  Ba  Ba2       1.0  0.71500  0.04110  0.21300  1.0000
  Ba  Ba3       1.0  0.71500  0.45900  0.21300  1.0000
  Ba  Ba4       1.0  0.21500  0.04110  0.28700  1.0000
  Ba  Ba5       1.0  0.21500  0.45900  0.28700  1.0000
  Ba  Ba6       1.0  0.48100  0.75000  0.42100  1.0000
  Ba  Ba7       1.0  0.51900  0.25000  0.57900  1.0000
  Ba  Ba8       1.0  0.78500  0.54100  0.71300  1.0000
  Ba  Ba9       1.0  0.78500  0.95900  0.71300  1.0000
  Ba  Ba10      1.0  0.28500  0.54100  0.78700  1.0000
  Ba  Ba11      1.0  0.28500  0.95900  0.78700  1.0000
  Ba  Ba12      1.0  0.01890  0.25000  0.92100  1.0000
  Ge  Ge1       1.0  0.46600  0.25000  0.01140  1.0000
  Ge  Ge2       1.0  0.96600  0.25000  0.48900  1.0000
  Ge  Ge3       1.0  0.03420  0.75000  0.51100  1.0000
  Ge  Ge4       1.0  0.53400  0.75000  0.98900  1.0000
  O   O1        1.0  0.00000  0.00000  0.00000  1.0000
  O   O2        1.0  0.00000  0.50000  0.00000  1.0000
  O   O3        1.0  0.50000  0.00000  0.50000  1.0000
  O   O4        1.0  0.50000  0.50000  0.50000  1.0000
