data_image0
_chemical_formula_structural       Ce4In8Pt8
_chemical_formula_sum              "Ce4 In8 Pt8"
_cell_length_a       10.3406
_cell_length_b       4.53649
_cell_length_c       10.3533
_cell_angle_alpha    90
_cell_angle_beta     116.97
_cell_angle_gamma    90

_space_group_name_H-M_alt    "P 1"
_space_group_IT_number       1

loop_
  _space_group_symop_operation_xyz
  'x, y, z'

loop_
  _atom_site_type_symbol
  _atom_site_label
  _atom_site_symmetry_multiplicity
  _atom_site_fract_x
  _atom_site_fract_y
  _atom_site_fract_z
  _atom_site_occupancy
  Ce  Ce1       1.0  0.95200  0.75000  0.21100  1.0000
  Ce  Ce2       1.0  0.59700  0.75000  0.28900  1.0000
  Ce  Ce3       1.0  0.40300  0.25000  0.71100  1.0000
  Ce  Ce4       1.0  0.04830  0.25000  0.78900  1.0000
  In  In1       1.0  0.40500  0.25000  0.04050  1.0000
  In  In2       1.0  0.22600  0.75000  0.10300  1.0000
  In  In3       1.0  0.88000  0.25000  0.42400  1.0000
  In  In4       1.0  0.35400  0.75000  0.44700  1.0000
  In  In5       1.0  0.64600  0.25000  0.55300  1.0000
  In  In6       1.0  0.12000  0.75000  0.57600  1.0000
  In  In7       1.0  0.77400  0.25000  0.89700  1.0000
  In  In8       1.0  0.59500  0.75000  0.95900  1.0000
  Pt  Pt1       1.0  0.07200  0.25000  0.10000  1.0000
  Pt  Pt2       1.0  0.70300  0.25000  0.13000  1.0000
  Pt  Pt3       1.0  0.37400  0.25000  0.29800  1.0000
  Pt  Pt4       1.0  0.15600  0.25000  0.41800  1.0000
  Pt  Pt5       1.0  0.84400  0.75000  0.58200  1.0000
  Pt  Pt6       1.0  0.62600  0.75000  0.70200  1.0000
  Pt  Pt7       1.0  0.29700  0.75000  0.87000  1.0000
  Pt  Pt8       1.0  0.92800  0.75000  0.90000  1.0000
