data_image0
_chemical_formula_structural       As2Cu8K2S8
_chemical_formula_sum              "As2 Cu8 K2 S8"
_cell_length_a       6.5756
_cell_length_b       6.40967
_cell_length_c       9.59215
_cell_angle_alpha    90
_cell_angle_beta     103.048
_cell_angle_gamma    90

_space_group_name_H-M_alt    "P 1"
_space_group_IT_number       1

loop_
  _space_group_symop_operation_xyz
  'x, y, z'

loop_
  _atom_site_type_symbol
  _atom_site_label
  _atom_site_symmetry_multiplicity
  _atom_site_fract_x
  _atom_site_fract_y
  _atom_site_fract_z
  _atom_site_occupancy
  As  As1       1.0  0.20000  0.11600  0.25400  1.0000
  As  As2       1.0  0.80000  0.61600  0.74600  1.0000
  Cu  Cu1       1.0  0.07740  0.59300  0.12400  1.0000
  Cu  Cu2       1.0  0.63600  0.46500  0.39100  1.0000
  Cu  Cu3       1.0  0.29300  0.61600  0.44600  1.0000
  Cu  Cu4       1.0  0.02040  0.32600  0.48500  1.0000
  Cu  Cu5       1.0  0.98000  0.82600  0.51500  1.0000
  Cu  Cu6       1.0  0.70700  0.11600  0.55400  1.0000
  Cu  Cu7       1.0  0.36400  0.96500  0.60900  1.0000
  Cu  Cu8       1.0  0.92300  0.09290  0.87600  1.0000
  K   K1        1.0  0.67600  0.97800  0.13700  1.0000
  K   K2        1.0  0.32400  0.47800  0.86300  1.0000
  S   S1        1.0  0.16000  0.91500  0.05020  1.0000
  S   S2        1.0  0.38600  0.38500  0.19200  1.0000
  S   S3        1.0  0.93700  0.59500  0.33900  1.0000
  S   S4        1.0  0.46600  0.91700  0.39700  1.0000
  S   S5        1.0  0.53400  0.41700  0.60300  1.0000
  S   S6        1.0  0.06330  0.09550  0.66100  1.0000
  S   S7        1.0  0.61400  0.88500  0.80800  1.0000
  S   S8        1.0  0.84000  0.41500  0.95000  1.0000
