data_image0
_chemical_formula_structural       Ba4Ir8Si8
_chemical_formula_sum              "Ba4 Ir8 Si8"
_cell_length_a       7.98193
_cell_length_b       6.76037
_cell_length_c       7.79545
_cell_angle_alpha    90
_cell_angle_beta     91.9377
_cell_angle_gamma    90

_space_group_name_H-M_alt    "P 1"
_space_group_IT_number       1

loop_
  _space_group_symop_operation_xyz
  'x, y, z'

loop_
  _atom_site_type_symbol
  _atom_site_label
  _atom_site_symmetry_multiplicity
  _atom_site_fract_x
  _atom_site_fract_y
  _atom_site_fract_z
  _atom_site_occupancy
  Ba  Ba1       1.0  0.76500  0.38100  0.00120  1.0000
  Ba  Ba2       1.0  0.23500  0.88100  0.49900  1.0000
  Ba  Ba3       1.0  0.76500  0.11900  0.50100  1.0000
  Ba  Ba4       1.0  0.23500  0.61900  0.99900  1.0000
  Ir  Ir1       1.0  0.62100  0.89500  0.11300  1.0000
  Ir  Ir2       1.0  0.13800  0.16700  0.17000  1.0000
  Ir  Ir3       1.0  0.86200  0.66700  0.33000  1.0000
  Ir  Ir4       1.0  0.37900  0.39500  0.38700  1.0000
  Ir  Ir5       1.0  0.62100  0.60500  0.61300  1.0000
  Ir  Ir6       1.0  0.13800  0.33300  0.67000  1.0000
  Ir  Ir7       1.0  0.86200  0.83300  0.83000  1.0000
  Ir  Ir8       1.0  0.37900  0.10500  0.88700  1.0000
  Si  Si1       1.0  0.92700  0.91900  0.12900  1.0000
  Si  Si2       1.0  0.43700  0.14800  0.18700  1.0000
  Si  Si3       1.0  0.56300  0.64800  0.31300  1.0000
  Si  Si4       1.0  0.07340  0.41900  0.37100  1.0000
  Si  Si5       1.0  0.92700  0.58100  0.62900  1.0000
  Si  Si6       1.0  0.43700  0.35200  0.68700  1.0000
  Si  Si7       1.0  0.56300  0.85200  0.81300  1.0000
  Si  Si8       1.0  0.07340  0.08100  0.87100  1.0000
