data_image0
_chemical_formula_structural       Cr2Li2O12Si4
_chemical_formula_sum              "Cr2 Li2 O12 Si4"
_cell_length_a       5.28766
_cell_length_b       6.43301
_cell_length_c       6.43301
_cell_angle_alpha    96.3735
_cell_angle_beta     104.982
_cell_angle_gamma    75.0179

_space_group_name_H-M_alt    "P 1"
_space_group_IT_number       1

loop_
  _space_group_symop_operation_xyz
  'x, y, z'

loop_
  _atom_site_type_symbol
  _atom_site_label
  _atom_site_symmetry_multiplicity
  _atom_site_fract_x
  _atom_site_fract_y
  _atom_site_fract_z
  _atom_site_occupancy
  Cr  Cr1       1.0  0.75000  0.09030  0.09030  1.0000
  Cr  Cr2       1.0  0.25000  0.91000  0.91000  1.0000
  Li  Li1       1.0  0.25000  0.26600  0.26600  1.0000
  Li  Li2       1.0  0.75000  0.73400  0.73400  1.0000
  O   O1        1.0  0.64900  0.79700  0.02790  1.0000
  O   O2        1.0  0.83000  0.37000  0.10200  1.0000
  O   O3        1.0  0.14900  0.97200  0.20300  1.0000
  O   O4        1.0  0.05380  0.64000  0.36000  1.0000
  O   O5        1.0  0.55400  0.64000  0.36000  1.0000
  O   O6        1.0  0.67000  0.10200  0.37000  1.0000
  O   O7        1.0  0.33000  0.89800  0.63000  1.0000
  O   O8        1.0  0.44600  0.36000  0.64000  1.0000
  O   O9        1.0  0.94600  0.36000  0.64000  1.0000
  O   O10       1.0  0.85100  0.02790  0.79700  1.0000
  O   O11       1.0  0.17000  0.63000  0.89800  1.0000
  O   O12       1.0  0.35100  0.20300  0.97200  1.0000
  Si  Si1       1.0  0.76500  0.60900  0.20700  1.0000
  Si  Si2       1.0  0.26500  0.79300  0.39100  1.0000
  Si  Si3       1.0  0.73500  0.20700  0.60900  1.0000
  Si  Si4       1.0  0.23500  0.39100  0.79300  1.0000
