data_image0
_chemical_formula_structural       Ba4F12O2Ti2
_chemical_formula_sum              "Ba4 F12 O2 Ti2"
_cell_length_a       7.14604
_cell_length_b       7.26114
_cell_length_c       7.26114
_cell_angle_alpha    101.644
_cell_angle_beta     117.574
_cell_angle_gamma    62.4257

_space_group_name_H-M_alt    "P 1"
_space_group_IT_number       1

loop_
  _space_group_symop_operation_xyz
  'x, y, z'

loop_
  _atom_site_type_symbol
  _atom_site_label
  _atom_site_symmetry_multiplicity
  _atom_site_fract_x
  _atom_site_fract_y
  _atom_site_fract_z
  _atom_site_occupancy
  Ba  Ba1       1.0  0.50200  0.17000  0.17200  1.0000
  Ba  Ba2       1.0  0.15400  0.17700  0.58400  1.0000
  Ba  Ba3       1.0  0.65400  0.41600  0.82300  1.0000
  Ba  Ba4       1.0  0.00199  0.82800  0.83000  1.0000
  F   F1        1.0  0.48000  0.76700  0.04440  1.0000
  F   F2        1.0  0.94000  0.60500  0.05140  1.0000
  F   F3        1.0  0.98000  0.95600  0.23300  1.0000
  F   F4        1.0  0.77100  0.39400  0.23700  1.0000
  F   F5        1.0  0.44000  0.94900  0.39500  1.0000
  F   F6        1.0  0.26800  0.39400  0.43100  1.0000
  F   F7        1.0  0.78400  0.14900  0.55500  1.0000
  F   F8        1.0  0.76800  0.56900  0.60600  1.0000
  F   F9        1.0  0.27100  0.76300  0.60600  1.0000
  F   F10       1.0  0.60400  0.06520  0.84200  1.0000
  F   F11       1.0  0.28400  0.44500  0.85100  1.0000
  F   F12       1.0  0.10400  0.15800  0.93500  1.0000
  O   O1        1.0  0.36100  0.60400  0.26100  1.0000
  O   O2        1.0  0.86100  0.73900  0.39600  1.0000
  Ti  Ti1       1.0  0.59400  0.67100  0.32100  1.0000
  Ti  Ti2       1.0  0.09400  0.67900  0.32900  1.0000
