data_image0
_chemical_formula_structural       CCsEr6I12
_chemical_formula_sum              "C1 Cs1 Er6 I12"
_cell_length_a       9.52636
_cell_length_b       9.52636
_cell_length_c       9.52636
_cell_angle_alpha    72.9498
_cell_angle_beta     107.05
_cell_angle_gamma    107.05

_space_group_name_H-M_alt    "P 1"
_space_group_IT_number       1

loop_
  _space_group_symop_operation_xyz
  'x, y, z'

loop_
  _atom_site_type_symbol
  _atom_site_label
  _atom_site_symmetry_multiplicity
  _atom_site_fract_x
  _atom_site_fract_y
  _atom_site_fract_z
  _atom_site_occupancy
  C   C1        1.0  0.00000  0.00000  0.00000  1.0000
  Cs  Cs1       1.0  0.50000  0.50000  0.50000  1.0000
  Er  Er1       1.0  0.08780  0.26500  0.02960  1.0000
  Er  Er2       1.0  0.26500  0.97000  0.08780  1.0000
  Er  Er3       1.0  0.97000  0.91200  0.26500  1.0000
  Er  Er4       1.0  0.02960  0.08780  0.73500  1.0000
  Er  Er5       1.0  0.73500  0.02960  0.91200  1.0000
  Er  Er6       1.0  0.91200  0.73500  0.97000  1.0000
  I   I1        1.0  0.21100  0.63900  0.06830  1.0000
  I   I2        1.0  0.41900  0.28000  0.14500  1.0000
  I   I3        1.0  0.63900  0.93200  0.21100  1.0000
  I   I4        1.0  0.85500  0.58100  0.28000  1.0000
  I   I5        1.0  0.06830  0.21100  0.36100  1.0000
  I   I6        1.0  0.28000  0.85500  0.41900  1.0000
  I   I7        1.0  0.72000  0.14500  0.58100  1.0000
  I   I8        1.0  0.93200  0.78900  0.63900  1.0000
  I   I9        1.0  0.14500  0.41900  0.72000  1.0000
  I   I10       1.0  0.36100  0.06830  0.78900  1.0000
  I   I11       1.0  0.58100  0.72000  0.85500  1.0000
  I   I12       1.0  0.78900  0.36100  0.93200  1.0000
