data_image0
_chemical_formula_structural       Li2Na6O10W2
_chemical_formula_sum              "Li2 Na6 O10 W2"
_cell_length_a       7.8156
_cell_length_b       5.99566
_cell_length_c       5.61487
_cell_angle_alpha    106.552
_cell_angle_beta     115.198
_cell_angle_gamma    91.0965

_space_group_name_H-M_alt    "P 1"
_space_group_IT_number       1

loop_
  _space_group_symop_operation_xyz
  'x, y, z'

loop_
  _atom_site_type_symbol
  _atom_site_label
  _atom_site_symmetry_multiplicity
  _atom_site_fract_x
  _atom_site_fract_y
  _atom_site_fract_z
  _atom_site_occupancy
  Li  Li1       1.0  0.16000  0.64200  0.05070  1.0000
  Li  Li2       1.0  0.84000  0.35800  0.94900  1.0000
  Na  Na1       1.0  0.61400  0.44500  0.28500  1.0000
  Na  Na2       1.0  0.60200  0.95300  0.30300  1.0000
  Na  Na3       1.0  0.01020  0.74600  0.49200  1.0000
  Na  Na4       1.0  0.99000  0.25400  0.50800  1.0000
  Na  Na5       1.0  0.39800  0.04670  0.69700  1.0000
  Na  Na6       1.0  0.38600  0.55500  0.71500  1.0000
  O   O1        1.0  0.72300  0.12100  0.07300  1.0000
  O   O2        1.0  0.72500  0.66300  0.07870  1.0000
  O   O3        1.0  0.07810  0.95000  0.23100  1.0000
  O   O4        1.0  0.10800  0.42400  0.26500  1.0000
  O   O5        1.0  0.43900  0.23400  0.42800  1.0000
  O   O6        1.0  0.56100  0.76600  0.57200  1.0000
  O   O7        1.0  0.89200  0.57600  0.73500  1.0000
  O   O8        1.0  0.92200  0.04990  0.76900  1.0000
  O   O9        1.0  0.27500  0.33700  0.92100  1.0000
  O   O10       1.0  0.27700  0.87900  0.92700  1.0000
  W   W1        1.0  0.21000  0.16200  0.11100  1.0000
  W   W2        1.0  0.79000  0.83800  0.88900  1.0000
