data_image0
_chemical_formula_structural       Cl12Gd6N2
_chemical_formula_sum              "Cl12 Gd6 N2"
_cell_length_a       7.12191
_cell_length_b       8.20005
_cell_length_c       9.85898
_cell_angle_alpha    75.8342
_cell_angle_beta     108.965
_cell_angle_gamma    114.452

_space_group_name_H-M_alt    "P 1"
_space_group_IT_number       1

loop_
  _space_group_symop_operation_xyz
  'x, y, z'

loop_
  _atom_site_type_symbol
  _atom_site_label
  _atom_site_symmetry_multiplicity
  _atom_site_fract_x
  _atom_site_fract_y
  _atom_site_fract_z
  _atom_site_occupancy
  Cl  Cl1       1.0  0.30500  0.41700  0.09310  1.0000
  Cl  Cl2       1.0  0.71700  0.89400  0.09590  1.0000
  Cl  Cl3       1.0  0.82400  0.28000  0.20700  1.0000
  Cl  Cl4       1.0  0.16700  0.73900  0.21400  1.0000
  Cl  Cl5       1.0  0.46400  0.17500  0.39600  1.0000
  Cl  Cl6       1.0  1.00000  1.00000  0.50000  1.0000
  Cl  Cl7       1.0  0.00000  0.50000  0.50000  1.0000
  Cl  Cl8       1.0  0.53600  0.82500  0.60400  1.0000
  Cl  Cl9       1.0  0.83300  0.26100  0.78600  1.0000
  Cl  Cl10      1.0  0.17600  0.72000  0.79300  1.0000
  Cl  Cl11      1.0  0.28300  0.10600  0.90400  1.0000
  Cl  Cl12      1.0  0.69500  0.58300  0.90700  1.0000
  Gd  Gd1       1.0  0.71900  0.56900  0.22400  1.0000
  Gd  Gd2       1.0  0.59100  0.91100  0.31800  1.0000
  Gd  Gd3       1.0  0.26100  0.41800  0.37500  1.0000
  Gd  Gd4       1.0  0.73900  0.58200  0.62500  1.0000
  Gd  Gd5       1.0  0.40900  0.08930  0.68200  1.0000
  Gd  Gd6       1.0  0.28100  0.43100  0.77600  1.0000
  N   N1        1.0  0.59300  0.63000  0.38000  1.0000
  N   N2        1.0  0.40700  0.37000  0.62000  1.0000
