data_image0
_chemical_formula_structural       S12Sm8
_chemical_formula_sum              "S12 Sm8"
_cell_length_a       7.41709
_cell_length_b       3.99769
_cell_length_c       15.4501
_cell_angle_alpha    90
_cell_angle_beta     90
_cell_angle_gamma    90

_space_group_name_H-M_alt    "P 1"
_space_group_IT_number       1

loop_
  _space_group_symop_operation_xyz
  'x, y, z'

loop_
  _atom_site_type_symbol
  _atom_site_label
  _atom_site_symmetry_multiplicity
  _atom_site_fract_x
  _atom_site_fract_y
  _atom_site_fract_z
  _atom_site_occupancy
  S   S1        1.0  0.12500  0.75000  0.06720  1.0000
  S   S2        1.0  0.50800  0.25000  0.10900  1.0000
  S   S3        1.0  0.85200  0.75000  0.21900  1.0000
  S   S4        1.0  0.35200  0.75000  0.28100  1.0000
  S   S5        1.0  0.00827  0.25000  0.39100  1.0000
  S   S6        1.0  0.62500  0.75000  0.43300  1.0000
  S   S7        1.0  0.37500  0.25000  0.56700  1.0000
  S   S8        1.0  0.99200  0.75000  0.60900  1.0000
  S   S9        1.0  0.64800  0.25000  0.71900  1.0000
  S   S10       1.0  0.14800  0.25000  0.78100  1.0000
  S   S11       1.0  0.49200  0.75000  0.89100  1.0000
  S   S12       1.0  0.87500  0.25000  0.93300  1.0000
  Sm  Sm1       1.0  0.73400  0.75000  0.04360  1.0000
  Sm  Sm2       1.0  0.14200  0.25000  0.20400  1.0000
  Sm  Sm3       1.0  0.64200  0.25000  0.29600  1.0000
  Sm  Sm4       1.0  0.23400  0.75000  0.45600  1.0000
  Sm  Sm5       1.0  0.76600  0.25000  0.54400  1.0000
  Sm  Sm6       1.0  0.35800  0.75000  0.70400  1.0000
  Sm  Sm7       1.0  0.85800  0.75000  0.79600  1.0000
  Sm  Sm8       1.0  0.26600  0.25000  0.95600  1.0000
