data_image0
_chemical_formula_structural       CaFe3O12Ti4
_chemical_formula_sum              "Ca1 Fe3 O12 Ti4"
_cell_length_a       6.47502
_cell_length_b       6.47502
_cell_length_c       6.47502
_cell_angle_alpha    109.471
_cell_angle_beta     109.471
_cell_angle_gamma    109.471

_space_group_name_H-M_alt    "P 1"
_space_group_IT_number       1

loop_
  _space_group_symop_operation_xyz
  'x, y, z'

loop_
  _atom_site_type_symbol
  _atom_site_label
  _atom_site_symmetry_multiplicity
  _atom_site_fract_x
  _atom_site_fract_y
  _atom_site_fract_z
  _atom_site_occupancy
  Ca  Ca1       1.0  0.00000  0.00000  0.00000  1.0000
  Fe  Fe1       1.0  0.50000  0.50000  0.00000  1.0000
  Fe  Fe2       1.0  0.50000  0.00000  0.50000  1.0000
  Fe  Fe3       1.0  0.00000  0.50000  0.50000  1.0000
  O   O1        1.0  0.30100  0.81300  0.11400  1.0000
  O   O2        1.0  0.48800  0.30100  0.18700  1.0000
  O   O3        1.0  0.88600  0.69900  0.18700  1.0000
  O   O4        1.0  0.81300  0.11400  0.30100  1.0000
  O   O5        1.0  0.18700  0.48800  0.30100  1.0000
  O   O6        1.0  0.30100  0.18700  0.48800  1.0000
  O   O7        1.0  0.69900  0.81300  0.51200  1.0000
  O   O8        1.0  0.18700  0.88600  0.69900  1.0000
  O   O9        1.0  0.81300  0.51200  0.69900  1.0000
  O   O10       1.0  0.11400  0.30100  0.81300  1.0000
  O   O11       1.0  0.51200  0.69900  0.81300  1.0000
  O   O12       1.0  0.69900  0.18700  0.88600  1.0000
  Ti  Ti1       1.0  0.50000  0.00000  0.00000  1.0000
  Ti  Ti2       1.0  0.00000  0.50000  0.00000  1.0000
  Ti  Ti3       1.0  0.00000  0.00000  0.50000  1.0000
  Ti  Ti4       1.0  0.50000  0.50000  0.50000  1.0000
