data_image0
_chemical_formula_structural       La4Li2O12Sb2
_chemical_formula_sum              "La4 Li2 O12 Sb2"
_cell_length_a       5.61086
_cell_length_b       5.70903
_cell_length_c       7.9456
_cell_angle_alpha    90
_cell_angle_beta     90.185
_cell_angle_gamma    90

_space_group_name_H-M_alt    "P 1"
_space_group_IT_number       1

loop_
  _space_group_symop_operation_xyz
  'x, y, z'

loop_
  _atom_site_type_symbol
  _atom_site_label
  _atom_site_symmetry_multiplicity
  _atom_site_fract_x
  _atom_site_fract_y
  _atom_site_fract_z
  _atom_site_occupancy
  La  La1       1.0  0.51100  0.54500  0.24900  1.0000
  La  La2       1.0  0.98900  0.04470  0.25100  1.0000
  La  La3       1.0  0.01090  0.95500  0.74900  1.0000
  La  La4       1.0  0.48900  0.45500  0.75100  1.0000
  Li  Li1       1.0  0.50000  0.00000  0.00000  1.0000
  Li  Li2       1.0  0.00000  0.50000  0.50000  1.0000
  O   O1        1.0  0.71600  0.30000  0.04700  1.0000
  O   O2        1.0  0.80300  0.78400  0.05010  1.0000
  O   O3        1.0  0.09150  0.47400  0.24200  1.0000
  O   O4        1.0  0.40900  0.97400  0.25800  1.0000
  O   O5        1.0  0.69700  0.28400  0.45000  1.0000
  O   O6        1.0  0.78400  0.80000  0.45300  1.0000
  O   O7        1.0  0.21600  0.20000  0.54700  1.0000
  O   O8        1.0  0.30300  0.71600  0.55000  1.0000
  O   O9        1.0  0.59100  0.02610  0.74200  1.0000
  O   O10       1.0  0.90900  0.52600  0.75800  1.0000
  O   O11       1.0  0.19700  0.21600  0.95000  1.0000
  O   O12       1.0  0.28400  0.70000  0.95300  1.0000
  Sb  Sb1       1.0  0.00000  0.50000  0.00000  1.0000
  Sb  Sb2       1.0  0.50000  0.00000  0.50000  1.0000
