data_image0
_chemical_formula_structural       Ge2O14P4
_chemical_formula_sum              "Ge2 O14 P4"
_cell_length_a       7.70621
_cell_length_b       6.69791
_cell_length_c       4.65795
_cell_angle_alpha    105.772
_cell_angle_beta     92.8681
_cell_angle_gamma    91.3616

_space_group_name_H-M_alt    "P 1"
_space_group_IT_number       1

loop_
  _space_group_symop_operation_xyz
  'x, y, z'

loop_
  _atom_site_type_symbol
  _atom_site_label
  _atom_site_symmetry_multiplicity
  _atom_site_fract_x
  _atom_site_fract_y
  _atom_site_fract_z
  _atom_site_occupancy
  Ge  Ge1       1.0  0.00000  0.00000  0.00000  1.0000
  Ge  Ge2       1.0  0.50000  0.50000  0.50000  1.0000
  O   O1        1.0  0.88100  0.76100  0.04130  1.0000
  O   O2        1.0  0.44200  0.28900  0.15200  1.0000
  O   O3        1.0  0.19800  0.93700  0.19900  1.0000
  O   O4        1.0  0.68000  0.59200  0.30100  1.0000
  O   O5        1.0  0.63600  0.97000  0.30600  1.0000
  O   O6        1.0  0.92300  0.17300  0.36200  1.0000
  O   O7        1.0  0.34000  0.66500  0.36800  1.0000
  O   O8        1.0  0.66000  0.33500  0.63200  1.0000
  O   O9        1.0  0.07690  0.82700  0.63800  1.0000
  O   O10       1.0  0.36400  0.03050  0.69400  1.0000
  O   O11       1.0  0.32000  0.40800  0.69900  1.0000
  O   O12       1.0  0.80200  0.06290  0.80100  1.0000
  O   O13       1.0  0.55800  0.71100  0.84800  1.0000
  O   O14       1.0  0.11900  0.23900  0.95900  1.0000
  P   P1        1.0  0.69000  0.74500  0.11200  1.0000
  P   P2        1.0  0.23700  0.85800  0.47200  1.0000
  P   P3        1.0  0.76300  0.14200  0.52800  1.0000
  P   P4        1.0  0.31000  0.25500  0.88800  1.0000
