data_image0
_chemical_formula_structural       Ni8Ta4Te8
_chemical_formula_sum              "Ni8 Ta4 Te8"
_cell_length_a       6.47498
_cell_length_b       3.57675
_cell_length_c       17.3046
_cell_angle_alpha    90
_cell_angle_beta     90
_cell_angle_gamma    90

_space_group_name_H-M_alt    "P 1"
_space_group_IT_number       1

loop_
  _space_group_symop_operation_xyz
  'x, y, z'

loop_
  _atom_site_type_symbol
  _atom_site_label
  _atom_site_symmetry_multiplicity
  _atom_site_fract_x
  _atom_site_fract_y
  _atom_site_fract_z
  _atom_site_occupancy
  Ni  Ni1       1.0  0.71100  0.75000  0.18200  1.0000
  Ni  Ni2       1.0  0.10200  0.75000  0.18500  1.0000
  Ni  Ni3       1.0  0.60200  0.75000  0.31500  1.0000
  Ni  Ni4       1.0  0.21100  0.75000  0.31800  1.0000
  Ni  Ni5       1.0  0.78900  0.25000  0.68200  1.0000
  Ni  Ni6       1.0  0.39800  0.25000  0.68500  1.0000
  Ni  Ni7       1.0  0.89800  0.25000  0.81500  1.0000
  Ni  Ni8       1.0  0.28900  0.25000  0.81800  1.0000
  Ta  Ta1       1.0  0.40500  0.25000  0.22400  1.0000
  Ta  Ta2       1.0  0.90500  0.25000  0.27600  1.0000
  Ta  Ta3       1.0  0.09530  0.75000  0.72400  1.0000
  Ta  Ta4       1.0  0.59500  0.75000  0.77600  1.0000
  Te  Te1       1.0  0.40400  0.75000  0.09200  1.0000
  Te  Te2       1.0  0.90900  0.25000  0.10600  1.0000
  Te  Te3       1.0  0.40900  0.25000  0.39400  1.0000
  Te  Te4       1.0  0.90400  0.75000  0.40800  1.0000
  Te  Te5       1.0  0.09560  0.25000  0.59200  1.0000
  Te  Te6       1.0  0.59100  0.75000  0.60600  1.0000
  Te  Te7       1.0  0.09110  0.75000  0.89400  1.0000
  Te  Te8       1.0  0.59600  0.25000  0.90800  1.0000
