data_image0
_chemical_formula_structural       N8Pb4S8
_chemical_formula_sum              "N8 Pb4 S8"
_cell_length_a       4.35994
_cell_length_b       7.70544
_cell_length_c       12.3385
_cell_angle_alpha    90
_cell_angle_beta     90
_cell_angle_gamma    90

_space_group_name_H-M_alt    "P 1"
_space_group_IT_number       1

loop_
  _space_group_symop_operation_xyz
  'x, y, z'

loop_
  _atom_site_type_symbol
  _atom_site_label
  _atom_site_symmetry_multiplicity
  _atom_site_fract_x
  _atom_site_fract_y
  _atom_site_fract_z
  _atom_site_occupancy
  N   N1        1.0  0.01080  0.39700  0.01800  1.0000
  N   N2        1.0  0.33000  0.58200  0.16000  1.0000
  N   N3        1.0  0.67000  0.08230  0.34000  1.0000
  N   N4        1.0  0.98900  0.89700  0.48200  1.0000
  N   N5        1.0  0.48900  0.60300  0.51800  1.0000
  N   N6        1.0  0.17000  0.41800  0.66000  1.0000
  N   N7        1.0  0.83000  0.91800  0.84000  1.0000
  N   N8        1.0  0.51100  0.10300  0.98200  1.0000
  Pb  Pb1       1.0  0.11700  0.14200  0.12300  1.0000
  Pb  Pb2       1.0  0.88300  0.64200  0.37700  1.0000
  Pb  Pb3       1.0  0.38300  0.85800  0.62300  1.0000
  Pb  Pb4       1.0  0.61700  0.35800  0.87700  1.0000
  S   S1        1.0  0.11500  0.57800  0.05760  1.0000
  S   S2        1.0  0.43900  0.40300  0.22800  1.0000
  S   S3        1.0  0.56100  0.90300  0.27200  1.0000
  S   S4        1.0  0.88500  0.07820  0.44200  1.0000
  S   S5        1.0  0.38500  0.42200  0.55800  1.0000
  S   S6        1.0  0.06120  0.59700  0.72800  1.0000
  S   S7        1.0  0.93900  0.09740  0.77200  1.0000
  S   S8        1.0  0.61500  0.92200  0.94200  1.0000
