data_image0
_chemical_formula_structural       La6Mn2S10
_chemical_formula_sum              "La6 Mn2 S10"
_cell_length_a       8.08736
_cell_length_b       8.08736
_cell_length_c       6.72968
_cell_angle_alpha    90
_cell_angle_beta     90
_cell_angle_gamma    120.011

_space_group_name_H-M_alt    "P 1"
_space_group_IT_number       1

loop_
  _space_group_symop_operation_xyz
  'x, y, z'

loop_
  _atom_site_type_symbol
  _atom_site_label
  _atom_site_symmetry_multiplicity
  _atom_site_fract_x
  _atom_site_fract_y
  _atom_site_fract_z
  _atom_site_occupancy
  La  La1       1.0  0.60500  0.60500  0.25000  1.0000
  La  La2       1.0  0.39500  0.00018  0.25000  1.0000
  La  La3       1.0  0.00018  0.39500  0.25000  1.0000
  La  La4       1.0  0.39500  0.39500  0.75000  1.0000
  La  La5       1.0  0.00000  0.60500  0.75000  1.0000
  La  La6       1.0  0.60500  0.00000  0.75000  1.0000
  Mn  Mn1       1.0  0.00000  0.00000  0.00000  1.0000
  Mn  Mn2       1.0  1.00000  1.00000  0.50000  1.0000
  S   S1        1.0  0.66700  0.33300  1.00000  1.0000
  S   S2        1.0  0.33300  0.66700  1.00000  1.0000
  S   S3        1.0  0.77400  0.00006  0.25000  1.0000
  S   S4        1.0  0.00006  0.77400  0.25000  1.0000
  S   S5        1.0  0.22700  0.22700  0.25000  1.0000
  S   S6        1.0  0.66700  0.33300  0.50000  1.0000
  S   S7        1.0  0.33300  0.66700  0.50000  1.0000
  S   S8        1.0  0.22600  0.99994  0.75000  1.0000
  S   S9        1.0  0.99994  0.22600  0.75000  1.0000
  S   S10       1.0  0.77300  0.77300  0.75000  1.0000
