data_image0
_chemical_formula_structural       F12Na4Ni4
_chemical_formula_sum              "F12 Na4 Ni4"
_cell_length_a       5.25587
_cell_length_b       5.4769
_cell_length_c       7.55559
_cell_angle_alpha    90
_cell_angle_beta     90
_cell_angle_gamma    90

_space_group_name_H-M_alt    "P 1"
_space_group_IT_number       1

loop_
  _space_group_symop_operation_xyz
  'x, y, z'

loop_
  _atom_site_type_symbol
  _atom_site_label
  _atom_site_symmetry_multiplicity
  _atom_site_fract_x
  _atom_site_fract_y
  _atom_site_fract_z
  _atom_site_occupancy
  F   F1        1.0  0.68900  0.30500  0.05820  1.0000
  F   F2        1.0  0.81100  0.80500  0.05820  1.0000
  F   F3        1.0  0.11500  0.46100  0.25000  1.0000
  F   F4        1.0  0.38500  0.96100  0.25000  1.0000
  F   F5        1.0  0.68900  0.30500  0.44200  1.0000
  F   F6        1.0  0.81100  0.80500  0.44200  1.0000
  F   F7        1.0  0.18900  0.19500  0.55800  1.0000
  F   F8        1.0  0.31100  0.69500  0.55800  1.0000
  F   F9        1.0  0.61500  0.03880  0.75000  1.0000
  F   F10       1.0  0.88500  0.53900  0.75000  1.0000
  F   F11       1.0  0.18900  0.19500  0.94200  1.0000
  F   F12       1.0  0.31100  0.69500  0.94200  1.0000
  Na  Na1       1.0  0.98000  0.06780  0.25000  1.0000
  Na  Na2       1.0  0.52000  0.56800  0.25000  1.0000
  Na  Na3       1.0  0.48000  0.43200  0.75000  1.0000
  Na  Na4       1.0  0.01970  0.93200  0.75000  1.0000
  Ni  Ni1       1.0  0.50000  0.00000  0.00000  1.0000
  Ni  Ni2       1.0  0.00000  0.50000  0.00000  1.0000
  Ni  Ni3       1.0  0.50000  0.00000  0.50000  1.0000
  Ni  Ni4       1.0  0.00000  0.50000  0.50000  1.0000
