data_image0
_chemical_formula_structural       I8N8S4
_chemical_formula_sum              "I8 N8 S4"
_cell_length_a       6.60402
_cell_length_b       8.0266
_cell_length_c       11.3169
_cell_angle_alpha    74.0091
_cell_angle_beta     88.5897
_cell_angle_gamma    66.6603

_space_group_name_H-M_alt    "P 1"
_space_group_IT_number       1

loop_
  _space_group_symop_operation_xyz
  'x, y, z'

loop_
  _atom_site_type_symbol
  _atom_site_label
  _atom_site_symmetry_multiplicity
  _atom_site_fract_x
  _atom_site_fract_y
  _atom_site_fract_z
  _atom_site_occupancy
  I   I1        1.0  0.88100  0.73000  0.06030  1.0000
  I   I2        1.0  0.36500  0.83300  0.20800  1.0000
  I   I3        1.0  0.27900  0.30400  0.31600  1.0000
  I   I4        1.0  0.84900  0.93500  0.38000  1.0000
  I   I5        1.0  0.15100  0.06520  0.62000  1.0000
  I   I6        1.0  0.72100  0.69600  0.68400  1.0000
  I   I7        1.0  0.63500  0.16700  0.79200  1.0000
  I   I8        1.0  0.11900  0.27000  0.94000  1.0000
  N   N1        1.0  0.00556  0.14100  0.10500  1.0000
  N   N2        1.0  0.66200  0.17500  0.23700  1.0000
  N   N3        1.0  0.69500  0.62200  0.24200  1.0000
  N   N4        1.0  0.00114  0.34800  0.41700  1.0000
  N   N5        1.0  0.99900  0.65200  0.58300  1.0000
  N   N6        1.0  0.30500  0.37800  0.75800  1.0000
  N   N7        1.0  0.33800  0.82500  0.76300  1.0000
  N   N8        1.0  0.99400  0.85900  0.89500  1.0000
  S   S1        1.0  0.75500  0.25300  0.11600  1.0000
  S   S2        1.0  0.75600  0.48800  0.37900  1.0000
  S   S3        1.0  0.24400  0.51200  0.62100  1.0000
  S   S4        1.0  0.24500  0.74700  0.88400  1.0000
