data_image0
_chemical_formula_structural       Ge14Ir6
_chemical_formula_sum              "Ge14 Ir6"
_cell_length_a       7.6071
_cell_length_b       7.6071
_cell_length_c       7.6071
_cell_angle_alpha    109.471
_cell_angle_beta     109.471
_cell_angle_gamma    109.471

_space_group_name_H-M_alt    "P 1"
_space_group_IT_number       1

loop_
  _space_group_symop_operation_xyz
  'x, y, z'

loop_
  _atom_site_type_symbol
  _atom_site_label
  _atom_site_symmetry_multiplicity
  _atom_site_fract_x
  _atom_site_fract_y
  _atom_site_fract_z
  _atom_site_occupancy
  Ge  Ge1       1.0  0.33500  0.00000  0.00000  1.0000
  Ge  Ge2       1.0  0.66500  0.00000  0.00000  1.0000
  Ge  Ge3       1.0  0.00000  0.33500  0.00000  1.0000
  Ge  Ge4       1.0  0.00000  0.66500  0.00000  1.0000
  Ge  Ge5       1.0  0.75000  0.50000  0.25000  1.0000
  Ge  Ge6       1.0  0.50000  0.75000  0.25000  1.0000
  Ge  Ge7       1.0  0.00000  0.00000  0.33500  1.0000
  Ge  Ge8       1.0  0.33500  0.33500  0.33500  1.0000
  Ge  Ge9       1.0  0.75000  0.25000  0.50000  1.0000
  Ge  Ge10      1.0  0.25000  0.75000  0.50000  1.0000
  Ge  Ge11      1.0  0.00000  0.00000  0.66500  1.0000
  Ge  Ge12      1.0  0.66500  0.66500  0.66500  1.0000
  Ge  Ge13      1.0  0.50000  0.25000  0.75000  1.0000
  Ge  Ge14      1.0  0.25000  0.50000  0.75000  1.0000
  Ir  Ir1       1.0  0.34000  0.34000  0.00000  1.0000
  Ir  Ir2       1.0  0.66000  0.66000  0.00000  1.0000
  Ir  Ir3       1.0  0.34000  0.00000  0.34000  1.0000
  Ir  Ir4       1.0  0.00000  0.34000  0.34000  1.0000
  Ir  Ir5       1.0  0.66000  0.00000  0.66000  1.0000
  Ir  Ir6       1.0  0.00000  0.66000  0.66000  1.0000
