data_image0
_chemical_formula_structural       P4Pb4S12
_chemical_formula_sum              "P4 Pb4 S12"
_cell_length_a       9.4301
_cell_length_b       7.5493
_cell_length_c       6.73132
_cell_angle_alpha    90
_cell_angle_beta     91.7447
_cell_angle_gamma    90

_space_group_name_H-M_alt    "P 1"
_space_group_IT_number       1

loop_
  _space_group_symop_operation_xyz
  'x, y, z'

loop_
  _atom_site_type_symbol
  _atom_site_label
  _atom_site_symmetry_multiplicity
  _atom_site_fract_x
  _atom_site_fract_y
  _atom_site_fract_z
  _atom_site_occupancy
  P   P1        1.0  0.34500  0.36000  0.21100  1.0000
  P   P2        1.0  0.21300  0.14100  0.33800  1.0000
  P   P3        1.0  0.84500  0.64000  0.71100  1.0000
  P   P4        1.0  0.71300  0.85900  0.83800  1.0000
  Pb  Pb1       1.0  0.02780  0.63100  0.23900  1.0000
  Pb  Pb2       1.0  0.52900  0.87000  0.31000  1.0000
  Pb  Pb3       1.0  0.52800  0.36900  0.73900  1.0000
  Pb  Pb4       1.0  0.02850  0.13000  0.81000  1.0000
  S   S1        1.0  0.81600  0.94200  0.09120  1.0000
  S   S2        1.0  0.22100  0.94900  0.12500  1.0000
  S   S3        1.0  0.54000  0.25600  0.16800  1.0000
  S   S4        1.0  0.01850  0.24500  0.38000  1.0000
  S   S5        1.0  0.33800  0.55200  0.42500  1.0000
  S   S6        1.0  0.74100  0.55600  0.45900  1.0000
  S   S7        1.0  0.31600  0.05810  0.59100  1.0000
  S   S8        1.0  0.72100  0.05140  0.62500  1.0000
  S   S9        1.0  0.03950  0.74400  0.66800  1.0000
  S   S10       1.0  0.51800  0.75500  0.88000  1.0000
  S   S11       1.0  0.83800  0.44800  0.92500  1.0000
  S   S12       1.0  0.24100  0.44400  0.95900  1.0000
