data_image0
_chemical_formula_structural       Ba4Cu8Te8
_chemical_formula_sum              "Ba4 Cu8 Te8"
_cell_length_a       10.1332
_cell_length_b       4.46315
_cell_length_c       11.5428
_cell_angle_alpha    90
_cell_angle_beta     90
_cell_angle_gamma    90

_space_group_name_H-M_alt    "P 1"
_space_group_IT_number       1

loop_
  _space_group_symop_operation_xyz
  'x, y, z'

loop_
  _atom_site_type_symbol
  _atom_site_label
  _atom_site_symmetry_multiplicity
  _atom_site_fract_x
  _atom_site_fract_y
  _atom_site_fract_z
  _atom_site_occupancy
  Ba  Ba1       1.0  0.75900  0.75000  0.17800  1.0000
  Ba  Ba2       1.0  0.25900  0.75000  0.32200  1.0000
  Ba  Ba3       1.0  0.74100  0.25000  0.67800  1.0000
  Ba  Ba4       1.0  0.24100  0.25000  0.82200  1.0000
  Cu  Cu1       1.0  0.42600  0.75000  0.04440  1.0000
  Cu  Cu2       1.0  0.05660  0.25000  0.11200  1.0000
  Cu  Cu3       1.0  0.55700  0.25000  0.38800  1.0000
  Cu  Cu4       1.0  0.92600  0.75000  0.45600  1.0000
  Cu  Cu5       1.0  0.07370  0.25000  0.54400  1.0000
  Cu  Cu6       1.0  0.44300  0.75000  0.61200  1.0000
  Cu  Cu7       1.0  0.94300  0.75000  0.88800  1.0000
  Cu  Cu8       1.0  0.57400  0.25000  0.95600  1.0000
  Te  Te1       1.0  0.16100  0.75000  0.03770  1.0000
  Te  Te2       1.0  0.47700  0.25000  0.17000  1.0000
  Te  Te3       1.0  0.97700  0.25000  0.33000  1.0000
  Te  Te4       1.0  0.66100  0.75000  0.46200  1.0000
  Te  Te5       1.0  0.33900  0.25000  0.53800  1.0000
  Te  Te6       1.0  0.02270  0.75000  0.67000  1.0000
  Te  Te7       1.0  0.52300  0.75000  0.83000  1.0000
  Te  Te8       1.0  0.83900  0.25000  0.96200  1.0000
