data_image0
_chemical_formula_structural       Cr4S12Sb4
_chemical_formula_sum              "Cr4 S12 Sb4"
_cell_length_a       8.81531
_cell_length_b       3.65021
_cell_length_c       12.8066
_cell_angle_alpha    90
_cell_angle_beta     90
_cell_angle_gamma    90

_space_group_name_H-M_alt    "P 1"
_space_group_IT_number       1

loop_
  _space_group_symop_operation_xyz
  'x, y, z'

loop_
  _atom_site_type_symbol
  _atom_site_label
  _atom_site_symmetry_multiplicity
  _atom_site_fract_x
  _atom_site_fract_y
  _atom_site_fract_z
  _atom_site_occupancy
  Cr  Cr1       1.0  0.15700  0.25000  0.04430  1.0000
  Cr  Cr2       1.0  0.65700  0.25000  0.45600  1.0000
  Cr  Cr3       1.0  0.34300  0.75000  0.54400  1.0000
  Cr  Cr4       1.0  0.84300  0.75000  0.95600  1.0000
  S   S1        1.0  0.67300  0.25000  0.01240  1.0000
  S   S2        1.0  0.00236  0.75000  0.10500  1.0000
  S   S3        1.0  0.28800  0.25000  0.21000  1.0000
  S   S4        1.0  0.78800  0.25000  0.29000  1.0000
  S   S5        1.0  0.50200  0.75000  0.39500  1.0000
  S   S6        1.0  0.17300  0.25000  0.48800  1.0000
  S   S7        1.0  0.82700  0.75000  0.51200  1.0000
  S   S8        1.0  0.49800  0.25000  0.60500  1.0000
  S   S9        1.0  0.21200  0.75000  0.71000  1.0000
  S   S10       1.0  0.71200  0.75000  0.79000  1.0000
  S   S11       1.0  0.99800  0.25000  0.89500  1.0000
  S   S12       1.0  0.32700  0.75000  0.98800  1.0000
  Sb  Sb1       1.0  0.47600  0.75000  0.16100  1.0000
  Sb  Sb2       1.0  0.97600  0.75000  0.33900  1.0000
  Sb  Sb3       1.0  0.02410  0.25000  0.66100  1.0000
  Sb  Sb4       1.0  0.52400  0.25000  0.83900  1.0000
