data_image0
_chemical_formula_structural       C8Re4Y8
_chemical_formula_sum              "C8 Re4 Y8"
_cell_length_a       6.59053
_cell_length_b       5.11888
_cell_length_c       9.88237
_cell_angle_alpha    90
_cell_angle_beta     90
_cell_angle_gamma    90

_space_group_name_H-M_alt    "P 1"
_space_group_IT_number       1

loop_
  _space_group_symop_operation_xyz
  'x, y, z'

loop_
  _atom_site_type_symbol
  _atom_site_label
  _atom_site_symmetry_multiplicity
  _atom_site_fract_x
  _atom_site_fract_y
  _atom_site_fract_z
  _atom_site_occupancy
  C   C1        1.0  0.82200  0.75000  0.04870  1.0000
  C   C2        1.0  0.54400  0.25000  0.24000  1.0000
  C   C3        1.0  0.04430  0.25000  0.26000  1.0000
  C   C4        1.0  0.32200  0.75000  0.45100  1.0000
  C   C5        1.0  0.67800  0.25000  0.54900  1.0000
  C   C6        1.0  0.95600  0.75000  0.74000  1.0000
  C   C7        1.0  0.45600  0.75000  0.76000  1.0000
  C   C8        1.0  0.17800  0.25000  0.95100  1.0000
  Re  Re1       1.0  0.27800  0.25000  0.13500  1.0000
  Re  Re2       1.0  0.77800  0.25000  0.36500  1.0000
  Re  Re3       1.0  0.22200  0.75000  0.63500  1.0000
  Re  Re4       1.0  0.72200  0.75000  0.86500  1.0000
  Y   Y1        1.0  0.82000  0.25000  0.05570  1.0000
  Y   Y2        1.0  0.53200  0.75000  0.21600  1.0000
  Y   Y3        1.0  0.03180  0.75000  0.28400  1.0000
  Y   Y4        1.0  0.32000  0.25000  0.44400  1.0000
  Y   Y5        1.0  0.68000  0.75000  0.55600  1.0000
  Y   Y6        1.0  0.96800  0.25000  0.71600  1.0000
  Y   Y7        1.0  0.46800  0.25000  0.78400  1.0000
  Y   Y8        1.0  0.18000  0.75000  0.94400  1.0000
