data_image0
_chemical_formula_structural       Ag4O12P2V2
_chemical_formula_sum              "Ag4 O12 P2 V2"
_cell_length_a       6.29307
_cell_length_b       6.28071
_cell_length_c       6.90913
_cell_angle_alpha    90.438
_cell_angle_beta     117.092
_cell_angle_gamma    90

_space_group_name_H-M_alt    "P 1"
_space_group_IT_number       1

loop_
  _space_group_symop_operation_xyz
  'x, y, z'

loop_
  _atom_site_type_symbol
  _atom_site_label
  _atom_site_symmetry_multiplicity
  _atom_site_fract_x
  _atom_site_fract_y
  _atom_site_fract_z
  _atom_site_occupancy
  Ag  Ag1       1.0  0.36900  0.60900  0.24400  1.0000
  Ag  Ag2       1.0  0.87500  0.60900  0.24400  1.0000
  Ag  Ag3       1.0  0.12500  0.39100  0.75600  1.0000
  Ag  Ag4       1.0  0.63100  0.39100  0.75600  1.0000
  O   O1        1.0  0.51000  0.79200  0.01950  1.0000
  O   O2        1.0  0.08930  0.36000  0.17900  1.0000
  O   O3        1.0  0.31500  0.01430  0.23400  1.0000
  O   O4        1.0  0.91900  0.01430  0.23400  1.0000
  O   O5        1.0  0.70300  0.28600  0.40500  1.0000
  O   O6        1.0  0.72500  0.81800  0.45000  1.0000
  O   O7        1.0  0.27500  0.18200  0.55000  1.0000
  O   O8        1.0  0.29700  0.71400  0.59500  1.0000
  O   O9        1.0  0.08060  0.98600  0.76600  1.0000
  O   O10       1.0  0.68500  0.98600  0.76600  1.0000
  O   O11       1.0  0.91100  0.64000  0.82100  1.0000
  O   O12       1.0  0.49000  0.20800  0.98100  1.0000
  P   P1        1.0  0.15000  0.14700  0.29900  1.0000
  P   P2        1.0  0.85000  0.85300  0.70100  1.0000
  V   V1        1.0  0.61500  0.08240  0.23000  1.0000
  V   V2        1.0  0.38500  0.91800  0.77000  1.0000
