data_image0
_chemical_formula_structural       Na2O12Sc2Si4
_chemical_formula_sum              "Na2 O12 Sc2 Si4"
_cell_length_a       5.3387
_cell_length_b       6.66985
_cell_length_c       6.66985
_cell_angle_alpha    94.8578
_cell_angle_beta     102.459
_cell_angle_gamma    77.5406

_space_group_name_H-M_alt    "P 1"
_space_group_IT_number       1

loop_
  _space_group_symop_operation_xyz
  'x, y, z'

loop_
  _atom_site_type_symbol
  _atom_site_label
  _atom_site_symmetry_multiplicity
  _atom_site_fract_x
  _atom_site_fract_y
  _atom_site_fract_z
  _atom_site_occupancy
  Na  Na1       1.0  0.25000  0.30300  0.30300  1.0000
  Na  Na2       1.0  0.75000  0.69700  0.69700  1.0000
  O   O1        1.0  0.64700  0.80200  0.03680  1.0000
  O   O2        1.0  0.80900  0.39100  0.10800  1.0000
  O   O3        1.0  0.14700  0.96300  0.19800  1.0000
  O   O4        1.0  0.52000  0.63800  0.34400  1.0000
  O   O5        1.0  0.01960  0.65600  0.36200  1.0000
  O   O6        1.0  0.69100  0.10800  0.39100  1.0000
  O   O7        1.0  0.30900  0.89200  0.60900  1.0000
  O   O8        1.0  0.98000  0.34400  0.63800  1.0000
  O   O9        1.0  0.48000  0.36200  0.65600  1.0000
  O   O10       1.0  0.85300  0.03680  0.80200  1.0000
  O   O11       1.0  0.19100  0.60900  0.89200  1.0000
  O   O12       1.0  0.35300  0.19800  0.96300  1.0000
  Sc  Sc1       1.0  0.75000  0.10400  0.10400  1.0000
  Sc  Sc2       1.0  0.25000  0.89600  0.89600  1.0000
  Si  Si1       1.0  0.74400  0.62100  0.20300  1.0000
  Si  Si2       1.0  0.24400  0.79700  0.37900  1.0000
  Si  Si3       1.0  0.75600  0.20300  0.62100  1.0000
  Si  Si4       1.0  0.25600  0.37900  0.79700  1.0000
