data_image0
_chemical_formula_structural       Cd4O12Se4
_chemical_formula_sum              "Cd4 O12 Se4"
_cell_length_a       6.26724
_cell_length_b       8.08946
_cell_length_c       5.32816
_cell_angle_alpha    90
_cell_angle_beta     90
_cell_angle_gamma    90

_space_group_name_H-M_alt    "P 1"
_space_group_IT_number       1

loop_
  _space_group_symop_operation_xyz
  'x, y, z'

loop_
  _atom_site_type_symbol
  _atom_site_label
  _atom_site_symmetry_multiplicity
  _atom_site_fract_x
  _atom_site_fract_y
  _atom_site_fract_z
  _atom_site_occupancy
  Cd  Cd1       1.0  0.00000  0.00000  0.00000  1.0000
  Cd  Cd2       1.0  0.00000  0.50000  0.00000  1.0000
  Cd  Cd3       1.0  0.50000  0.00000  0.50000  1.0000
  Cd  Cd4       1.0  0.50000  0.50000  0.50000  1.0000
  O   O1        1.0  0.32800  0.58600  0.13400  1.0000
  O   O2        1.0  0.32800  0.91400  0.13400  1.0000
  O   O3        1.0  0.09390  0.25000  0.20100  1.0000
  O   O4        1.0  0.59400  0.25000  0.29900  1.0000
  O   O5        1.0  0.82800  0.58600  0.36600  1.0000
  O   O6        1.0  0.82800  0.91400  0.36600  1.0000
  O   O7        1.0  0.17200  0.08570  0.63400  1.0000
  O   O8        1.0  0.17200  0.41400  0.63400  1.0000
  O   O9        1.0  0.40600  0.75000  0.70100  1.0000
  O   O10       1.0  0.90600  0.75000  0.79900  1.0000
  O   O11       1.0  0.67200  0.08570  0.86600  1.0000
  O   O12       1.0  0.67200  0.41400  0.86600  1.0000
  Se  Se1       1.0  0.47700  0.75000  0.01500  1.0000
  Se  Se2       1.0  0.97700  0.75000  0.48500  1.0000
  Se  Se3       1.0  0.02270  0.25000  0.51500  1.0000
  Se  Se4       1.0  0.52300  0.25000  0.98500  1.0000
