data_image0
_chemical_formula_structural       Nb6S12Sn2
_chemical_formula_sum              "Nb6 S12 Sn2"
_cell_length_a       5.82716
_cell_length_b       5.82716
_cell_length_c       14.5006
_cell_angle_alpha    90.0001
_cell_angle_beta     89.9999
_cell_angle_gamma    120

_space_group_name_H-M_alt    "P 1"
_space_group_IT_number       1

loop_
  _space_group_symop_operation_xyz
  'x, y, z'

loop_
  _atom_site_type_symbol
  _atom_site_label
  _atom_site_symmetry_multiplicity
  _atom_site_fract_x
  _atom_site_fract_y
  _atom_site_fract_z
  _atom_site_occupancy
  Nb  Nb1       1.0  0.00000  0.00000  0.00000  1.0000
  Nb  Nb2       1.0  0.66700  0.33300  0.00081  1.0000
  Nb  Nb3       1.0  0.66700  0.33300  0.49900  1.0000
  Nb  Nb4       1.0  0.99999  0.99999  0.50000  1.0000
  Nb  Nb5       1.0  0.33300  0.66700  0.50100  1.0000
  Nb  Nb6       1.0  0.33300  0.66700  0.99900  1.0000
  S   S1        1.0  0.33300  0.33100  0.10800  1.0000
  S   S2        1.0  0.99900  0.66700  0.10800  1.0000
  S   S3        1.0  0.66900  0.00116  0.10800  1.0000
  S   S4        1.0  0.33300  0.00113  0.39200  1.0000
  S   S5        1.0  0.99900  0.33100  0.39200  1.0000
  S   S6        1.0  0.66900  0.66700  0.39200  1.0000
  S   S7        1.0  0.66700  0.66900  0.60800  1.0000
  S   S8        1.0  0.33100  0.99900  0.60800  1.0000
  S   S9        1.0  0.00113  0.33300  0.60800  1.0000
  S   S10       1.0  0.00116  0.66900  0.89200  1.0000
  S   S11       1.0  0.66700  0.99900  0.89200  1.0000
  S   S12       1.0  0.33100  0.33300  0.89200  1.0000
  Sn  Sn1       1.0  0.33300  0.66700  0.25000  1.0000
  Sn  Sn2       1.0  0.66700  0.33300  0.75000  1.0000
