data_image0
_chemical_formula_structural       Hf4Pb4S12
_chemical_formula_sum              "Hf4 Pb4 S12"
_cell_length_a       9.12167
_cell_length_b       3.76908
_cell_length_c       14.0741
_cell_angle_alpha    90
_cell_angle_beta     90
_cell_angle_gamma    90

_space_group_name_H-M_alt    "P 1"
_space_group_IT_number       1

loop_
  _space_group_symop_operation_xyz
  'x, y, z'

loop_
  _atom_site_type_symbol
  _atom_site_label
  _atom_site_symmetry_multiplicity
  _atom_site_fract_x
  _atom_site_fract_y
  _atom_site_fract_z
  _atom_site_occupancy
  Hf  Hf1       1.0  0.16500  0.25000  0.04940  1.0000
  Hf  Hf2       1.0  0.66500  0.25000  0.45100  1.0000
  Hf  Hf3       1.0  0.33500  0.75000  0.54900  1.0000
  Hf  Hf4       1.0  0.83500  0.75000  0.95100  1.0000
  Pb  Pb1       1.0  0.48000  0.75000  0.17300  1.0000
  Pb  Pb2       1.0  0.98000  0.75000  0.32700  1.0000
  Pb  Pb3       1.0  0.02000  0.25000  0.67300  1.0000
  Pb  Pb4       1.0  0.52000  0.25000  0.82700  1.0000
  S   S1        1.0  0.67100  0.25000  0.00978  1.0000
  S   S2        1.0  0.98900  0.75000  0.10400  1.0000
  S   S3        1.0  0.27000  0.25000  0.21300  1.0000
  S   S4        1.0  0.77000  0.25000  0.28700  1.0000
  S   S5        1.0  0.48900  0.75000  0.39600  1.0000
  S   S6        1.0  0.17100  0.25000  0.49000  1.0000
  S   S7        1.0  0.82900  0.75000  0.51000  1.0000
  S   S8        1.0  0.51100  0.25000  0.60400  1.0000
  S   S9        1.0  0.23000  0.75000  0.71300  1.0000
  S   S10       1.0  0.73000  0.75000  0.78700  1.0000
  S   S11       1.0  0.01100  0.25000  0.89600  1.0000
  S   S12       1.0  0.32900  0.75000  0.99000  1.0000
