data_image0
_chemical_formula_structural       Cs2F10N2O2Os2
_chemical_formula_sum              "Cs2 F10 N2 O2 Os2"
_cell_length_a       9.53642
_cell_length_b       6.61252
_cell_length_c       4.05266
_cell_angle_alpha    90
_cell_angle_beta     97.4899
_cell_angle_gamma    90

_space_group_name_H-M_alt    "P 1"
_space_group_IT_number       1

loop_
  _space_group_symop_operation_xyz
  'x, y, z'

loop_
  _atom_site_type_symbol
  _atom_site_label
  _atom_site_symmetry_multiplicity
  _atom_site_fract_x
  _atom_site_fract_y
  _atom_site_fract_z
  _atom_site_occupancy
  Cs  Cs1       1.0  0.88700  0.25000  0.45900  1.0000
  Cs  Cs2       1.0  0.11300  0.75000  0.54100  1.0000
  F   F1        1.0  0.33800  0.53600  0.00360  1.0000
  F   F2        1.0  0.33800  0.96400  0.00360  1.0000
  F   F3        1.0  0.11400  0.07690  0.07110  1.0000
  F   F4        1.0  0.11400  0.42300  0.07110  1.0000
  F   F5        1.0  0.74800  0.75000  0.41500  1.0000
  F   F6        1.0  0.25200  0.25000  0.58500  1.0000
  F   F7        1.0  0.88600  0.57700  0.92900  1.0000
  F   F8        1.0  0.88600  0.92300  0.92900  1.0000
  F   F9        1.0  0.66200  0.03640  0.99600  1.0000
  F   F10       1.0  0.66200  0.46400  0.99600  1.0000
  N   N1        1.0  0.46500  0.25000  0.28000  1.0000
  N   N2        1.0  0.53500  0.75000  0.72000  1.0000
  O   O1        1.0  0.56800  0.25000  0.47300  1.0000
  O   O2        1.0  0.43200  0.75000  0.52700  1.0000
  Os  Os1       1.0  0.28800  0.25000  0.09290  1.0000
  Os  Os2       1.0  0.71200  0.75000  0.90700  1.0000
