data_image0
_chemical_formula_structural       S12Sn4Zr4
_chemical_formula_sum              "S12 Sn4 Zr4"
_cell_length_a       9.39017
_cell_length_b       3.7515
_cell_length_c       14.006
_cell_angle_alpha    90
_cell_angle_beta     90
_cell_angle_gamma    90

_space_group_name_H-M_alt    "P 1"
_space_group_IT_number       1

loop_
  _space_group_symop_operation_xyz
  'x, y, z'

loop_
  _atom_site_type_symbol
  _atom_site_label
  _atom_site_symmetry_multiplicity
  _atom_site_fract_x
  _atom_site_fract_y
  _atom_site_fract_z
  _atom_site_occupancy
  S   S1        1.0  0.67100  0.25000  0.00854  1.0000
  S   S2        1.0  0.99000  0.75000  0.10800  1.0000
  S   S3        1.0  0.27100  0.25000  0.21400  1.0000
  S   S4        1.0  0.77100  0.25000  0.28600  1.0000
  S   S5        1.0  0.49000  0.75000  0.39200  1.0000
  S   S6        1.0  0.17100  0.25000  0.49100  1.0000
  S   S7        1.0  0.82900  0.75000  0.50900  1.0000
  S   S8        1.0  0.51000  0.25000  0.60800  1.0000
  S   S9        1.0  0.22900  0.75000  0.71400  1.0000
  S   S10       1.0  0.72900  0.75000  0.78600  1.0000
  S   S11       1.0  0.01030  0.25000  0.89200  1.0000
  S   S12       1.0  0.32900  0.75000  0.99100  1.0000
  Sn  Sn1       1.0  0.45400  0.75000  0.16800  1.0000
  Sn  Sn2       1.0  0.95400  0.75000  0.33200  1.0000
  Sn  Sn3       1.0  0.04580  0.25000  0.66800  1.0000
  Sn  Sn4       1.0  0.54600  0.25000  0.83200  1.0000
  Zr  Zr1       1.0  0.16100  0.25000  0.04730  1.0000
  Zr  Zr2       1.0  0.66100  0.25000  0.45300  1.0000
  Zr  Zr3       1.0  0.33900  0.75000  0.54700  1.0000
  Zr  Zr4       1.0  0.83900  0.75000  0.95300  1.0000
