data_image0
_chemical_formula_structural       Pd4Se12U4
_chemical_formula_sum              "Pd4 Se12 U4"
_cell_length_a       7.7969
_cell_length_b       6.38258
_cell_length_c       8.80981
_cell_angle_alpha    90
_cell_angle_beta     90
_cell_angle_gamma    90

_space_group_name_H-M_alt    "P 1"
_space_group_IT_number       1

loop_
  _space_group_symop_operation_xyz
  'x, y, z'

loop_
  _atom_site_type_symbol
  _atom_site_label
  _atom_site_symmetry_multiplicity
  _atom_site_fract_x
  _atom_site_fract_y
  _atom_site_fract_z
  _atom_site_occupancy
  Pd  Pd1       1.0  0.00000  0.00000  0.00000  1.0000
  Pd  Pd2       1.0  0.50000  0.50000  0.00000  1.0000
  Pd  Pd3       1.0  0.00000  0.00000  0.50000  1.0000
  Pd  Pd4       1.0  0.50000  0.50000  0.50000  1.0000
  Se  Se1       1.0  0.66100  0.16100  0.05750  1.0000
  Se  Se2       1.0  0.16100  0.33900  0.05750  1.0000
  Se  Se3       1.0  0.56600  0.68200  0.25000  1.0000
  Se  Se4       1.0  0.06600  0.81800  0.25000  1.0000
  Se  Se5       1.0  0.66100  0.16100  0.44300  1.0000
  Se  Se6       1.0  0.16100  0.33900  0.44300  1.0000
  Se  Se7       1.0  0.83900  0.66100  0.55700  1.0000
  Se  Se8       1.0  0.33900  0.83900  0.55700  1.0000
  Se  Se9       1.0  0.93400  0.18200  0.75000  1.0000
  Se  Se10      1.0  0.43400  0.31800  0.75000  1.0000
  Se  Se11      1.0  0.83900  0.66100  0.94300  1.0000
  Se  Se12      1.0  0.33900  0.83900  0.94300  1.0000
  U   U1        1.0  0.36200  0.06520  0.25000  1.0000
  U   U2        1.0  0.86200  0.43500  0.25000  1.0000
  U   U3        1.0  0.13800  0.56500  0.75000  1.0000
  U   U4        1.0  0.63800  0.93500  0.75000  1.0000
