data_image0
_chemical_formula_structural       Bi2Ca4O12V2
_chemical_formula_sum              "Bi2 Ca4 O12 V2"
_cell_length_a       5.55103
_cell_length_b       7.36475
_cell_length_c       7.36475
_cell_angle_alpha    73.7884
_cell_angle_beta     90
_cell_angle_gamma    90

_space_group_name_H-M_alt    "P 1"
_space_group_IT_number       1

loop_
  _space_group_symop_operation_xyz
  'x, y, z'

loop_
  _atom_site_type_symbol
  _atom_site_label
  _atom_site_symmetry_multiplicity
  _atom_site_fract_x
  _atom_site_fract_y
  _atom_site_fract_z
  _atom_site_occupancy
  Bi  Bi1       1.0  0.25700  0.40700  0.40700  1.0000
  Bi  Bi2       1.0  0.75700  0.59300  0.59300  1.0000
  Ca  Ca1       1.0  0.74100  0.69900  0.09070  1.0000
  Ca  Ca2       1.0  0.24100  0.90900  0.30100  1.0000
  Ca  Ca3       1.0  0.74100  0.09070  0.69900  1.0000
  Ca  Ca4       1.0  0.24100  0.30100  0.90900  1.0000
  O   O1        1.0  0.57200  0.04850  0.04850  1.0000
  O   O2        1.0  0.56900  0.40600  0.09040  1.0000
  O   O3        1.0  0.00937  0.18900  0.18900  1.0000
  O   O4        1.0  0.99700  0.64900  0.34000  1.0000
  O   O5        1.0  0.49700  0.66000  0.35100  1.0000
  O   O6        1.0  0.56900  0.09040  0.40600  1.0000
  O   O7        1.0  0.06910  0.91000  0.59400  1.0000
  O   O8        1.0  0.99700  0.34000  0.64900  1.0000
  O   O9        1.0  0.49700  0.35100  0.66000  1.0000
  O   O10       1.0  0.50900  0.81100  0.81100  1.0000
  O   O11       1.0  0.06910  0.59400  0.91000  1.0000
  O   O12       1.0  0.07150  0.95200  0.95200  1.0000
  V   V1        1.0  0.69600  0.18400  0.18400  1.0000
  V   V2        1.0  0.19600  0.81600  0.81600  1.0000
