data_image0
_chemical_formula_structural       C4Cl8N6P2
_chemical_formula_sum              "C4 Cl8 N6 P2"
_cell_length_a       7.34117
_cell_length_b       7.04489
_cell_length_c       8.67821
_cell_angle_alpha    90
_cell_angle_beta     90
_cell_angle_gamma    118.674

_space_group_name_H-M_alt    "P 1"
_space_group_IT_number       1

loop_
  _space_group_symop_operation_xyz
  'x, y, z'

loop_
  _atom_site_type_symbol
  _atom_site_label
  _atom_site_symmetry_multiplicity
  _atom_site_fract_x
  _atom_site_fract_y
  _atom_site_fract_z
  _atom_site_occupancy
  C   C1        1.0  0.54800  0.77400  0.11900  1.0000
  C   C2        1.0  0.54800  0.77400  0.38100  1.0000
  C   C3        1.0  0.45200  0.22600  0.61900  1.0000
  C   C4        1.0  0.45200  0.22600  0.88100  1.0000
  Cl  Cl1       1.0  0.60700  0.30300  0.04530  1.0000
  Cl  Cl2       1.0  0.07790  0.26200  0.25000  1.0000
  Cl  Cl3       1.0  0.07790  0.81600  0.25000  1.0000
  Cl  Cl4       1.0  0.60700  0.30300  0.45500  1.0000
  Cl  Cl5       1.0  0.39300  0.69700  0.54500  1.0000
  Cl  Cl6       1.0  0.92200  0.18400  0.75000  1.0000
  Cl  Cl7       1.0  0.92200  0.73800  0.75000  1.0000
  Cl  Cl8       1.0  0.39300  0.69700  0.95500  1.0000
  N   N1        1.0  0.75000  0.87500  0.09380  1.0000
  N   N2        1.0  0.43900  0.71900  0.25000  1.0000
  N   N3        1.0  0.75000  0.87500  0.40600  1.0000
  N   N4        1.0  0.25000  0.12500  0.59400  1.0000
  N   N5        1.0  0.56100  0.28100  0.75000  1.0000
  N   N6        1.0  0.25000  0.12500  0.90600  1.0000
  P   P1        1.0  0.89000  0.94500  0.25000  1.0000
  P   P2        1.0  0.11000  0.05490  0.75000  1.0000
