data_image0
_chemical_formula_structural       B4Fe2Ir10Sc4
_chemical_formula_sum              "B4 Fe2 Ir10 Sc4"
_cell_length_a       9.38368
_cell_length_b       9.38337
_cell_length_c       3.06516
_cell_angle_alpha    90
_cell_angle_beta     90
_cell_angle_gamma    90

_space_group_name_H-M_alt    "P 1"
_space_group_IT_number       1

loop_
  _space_group_symop_operation_xyz
  'x, y, z'

loop_
  _atom_site_type_symbol
  _atom_site_label
  _atom_site_symmetry_multiplicity
  _atom_site_fract_x
  _atom_site_fract_y
  _atom_site_fract_z
  _atom_site_occupancy
  B   B1        1.0  0.37500  0.12500  0.00000  1.0000
  B   B2        1.0  0.87500  0.37500  0.00000  1.0000
  B   B3        1.0  0.12500  0.62500  0.00000  1.0000
  B   B4        1.0  0.62500  0.87500  0.00000  1.0000
  Fe  Fe1       1.0  0.00000  0.00000  0.00000  1.0000
  Fe  Fe2       1.0  0.50000  0.50000  0.00000  1.0000
  Ir  Ir1       1.0  0.50000  0.00000  0.50000  1.0000
  Ir  Ir2       1.0  0.21600  0.06910  0.50000  1.0000
  Ir  Ir3       1.0  0.93100  0.21600  0.50000  1.0000
  Ir  Ir4       1.0  0.43100  0.28400  0.50000  1.0000
  Ir  Ir5       1.0  0.71600  0.43100  0.50000  1.0000
  Ir  Ir6       1.0  0.00000  0.50000  0.50000  1.0000
  Ir  Ir7       1.0  0.28400  0.56900  0.50000  1.0000
  Ir  Ir8       1.0  0.56900  0.71600  0.50000  1.0000
  Ir  Ir9       1.0  0.06920  0.78400  0.50000  1.0000
  Ir  Ir10      1.0  0.78400  0.93100  0.50000  1.0000
  Sc  Sc1       1.0  0.67700  0.17700  0.00000  1.0000
  Sc  Sc2       1.0  0.17700  0.32300  0.00000  1.0000
  Sc  Sc3       1.0  0.82300  0.67700  0.00000  1.0000
  Sc  Sc4       1.0  0.32300  0.82300  0.00000  1.0000
