data_image0
_chemical_formula_structural       C12Y8
_chemical_formula_sum              "C12 Y8"
_cell_length_a       7.13828
_cell_length_b       7.13828
_cell_length_c       7.13828
_cell_angle_alpha    109.471
_cell_angle_beta     109.471
_cell_angle_gamma    109.471

_space_group_name_H-M_alt    "P 1"
_space_group_IT_number       1

loop_
  _space_group_symop_operation_xyz
  'x, y, z'

loop_
  _atom_site_type_symbol
  _atom_site_label
  _atom_site_symmetry_multiplicity
  _atom_site_fract_x
  _atom_site_fract_y
  _atom_site_fract_z
  _atom_site_occupancy
  C   C1        1.0  0.25000  0.29400  0.04390  1.0000
  C   C2        1.0  0.25000  0.45600  0.20600  1.0000
  C   C3        1.0  0.04390  0.79400  0.25000  1.0000
  C   C4        1.0  0.20600  0.95600  0.25000  1.0000
  C   C5        1.0  0.75000  0.04390  0.29400  1.0000
  C   C6        1.0  0.75000  0.20600  0.45600  1.0000
  C   C7        1.0  0.79400  0.75000  0.54400  1.0000
  C   C8        1.0  0.95600  0.75000  0.70600  1.0000
  C   C9        1.0  0.29400  0.54400  0.75000  1.0000
  C   C10       1.0  0.45600  0.70600  0.75000  1.0000
  C   C11       1.0  0.54400  0.25000  0.79400  1.0000
  C   C12       1.0  0.70600  0.25000  0.95600  1.0000
  Y   Y1        1.0  0.39900  0.00000  0.00000  1.0000
  Y   Y2        1.0  0.89900  0.00000  0.00000  1.0000
  Y   Y3        1.0  0.60100  0.60100  0.10100  1.0000
  Y   Y4        1.0  0.00000  0.50000  0.39900  1.0000
  Y   Y5        1.0  0.50000  0.39900  0.50000  1.0000
  Y   Y6        1.0  0.50000  0.89900  0.50000  1.0000
  Y   Y7        1.0  0.10100  0.10100  0.60100  1.0000
  Y   Y8        1.0  0.00000  0.50000  0.89900  1.0000
