data_image0
_chemical_formula_structural       Ca6O12Re2
_chemical_formula_sum              "Ca6 O12 Re2"
_cell_length_a       5.50405
_cell_length_b       5.79584
_cell_length_c       7.94989
_cell_angle_alpha    90
_cell_angle_beta     90.2025
_cell_angle_gamma    90

_space_group_name_H-M_alt    "P 1"
_space_group_IT_number       1

loop_
  _space_group_symop_operation_xyz
  'x, y, z'

loop_
  _atom_site_type_symbol
  _atom_site_label
  _atom_site_symmetry_multiplicity
  _atom_site_fract_x
  _atom_site_fract_y
  _atom_site_fract_z
  _atom_site_occupancy
  Ca  Ca1       1.0  0.00000  0.50000  0.00000  1.0000
  Ca  Ca2       1.0  0.01630  0.93800  0.24400  1.0000
  Ca  Ca3       1.0  0.48400  0.43800  0.25600  1.0000
  Ca  Ca4       1.0  0.50000  0.00000  0.50000  1.0000
  Ca  Ca5       1.0  0.51600  0.56200  0.74400  1.0000
  Ca  Ca6       1.0  0.98400  0.06160  0.75600  1.0000
  O   O1        1.0  0.21200  0.17600  0.05180  1.0000
  O   O2        1.0  0.33400  0.72000  0.06980  1.0000
  O   O3        1.0  0.61600  0.05150  0.22800  1.0000
  O   O4        1.0  0.88400  0.55100  0.27200  1.0000
  O   O5        1.0  0.16600  0.22000  0.43000  1.0000
  O   O6        1.0  0.28800  0.67600  0.44800  1.0000
  O   O7        1.0  0.71200  0.32400  0.55200  1.0000
  O   O8        1.0  0.83400  0.78000  0.57000  1.0000
  O   O9        1.0  0.11600  0.44900  0.72800  1.0000
  O   O10       1.0  0.38400  0.94900  0.77200  1.0000
  O   O11       1.0  0.66600  0.28000  0.93000  1.0000
  O   O12       1.0  0.78800  0.82400  0.94800  1.0000
  Re  Re1       1.0  0.50000  0.00000  0.00000  1.0000
  Re  Re2       1.0  1.00000  0.50000  0.50000  1.0000
