data_image0
_chemical_formula_structural       B4Fe3NdO12
_chemical_formula_sum              "B4 Fe3 Nd1 O12"
_cell_length_a       6.08827
_cell_length_b       6.08827
_cell_length_c       6.08827
_cell_angle_alpha    104.089
_cell_angle_beta     104.089
_cell_angle_gamma    104.089

_space_group_name_H-M_alt    "P 1"
_space_group_IT_number       1

loop_
  _space_group_symop_operation_xyz
  'x, y, z'

loop_
  _atom_site_type_symbol
  _atom_site_label
  _atom_site_symmetry_multiplicity
  _atom_site_fract_x
  _atom_site_fract_y
  _atom_site_fract_z
  _atom_site_occupancy
  B   B1        1.0  0.50000  0.94600  0.05450  1.0000
  B   B2        1.0  0.94600  0.05450  0.50000  1.0000
  B   B3        1.0  0.50000  0.50000  0.50000  1.0000
  B   B4        1.0  0.05450  0.50000  0.94600  1.0000
  Fe  Fe1       1.0  0.55200  0.44800  0.00000  1.0000
  Fe  Fe2       1.0  0.00000  0.55200  0.44800  1.0000
  Fe  Fe3       1.0  0.44800  0.00000  0.55200  1.0000
  Nd  Nd1       1.0  0.00000  0.00000  0.00000  1.0000
  O   O1        1.0  0.62700  0.78800  0.03000  1.0000
  O   O2        1.0  0.91100  0.50000  0.08930  1.0000
  O   O3        1.0  0.37300  0.97000  0.21200  1.0000
  O   O4        1.0  0.64400  0.50000  0.35600  1.0000
  O   O5        1.0  0.97000  0.21200  0.37300  1.0000
  O   O6        1.0  0.08930  0.91100  0.50000  1.0000
  O   O7        1.0  0.35600  0.64400  0.50000  1.0000
  O   O8        1.0  0.78800  0.03000  0.62700  1.0000
  O   O9        1.0  0.50000  0.35600  0.64400  1.0000
  O   O10       1.0  0.03000  0.62700  0.78800  1.0000
  O   O11       1.0  0.50000  0.08930  0.91100  1.0000
  O   O12       1.0  0.21200  0.37300  0.97000  1.0000
