data_image0
_chemical_formula_structural       Ge12Os8
_chemical_formula_sum              "Ge12 Os8"
_cell_length_a       5.80832
_cell_length_b       5.80832
_cell_length_c       9.34805
_cell_angle_alpha    90
_cell_angle_beta     90
_cell_angle_gamma    90

_space_group_name_H-M_alt    "P 1"
_space_group_IT_number       1

loop_
  _space_group_symop_operation_xyz
  'x, y, z'

loop_
  _atom_site_type_symbol
  _atom_site_label
  _atom_site_symmetry_multiplicity
  _atom_site_fract_x
  _atom_site_fract_y
  _atom_site_fract_z
  _atom_site_occupancy
  Ge  Ge1       1.0  0.21700  0.35100  0.08510  1.0000
  Ge  Ge2       1.0  0.78300  0.64900  0.08510  1.0000
  Ge  Ge3       1.0  0.82900  0.17100  0.25000  1.0000
  Ge  Ge4       1.0  0.17100  0.82900  0.25000  1.0000
  Ge  Ge5       1.0  0.35100  0.21700  0.41500  1.0000
  Ge  Ge6       1.0  0.64900  0.78300  0.41500  1.0000
  Ge  Ge7       1.0  0.78300  0.35100  0.58500  1.0000
  Ge  Ge8       1.0  0.21700  0.64900  0.58500  1.0000
  Ge  Ge9       1.0  0.17100  0.17100  0.75000  1.0000
  Ge  Ge10      1.0  0.82900  0.82900  0.75000  1.0000
  Ge  Ge11      1.0  0.64900  0.21700  0.91500  1.0000
  Ge  Ge12      1.0  0.35100  0.78300  0.91500  1.0000
  Os  Os1       1.0  0.00000  0.00000  0.00000  1.0000
  Os  Os2       1.0  0.50000  0.00000  0.12500  1.0000
  Os  Os3       1.0  0.50000  0.50000  0.25000  1.0000
  Os  Os4       1.0  0.00000  0.50000  0.37500  1.0000
  Os  Os5       1.0  0.00000  0.00000  0.50000  1.0000
  Os  Os6       1.0  0.50000  0.00000  0.62500  1.0000
  Os  Os7       1.0  0.50000  0.50000  0.75000  1.0000
  Os  Os8       1.0  0.00000  0.50000  0.87500  1.0000
