data_image0
_chemical_formula_structural       Na4O12Sn2Te2
_chemical_formula_sum              "Na4 O12 Sn2 Te2"
_cell_length_a       5.41335
_cell_length_b       5.49294
_cell_length_c       7.71617
_cell_angle_alpha    90
_cell_angle_beta     90.0244
_cell_angle_gamma    90

_space_group_name_H-M_alt    "P 1"
_space_group_IT_number       1

loop_
  _space_group_symop_operation_xyz
  'x, y, z'

loop_
  _atom_site_type_symbol
  _atom_site_label
  _atom_site_symmetry_multiplicity
  _atom_site_fract_x
  _atom_site_fract_y
  _atom_site_fract_z
  _atom_site_occupancy
  Na  Na1       1.0  0.50900  0.54400  0.25000  1.0000
  Na  Na2       1.0  0.99100  0.04410  0.25000  1.0000
  Na  Na3       1.0  0.00942  0.95600  0.75000  1.0000
  Na  Na4       1.0  0.49100  0.45600  0.75000  1.0000
  O   O1        1.0  0.70800  0.30700  0.04820  1.0000
  O   O2        1.0  0.81100  0.79100  0.05040  1.0000
  O   O3        1.0  0.09580  0.47100  0.24100  1.0000
  O   O4        1.0  0.40400  0.97100  0.25900  1.0000
  O   O5        1.0  0.68900  0.29100  0.45000  1.0000
  O   O6        1.0  0.79200  0.80700  0.45200  1.0000
  O   O7        1.0  0.20800  0.19300  0.54800  1.0000
  O   O8        1.0  0.31100  0.70900  0.55000  1.0000
  O   O9        1.0  0.59600  0.02910  0.74100  1.0000
  O   O10       1.0  0.90400  0.52900  0.75900  1.0000
  O   O11       1.0  0.18900  0.20900  0.95000  1.0000
  O   O12       1.0  0.29200  0.69300  0.95200  1.0000
  Sn  Sn1       1.0  0.50000  0.00000  1.00000  1.0000
  Sn  Sn2       1.0  1.00000  0.50000  0.50000  1.0000
  Te  Te1       1.0  0.00000  0.50000  0.00000  1.0000
  Te  Te2       1.0  0.50000  0.00000  0.50000  1.0000
