data_image0
_chemical_formula_structural       I10Ni2Pr8
_chemical_formula_sum              "I10 Ni2 Pr8"
_cell_length_a       4.2011
_cell_length_b       19.2331
_cell_length_c       9.17877
_cell_angle_alpha    90
_cell_angle_beta     90
_cell_angle_gamma    90

_space_group_name_H-M_alt    "P 1"
_space_group_IT_number       1

loop_
  _space_group_symop_operation_xyz
  'x, y, z'

loop_
  _atom_site_type_symbol
  _atom_site_label
  _atom_site_symmetry_multiplicity
  _atom_site_fract_x
  _atom_site_fract_y
  _atom_site_fract_z
  _atom_site_occupancy
  I   I1        1.0  0.25000  0.57600  0.13900  1.0000
  I   I2        1.0  0.25000  0.92400  0.13900  1.0000
  I   I3        1.0  0.75000  0.75000  0.37100  1.0000
  I   I4        1.0  0.75000  0.08130  0.39300  1.0000
  I   I5        1.0  0.75000  0.41900  0.39300  1.0000
  I   I6        1.0  0.25000  0.58100  0.60700  1.0000
  I   I7        1.0  0.25000  0.91900  0.60700  1.0000
  I   I8        1.0  0.25000  0.25000  0.62900  1.0000
  I   I9        1.0  0.75000  0.07640  0.86100  1.0000
  I   I10       1.0  0.75000  0.42400  0.86100  1.0000
  Ni  Ni1       1.0  0.25000  0.25000  0.12600  1.0000
  Ni  Ni2       1.0  0.75000  0.75000  0.87400  1.0000
  Pr  Pr1       1.0  0.25000  0.75000  0.07770  1.0000
  Pr  Pr2       1.0  0.25000  0.10300  0.13000  1.0000
  Pr  Pr3       1.0  0.25000  0.39700  0.13000  1.0000
  Pr  Pr4       1.0  0.75000  0.25000  0.33400  1.0000
  Pr  Pr5       1.0  0.25000  0.75000  0.66600  1.0000
  Pr  Pr6       1.0  0.75000  0.60300  0.87000  1.0000
  Pr  Pr7       1.0  0.75000  0.89700  0.87000  1.0000
  Pr  Pr8       1.0  0.75000  0.25000  0.92200  1.0000
