data_image0
_chemical_formula_structural       Ni6Si10Y4
_chemical_formula_sum              "Ni6 Si10 Y4"
_cell_length_a       5.64387
_cell_length_b       7.85687
_cell_length_c       7.85687
_cell_angle_alpha    90.0981
_cell_angle_beta     111.049
_cell_angle_gamma    111.049

_space_group_name_H-M_alt    "P 1"
_space_group_IT_number       1

loop_
  _space_group_symop_operation_xyz
  'x, y, z'

loop_
  _atom_site_type_symbol
  _atom_site_label
  _atom_site_symmetry_multiplicity
  _atom_site_fract_x
  _atom_site_fract_y
  _atom_site_fract_z
  _atom_site_occupancy
  Ni  Ni1       1.0  0.38800  0.75400  0.02190  1.0000
  Ni  Ni2       1.0  0.11200  0.97800  0.24600  1.0000
  Ni  Ni3       1.0  0.25000  0.50000  0.50000  1.0000
  Ni  Ni4       1.0  0.75000  0.50000  0.50000  1.0000
  Ni  Ni5       1.0  0.88800  0.02190  0.75400  1.0000
  Ni  Ni6       1.0  0.61200  0.24600  0.97800  1.0000
  Si  Si1       1.0  0.25000  0.00000  0.00000  1.0000
  Si  Si2       1.0  0.75000  0.00000  0.00000  1.0000
  Si  Si3       1.0  0.84800  0.45500  0.24000  1.0000
  Si  Si4       1.0  0.25000  0.73400  0.26600  1.0000
  Si  Si5       1.0  0.75000  0.73400  0.26600  1.0000
  Si  Si6       1.0  0.34800  0.24000  0.45500  1.0000
  Si  Si7       1.0  0.65200  0.76000  0.54500  1.0000
  Si  Si8       1.0  0.25000  0.26600  0.73400  1.0000
  Si  Si9       1.0  0.75000  0.26600  0.73400  1.0000
  Si  Si10      1.0  0.15200  0.54500  0.76000  1.0000
  Y   Y1        1.0  0.23700  0.36800  0.10600  1.0000
  Y   Y2        1.0  0.73700  0.10600  0.36800  1.0000
  Y   Y3        1.0  0.26300  0.89400  0.63200  1.0000
  Y   Y4        1.0  0.76300  0.63200  0.89400  1.0000
