data_image0
_chemical_formula_structural       Ir2O12Sr4Y2
_chemical_formula_sum              "Ir2 O12 Sr4 Y2"
_cell_length_a       5.77271
_cell_length_b       5.80961
_cell_length_c       8.18724
_cell_angle_alpha    90
_cell_angle_beta     90.2674
_cell_angle_gamma    90

_space_group_name_H-M_alt    "P 1"
_space_group_IT_number       1

loop_
  _space_group_symop_operation_xyz
  'x, y, z'

loop_
  _atom_site_type_symbol
  _atom_site_label
  _atom_site_symmetry_multiplicity
  _atom_site_fract_x
  _atom_site_fract_y
  _atom_site_fract_z
  _atom_site_occupancy
  Ir  Ir1       1.0  0.50000  0.00000  0.00000  1.0000
  Ir  Ir2       1.0  0.00000  0.50000  0.50000  1.0000
  O   O1        1.0  0.77400  0.80200  0.03820  1.0000
  O   O2        1.0  0.69500  0.27500  0.04020  1.0000
  O   O3        1.0  0.42500  0.98300  0.23500  1.0000
  O   O4        1.0  0.07450  0.48300  0.26500  1.0000
  O   O5        1.0  0.80500  0.77500  0.46000  1.0000
  O   O6        1.0  0.72600  0.30200  0.46200  1.0000
  O   O7        1.0  0.27400  0.69800  0.53800  1.0000
  O   O8        1.0  0.19500  0.22500  0.54000  1.0000
  O   O9        1.0  0.92500  0.51700  0.73500  1.0000
  O   O10       1.0  0.57500  0.01680  0.76500  1.0000
  O   O11       1.0  0.30500  0.72500  0.96000  1.0000
  O   O12       1.0  0.22600  0.19800  0.96200  1.0000
  Sr  Sr1       1.0  0.50800  0.53700  0.24900  1.0000
  Sr  Sr2       1.0  0.99200  0.03660  0.25100  1.0000
  Sr  Sr3       1.0  0.00752  0.96300  0.74900  1.0000
  Sr  Sr4       1.0  0.49200  0.46300  0.75100  1.0000
  Y   Y1        1.0  0.00000  0.50000  0.00000  1.0000
  Y   Y2        1.0  0.50000  0.00000  0.50000  1.0000
