data_image0
_chemical_formula_structural       Cl4K12O4
_chemical_formula_sum              "Cl4 K12 O4"
_cell_length_a       7.22034
_cell_length_b       7.30911
_cell_length_c       10.2494
_cell_angle_alpha    90
_cell_angle_beta     90
_cell_angle_gamma    90

_space_group_name_H-M_alt    "P 1"
_space_group_IT_number       1

loop_
  _space_group_symop_operation_xyz
  'x, y, z'

loop_
  _atom_site_type_symbol
  _atom_site_label
  _atom_site_symmetry_multiplicity
  _atom_site_fract_x
  _atom_site_fract_y
  _atom_site_fract_z
  _atom_site_occupancy
  Cl  Cl1       1.0  0.99300  0.04020  0.25000  1.0000
  Cl  Cl2       1.0  0.50700  0.54000  0.25000  1.0000
  Cl  Cl3       1.0  0.49300  0.46000  0.75000  1.0000
  Cl  Cl4       1.0  0.00664  0.96000  0.75000  1.0000
  K   K1        1.0  0.70300  0.29500  0.03420  1.0000
  K   K2        1.0  0.79700  0.79500  0.03420  1.0000
  K   K3        1.0  0.06920  0.47800  0.25000  1.0000
  K   K4        1.0  0.43100  0.97800  0.25000  1.0000
  K   K5        1.0  0.70300  0.29500  0.46600  1.0000
  K   K6        1.0  0.79700  0.79500  0.46600  1.0000
  K   K7        1.0  0.20300  0.20500  0.53400  1.0000
  K   K8        1.0  0.29700  0.70500  0.53400  1.0000
  K   K9        1.0  0.56900  0.02200  0.75000  1.0000
  K   K10       1.0  0.93100  0.52200  0.75000  1.0000
  K   K11       1.0  0.20300  0.20500  0.96600  1.0000
  K   K12       1.0  0.29700  0.70500  0.96600  1.0000
  O   O1        1.0  0.50000  0.00000  0.00000  1.0000
  O   O2        1.0  0.00000  0.50000  0.00000  1.0000
  O   O3        1.0  0.50000  0.00000  0.50000  1.0000
  O   O4        1.0  0.00000  0.50000  0.50000  1.0000
