data_image0
_chemical_formula_structural       Br12Na6Y2
_chemical_formula_sum              "Br12 Na6 Y2"
_cell_length_a       7.21123
_cell_length_b       7.71777
_cell_length_c       10.7386
_cell_angle_alpha    90
_cell_angle_beta     90.8793
_cell_angle_gamma    90

_space_group_name_H-M_alt    "P 1"
_space_group_IT_number       1

loop_
  _space_group_symop_operation_xyz
  'x, y, z'

loop_
  _atom_site_type_symbol
  _atom_site_label
  _atom_site_symmetry_multiplicity
  _atom_site_fract_x
  _atom_site_fract_y
  _atom_site_fract_z
  _atom_site_occupancy
  Br  Br1       1.0  0.68100  0.17900  0.06660  1.0000
  Br  Br2       1.0  0.83400  0.69300  0.08160  1.0000
  Br  Br3       1.0  0.14700  0.06410  0.24000  1.0000
  Br  Br4       1.0  0.35300  0.56400  0.26000  1.0000
  Br  Br5       1.0  0.66600  0.19300  0.41800  1.0000
  Br  Br6       1.0  0.81900  0.67900  0.43300  1.0000
  Br  Br7       1.0  0.18100  0.32100  0.56700  1.0000
  Br  Br8       1.0  0.33400  0.80700  0.58200  1.0000
  Br  Br9       1.0  0.64700  0.43600  0.74000  1.0000
  Br  Br10      1.0  0.85300  0.93600  0.76000  1.0000
  Br  Br11      1.0  0.16600  0.30700  0.91800  1.0000
  Br  Br12      1.0  0.31900  0.82100  0.93300  1.0000
  Na  Na1       1.0  0.50000  0.50000  0.00000  1.0000
  Na  Na2       1.0  0.53000  0.91100  0.23800  1.0000
  Na  Na3       1.0  0.97000  0.41100  0.26200  1.0000
  Na  Na4       1.0  1.00000  0.00000  0.50000  1.0000
  Na  Na5       1.0  0.02970  0.58900  0.73800  1.0000
  Na  Na6       1.0  0.47000  0.08890  0.76200  1.0000
  Y   Y1        1.0  0.00000  0.00000  0.00000  1.0000
  Y   Y2        1.0  0.50000  0.50000  0.50000  1.0000
