data_image0
_chemical_formula_structural       CaK4O12U3
_chemical_formula_sum              "Ca1 K4 O12 U3"
_cell_length_a       7.45721
_cell_length_b       7.45721
_cell_length_c       7.45721
_cell_angle_alpha    109.471
_cell_angle_beta     109.471
_cell_angle_gamma    109.471

_space_group_name_H-M_alt    "P 1"
_space_group_IT_number       1

loop_
  _space_group_symop_operation_xyz
  'x, y, z'

loop_
  _atom_site_type_symbol
  _atom_site_label
  _atom_site_symmetry_multiplicity
  _atom_site_fract_x
  _atom_site_fract_y
  _atom_site_fract_z
  _atom_site_occupancy
  Ca  Ca1       1.0  0.00000  0.00000  0.00000  1.0000
  K   K1        1.0  0.50000  0.00000  0.00000  1.0000
  K   K2        1.0  0.00000  0.50000  0.00000  1.0000
  K   K3        1.0  0.00000  0.00000  0.50000  1.0000
  K   K4        1.0  0.50000  0.50000  0.50000  1.0000
  O   O1        1.0  0.27100  0.27100  0.00000  1.0000
  O   O2        1.0  0.72900  0.72900  0.00000  1.0000
  O   O3        1.0  0.75000  0.50000  0.25000  1.0000
  O   O4        1.0  0.50000  0.75000  0.25000  1.0000
  O   O5        1.0  0.27100  0.00000  0.27100  1.0000
  O   O6        1.0  0.00000  0.27100  0.27100  1.0000
  O   O7        1.0  0.75000  0.25000  0.50000  1.0000
  O   O8        1.0  0.25000  0.75000  0.50000  1.0000
  O   O9        1.0  0.72900  0.00000  0.72900  1.0000
  O   O10       1.0  0.00000  0.72900  0.72900  1.0000
  O   O11       1.0  0.50000  0.25000  0.75000  1.0000
  O   O12       1.0  0.25000  0.50000  0.75000  1.0000
  U   U1        1.0  0.50000  0.50000  0.00000  1.0000
  U   U2        1.0  0.50000  0.00000  0.50000  1.0000
  U   U3        1.0  0.00000  0.50000  0.50000  1.0000
