data_image0
_chemical_formula_structural       Cr4Sb4Se12
_chemical_formula_sum              "Cr4 Sb4 Se12"
_cell_length_a       9.29177
_cell_length_b       3.83037
_cell_length_c       13.4019
_cell_angle_alpha    90
_cell_angle_beta     90
_cell_angle_gamma    90

_space_group_name_H-M_alt    "P 1"
_space_group_IT_number       1

loop_
  _space_group_symop_operation_xyz
  'x, y, z'

loop_
  _atom_site_type_symbol
  _atom_site_label
  _atom_site_symmetry_multiplicity
  _atom_site_fract_x
  _atom_site_fract_y
  _atom_site_fract_z
  _atom_site_occupancy
  Cr  Cr1       1.0  0.34300  0.25000  0.04340  1.0000
  Cr  Cr2       1.0  0.84300  0.25000  0.45700  1.0000
  Cr  Cr3       1.0  0.15700  0.75000  0.54300  1.0000
  Cr  Cr4       1.0  0.65700  0.75000  0.95700  1.0000
  Sb  Sb1       1.0  0.02630  0.75000  0.15800  1.0000
  Sb  Sb2       1.0  0.52600  0.75000  0.34200  1.0000
  Sb  Sb3       1.0  0.47400  0.25000  0.65800  1.0000
  Sb  Sb4       1.0  0.97400  0.25000  0.84200  1.0000
  Se  Se1       1.0  0.82700  0.25000  0.01710  1.0000
  Se  Se2       1.0  0.49700  0.75000  0.10700  1.0000
  Se  Se3       1.0  0.21400  0.25000  0.21200  1.0000
  Se  Se4       1.0  0.71400  0.25000  0.28800  1.0000
  Se  Se5       1.0  0.99700  0.75000  0.39300  1.0000
  Se  Se6       1.0  0.32700  0.25000  0.48300  1.0000
  Se  Se7       1.0  0.67300  0.75000  0.51700  1.0000
  Se  Se8       1.0  0.00287  0.25000  0.60700  1.0000
  Se  Se9       1.0  0.28600  0.75000  0.71200  1.0000
  Se  Se10      1.0  0.78600  0.75000  0.78800  1.0000
  Se  Se11      1.0  0.50300  0.25000  0.89300  1.0000
  Se  Se12      1.0  0.17300  0.75000  0.98300  1.0000
