data_image0
_chemical_formula_structural       Fe8Sc4Si8
_chemical_formula_sum              "Fe8 Sc4 Si8"
_cell_length_a       7.41655
_cell_length_b       7.04713
_cell_length_c       4.97336
_cell_angle_alpha    90
_cell_angle_beta     90
_cell_angle_gamma    90

_space_group_name_H-M_alt    "P 1"
_space_group_IT_number       1

loop_
  _space_group_symop_operation_xyz
  'x, y, z'

loop_
  _atom_site_type_symbol
  _atom_site_label
  _atom_site_symmetry_multiplicity
  _atom_site_fract_x
  _atom_site_fract_y
  _atom_site_fract_z
  _atom_site_occupancy
  Fe  Fe1       1.0  0.61700  0.25000  0.00000  1.0000
  Fe  Fe2       1.0  0.38300  0.75000  0.00000  1.0000
  Fe  Fe3       1.0  0.11600  0.48900  0.25000  1.0000
  Fe  Fe4       1.0  0.88400  0.98900  0.25000  1.0000
  Fe  Fe5       1.0  0.61700  0.25000  0.50000  1.0000
  Fe  Fe6       1.0  0.38300  0.75000  0.50000  1.0000
  Fe  Fe7       1.0  0.11600  0.01140  0.75000  1.0000
  Fe  Fe8       1.0  0.88400  0.51100  0.75000  1.0000
  Sc  Sc1       1.0  0.24800  0.09410  0.25000  1.0000
  Sc  Sc2       1.0  0.75200  0.59400  0.25000  1.0000
  Sc  Sc3       1.0  0.24800  0.40600  0.75000  1.0000
  Sc  Sc4       1.0  0.75200  0.90600  0.75000  1.0000
  Si  Si1       1.0  0.95000  0.25000  0.00000  1.0000
  Si  Si2       1.0  0.04970  0.75000  0.00000  1.0000
  Si  Si3       1.0  0.41700  0.45000  0.25000  1.0000
  Si  Si4       1.0  0.58300  0.95000  0.25000  1.0000
  Si  Si5       1.0  0.95000  0.25000  0.50000  1.0000
  Si  Si6       1.0  0.04970  0.75000  0.50000  1.0000
  Si  Si7       1.0  0.41700  0.04990  0.75000  1.0000
  Si  Si8       1.0  0.58300  0.55000  0.75000  1.0000
