data_image0
_chemical_formula_structural       Ge2Na4O12Te2
_chemical_formula_sum              "Ge2 Na4 O12 Te2"
_cell_length_a       5.11917
_cell_length_b       5.11911
_cell_length_c       10.4869
_cell_angle_alpha    90
_cell_angle_beta     90
_cell_angle_gamma    120

_space_group_name_H-M_alt    "P 1"
_space_group_IT_number       1

loop_
  _space_group_symop_operation_xyz
  'x, y, z'

loop_
  _atom_site_type_symbol
  _atom_site_label
  _atom_site_symmetry_multiplicity
  _atom_site_fract_x
  _atom_site_fract_y
  _atom_site_fract_z
  _atom_site_occupancy
  Ge  Ge1       1.0  0.66700  0.33300  0.25000  1.0000
  Ge  Ge2       1.0  0.33300  0.66700  0.75000  1.0000
  Na  Na1       1.0  0.33300  0.66700  0.03760  1.0000
  Na  Na2       1.0  0.33300  0.66700  0.46200  1.0000
  Na  Na3       1.0  0.66700  0.33300  0.53800  1.0000
  Na  Na4       1.0  0.66700  0.33300  0.96200  1.0000
  O   O1        1.0  0.71400  0.05260  0.14500  1.0000
  O   O2        1.0  0.33900  0.28600  0.14500  1.0000
  O   O3        1.0  0.94700  0.66100  0.14500  1.0000
  O   O4        1.0  0.94700  0.28600  0.35500  1.0000
  O   O5        1.0  0.33900  0.05260  0.35500  1.0000
  O   O6        1.0  0.71400  0.66100  0.35500  1.0000
  O   O7        1.0  0.28600  0.33900  0.64500  1.0000
  O   O8        1.0  0.66100  0.94700  0.64500  1.0000
  O   O9        1.0  0.05260  0.71400  0.64500  1.0000
  O   O10       1.0  0.05260  0.33900  0.85500  1.0000
  O   O11       1.0  0.66100  0.71400  0.85500  1.0000
  O   O12       1.0  0.28600  0.94700  0.85500  1.0000
  Te  Te1       1.0  0.00000  0.00000  0.25000  1.0000
  Te  Te2       1.0  1.00000  1.00000  0.75000  1.0000
