data_image0
_chemical_formula_structural       C12Lu8
_chemical_formula_sum              "C12 Lu8"
_cell_length_a       6.92208
_cell_length_b       6.92208
_cell_length_c       6.92208
_cell_angle_alpha    109.471
_cell_angle_beta     109.471
_cell_angle_gamma    109.471

_space_group_name_H-M_alt    "P 1"
_space_group_IT_number       1

loop_
  _space_group_symop_operation_xyz
  'x, y, z'

loop_
  _atom_site_type_symbol
  _atom_site_label
  _atom_site_symmetry_multiplicity
  _atom_site_fract_x
  _atom_site_fract_y
  _atom_site_fract_z
  _atom_site_occupancy
  C   C1        1.0  0.25000  0.29100  0.04080  1.0000
  C   C2        1.0  0.25000  0.45900  0.20900  1.0000
  C   C3        1.0  0.04080  0.79100  0.25000  1.0000
  C   C4        1.0  0.20900  0.95900  0.25000  1.0000
  C   C5        1.0  0.75000  0.04080  0.29100  1.0000
  C   C6        1.0  0.75000  0.20900  0.45900  1.0000
  C   C7        1.0  0.79100  0.75000  0.54100  1.0000
  C   C8        1.0  0.95900  0.75000  0.70900  1.0000
  C   C9        1.0  0.29100  0.54100  0.75000  1.0000
  C   C10       1.0  0.45900  0.70900  0.75000  1.0000
  C   C11       1.0  0.54100  0.25000  0.79100  1.0000
  C   C12       1.0  0.70900  0.25000  0.95900  1.0000
  Lu  Lu1       1.0  0.40000  0.00000  0.00000  1.0000
  Lu  Lu2       1.0  0.90000  0.00000  0.00000  1.0000
  Lu  Lu3       1.0  0.60000  0.60000  0.09990  1.0000
  Lu  Lu4       1.0  0.00000  0.50000  0.40000  1.0000
  Lu  Lu5       1.0  0.50000  0.40000  0.50000  1.0000
  Lu  Lu6       1.0  0.50000  0.90000  0.50000  1.0000
  Lu  Lu7       1.0  0.09990  0.09990  0.60000  1.0000
  Lu  Lu8       1.0  0.00000  0.50000  0.90000  1.0000
