data_image0
_chemical_formula_structural       Se12Sr4Zr4
_chemical_formula_sum              "Se12 Sr4 Zr4"
_cell_length_a       9.01988
_cell_length_b       3.98208
_cell_length_c       14.5944
_cell_angle_alpha    90
_cell_angle_beta     90
_cell_angle_gamma    90

_space_group_name_H-M_alt    "P 1"
_space_group_IT_number       1

loop_
  _space_group_symop_operation_xyz
  'x, y, z'

loop_
  _atom_site_type_symbol
  _atom_site_label
  _atom_site_symmetry_multiplicity
  _atom_site_fract_x
  _atom_site_fract_y
  _atom_site_fract_z
  _atom_site_occupancy
  Se  Se1       1.0  0.16000  0.25000  0.01350  1.0000
  Se  Se2       1.0  0.48000  0.75000  0.10800  1.0000
  Se  Se3       1.0  0.79000  0.25000  0.21900  1.0000
  Se  Se4       1.0  0.29000  0.25000  0.28100  1.0000
  Se  Se5       1.0  0.98000  0.75000  0.39200  1.0000
  Se  Se6       1.0  0.66000  0.25000  0.48600  1.0000
  Se  Se7       1.0  0.34000  0.75000  0.51400  1.0000
  Se  Se8       1.0  0.02020  0.25000  0.60800  1.0000
  Se  Se9       1.0  0.71000  0.75000  0.71900  1.0000
  Se  Se10      1.0  0.21000  0.75000  0.78100  1.0000
  Se  Se11      1.0  0.52000  0.25000  0.89200  1.0000
  Se  Se12      1.0  0.84000  0.75000  0.98600  1.0000
  Sr  Sr1       1.0  0.05980  0.75000  0.17800  1.0000
  Sr  Sr2       1.0  0.56000  0.75000  0.32200  1.0000
  Sr  Sr3       1.0  0.44000  0.25000  0.67800  1.0000
  Sr  Sr4       1.0  0.94000  0.25000  0.82200  1.0000
  Zr  Zr1       1.0  0.67000  0.25000  0.05740  1.0000
  Zr  Zr2       1.0  0.17000  0.25000  0.44300  1.0000
  Zr  Zr3       1.0  0.83000  0.75000  0.55700  1.0000
  Zr  Zr4       1.0  0.33000  0.75000  0.94300  1.0000
