data_image0
_chemical_formula_structural       Br12Cd4In4
_chemical_formula_sum              "Br12 Cd4 In4"
_cell_length_a       9.53586
_cell_length_b       4.1606
_cell_length_c       15.5624
_cell_angle_alpha    90
_cell_angle_beta     90
_cell_angle_gamma    90

_space_group_name_H-M_alt    "P 1"
_space_group_IT_number       1

loop_
  _space_group_symop_operation_xyz
  'x, y, z'

loop_
  _atom_site_type_symbol
  _atom_site_label
  _atom_site_symmetry_multiplicity
  _atom_site_fract_x
  _atom_site_fract_y
  _atom_site_fract_z
  _atom_site_occupancy
  Br  Br1       1.0  0.16400  0.25000  0.00688  1.0000
  Br  Br2       1.0  0.47800  0.75000  0.10500  1.0000
  Br  Br3       1.0  0.79000  0.25000  0.21400  1.0000
  Br  Br4       1.0  0.29000  0.25000  0.28600  1.0000
  Br  Br5       1.0  0.97800  0.75000  0.39500  1.0000
  Br  Br6       1.0  0.66400  0.25000  0.49300  1.0000
  Br  Br7       1.0  0.33600  0.75000  0.50700  1.0000
  Br  Br8       1.0  0.02170  0.25000  0.60500  1.0000
  Br  Br9       1.0  0.71000  0.75000  0.71400  1.0000
  Br  Br10      1.0  0.21000  0.75000  0.78600  1.0000
  Br  Br11      1.0  0.52200  0.25000  0.89500  1.0000
  Br  Br12      1.0  0.83600  0.75000  0.99300  1.0000
  Cd  Cd1       1.0  0.66800  0.25000  0.05600  1.0000
  Cd  Cd2       1.0  0.16800  0.25000  0.44400  1.0000
  Cd  Cd3       1.0  0.83200  0.75000  0.55600  1.0000
  Cd  Cd4       1.0  0.33200  0.75000  0.94400  1.0000
  In  In1       1.0  0.05660  0.75000  0.17800  1.0000
  In  In2       1.0  0.55700  0.75000  0.32200  1.0000
  In  In3       1.0  0.44300  0.25000  0.67800  1.0000
  In  In4       1.0  0.94300  0.25000  0.82200  1.0000
