data_image0
_chemical_formula_structural       Na8O10W2
_chemical_formula_sum              "Na8 O10 W2"
_cell_length_a       5.64273
_cell_length_b       8.44301
_cell_length_c       5.62853
_cell_angle_alpha    101.458
_cell_angle_beta     102.058
_cell_angle_gamma    109.374

_space_group_name_H-M_alt    "P 1"
_space_group_IT_number       1

loop_
  _space_group_symop_operation_xyz
  'x, y, z'

loop_
  _atom_site_type_symbol
  _atom_site_label
  _atom_site_symmetry_multiplicity
  _atom_site_fract_x
  _atom_site_fract_y
  _atom_site_fract_z
  _atom_site_occupancy
  Na  Na1       1.0  1.00000  0.50000  0.00000  1.0000
  Na  Na2       1.0  0.42000  0.90400  0.21200  1.0000
  Na  Na3       1.0  0.60400  0.60200  0.30000  1.0000
  Na  Na4       1.0  0.80200  0.29300  0.41700  1.0000
  Na  Na5       1.0  1.00000  0.00000  0.50000  1.0000
  Na  Na6       1.0  0.19800  0.70700  0.58300  1.0000
  Na  Na7       1.0  0.39600  0.39800  0.70000  1.0000
  Na  Na8       1.0  0.58000  0.09580  0.78800  1.0000
  O   O1        1.0  0.53000  0.31800  0.05660  1.0000
  O   O2        1.0  0.84200  0.03730  0.11500  1.0000
  O   O3        1.0  0.98100  0.75800  0.19700  1.0000
  O   O4        1.0  0.18100  0.40400  0.31100  1.0000
  O   O5        1.0  0.37200  0.15600  0.40000  1.0000
  O   O6        1.0  0.62800  0.84400  0.60000  1.0000
  O   O7        1.0  0.81900  0.59600  0.68900  1.0000
  O   O8        1.0  0.01940  0.24200  0.80300  1.0000
  O   O9        1.0  0.15800  0.96300  0.88500  1.0000
  O   O10       1.0  0.47000  0.68200  0.94300  1.0000
  W   W1        1.0  0.20400  0.20800  0.10500  1.0000
  W   W2        1.0  0.79600  0.79200  0.89500  1.0000
