data_image0
_chemical_formula_structural       Ir2La4Ni2O12
_chemical_formula_sum              "Ir2 La4 Ni2 O12"
_cell_length_a       5.54661
_cell_length_b       5.64449
_cell_length_c       7.87069
_cell_angle_alpha    90
_cell_angle_beta     89.8541
_cell_angle_gamma    90

_space_group_name_H-M_alt    "P 1"
_space_group_IT_number       1

loop_
  _space_group_symop_operation_xyz
  'x, y, z'

loop_
  _atom_site_type_symbol
  _atom_site_label
  _atom_site_symmetry_multiplicity
  _atom_site_fract_x
  _atom_site_fract_y
  _atom_site_fract_z
  _atom_site_occupancy
  Ir  Ir1       1.0  0.50000  0.00000  1.00000  1.0000
  Ir  Ir2       1.0  0.00000  0.50000  0.50000  1.0000
  La  La1       1.0  0.99000  0.04970  0.24900  1.0000
  La  La2       1.0  0.51000  0.55000  0.25100  1.0000
  La  La3       1.0  0.49000  0.45000  0.74900  1.0000
  La  La4       1.0  0.01040  0.95000  0.75100  1.0000
  Ni  Ni1       1.0  0.00000  0.50000  0.00000  1.0000
  Ni  Ni2       1.0  0.50000  0.00000  0.50000  1.0000
  O   O1        1.0  0.70100  0.29300  0.04610  1.0000
  O   O2        1.0  0.79400  0.79500  0.04650  1.0000
  O   O3        1.0  0.41300  0.98100  0.25000  1.0000
  O   O4        1.0  0.08690  0.48100  0.25000  1.0000
  O   O5        1.0  0.70600  0.29500  0.45400  1.0000
  O   O6        1.0  0.79900  0.79300  0.45400  1.0000
  O   O7        1.0  0.20100  0.20700  0.54600  1.0000
  O   O8        1.0  0.29400  0.70500  0.54600  1.0000
  O   O9        1.0  0.91300  0.51900  0.75000  1.0000
  O   O10       1.0  0.58700  0.01940  0.75000  1.0000
  O   O11       1.0  0.20600  0.20500  0.95400  1.0000
  O   O12       1.0  0.29900  0.70700  0.95400  1.0000
