data_image0
_chemical_formula_structural       Ba4Li6N8Ta2
_chemical_formula_sum              "Ba4 Li6 N8 Ta2"
_cell_length_a       5.66006
_cell_length_b       6.31172
_cell_length_c       10.0981
_cell_angle_alpha    95.6404
_cell_angle_beta     106.275
_cell_angle_gamma    63.3604

_space_group_name_H-M_alt    "P 1"
_space_group_IT_number       1

loop_
  _space_group_symop_operation_xyz
  'x, y, z'

loop_
  _atom_site_type_symbol
  _atom_site_label
  _atom_site_symmetry_multiplicity
  _atom_site_fract_x
  _atom_site_fract_y
  _atom_site_fract_z
  _atom_site_occupancy
  Ba  Ba1       1.0  0.17500  0.69400  0.11200  1.0000
  Ba  Ba2       1.0  0.75700  0.80600  0.38800  1.0000
  Ba  Ba3       1.0  0.24300  0.19400  0.61200  1.0000
  Ba  Ba4       1.0  0.82500  0.30600  0.88800  1.0000
  Li  Li1       1.0  0.57200  0.80900  0.04190  1.0000
  Li  Li2       1.0  0.63200  0.25000  0.25000  1.0000
  Li  Li3       1.0  0.33900  0.69100  0.45800  1.0000
  Li  Li4       1.0  0.66100  0.30900  0.54200  1.0000
  Li  Li5       1.0  0.36800  0.75000  0.75000  1.0000
  Li  Li6       1.0  0.42800  0.19100  0.95800  1.0000
  N   N1        1.0  0.32200  0.11000  0.11300  1.0000
  N   N2        1.0  0.74200  0.49200  0.16100  1.0000
  N   N3        1.0  0.07310  0.00766  0.33900  1.0000
  N   N4        1.0  0.31800  0.39000  0.38700  1.0000
  N   N5        1.0  0.68200  0.61000  0.61300  1.0000
  N   N6        1.0  0.92700  0.99200  0.66100  1.0000
  N   N7        1.0  0.25800  0.50800  0.83900  1.0000
  N   N8        1.0  0.67800  0.89000  0.88700  1.0000
  Ta  Ta1       1.0  0.11200  0.25000  0.25000  1.0000
  Ta  Ta2       1.0  0.88800  0.75000  0.75000  1.0000
