data_image0
_chemical_formula_structural       Cr4Nd4S12
_chemical_formula_sum              "Cr4 Nd4 S12"
_cell_length_a       7.77257
_cell_length_b       3.78524
_cell_length_c       13.0241
_cell_angle_alpha    90
_cell_angle_beta     90
_cell_angle_gamma    90

_space_group_name_H-M_alt    "P 1"
_space_group_IT_number       1

loop_
  _space_group_symop_operation_xyz
  'x, y, z'

loop_
  _atom_site_type_symbol
  _atom_site_label
  _atom_site_symmetry_multiplicity
  _atom_site_fract_x
  _atom_site_fract_y
  _atom_site_fract_z
  _atom_site_occupancy
  Cr  Cr1       1.0  0.66300  0.75000  0.05170  1.0000
  Cr  Cr2       1.0  0.16300  0.75000  0.44800  1.0000
  Cr  Cr3       1.0  0.83700  0.25000  0.55200  1.0000
  Cr  Cr4       1.0  0.33700  0.25000  0.94800  1.0000
  Nd  Nd1       1.0  0.08910  0.25000  0.17200  1.0000
  Nd  Nd2       1.0  0.58900  0.25000  0.32800  1.0000
  Nd  Nd3       1.0  0.41100  0.75000  0.67200  1.0000
  Nd  Nd4       1.0  0.91100  0.75000  0.82800  1.0000
  S   S1        1.0  0.15900  0.75000  0.00532  1.0000
  S   S2        1.0  0.48900  0.25000  0.10600  1.0000
  S   S3        1.0  0.80600  0.75000  0.21300  1.0000
  S   S4        1.0  0.30600  0.75000  0.28700  1.0000
  S   S5        1.0  0.98900  0.25000  0.39400  1.0000
  S   S6        1.0  0.65900  0.75000  0.49500  1.0000
  S   S7        1.0  0.34100  0.25000  0.50500  1.0000
  S   S8        1.0  0.01080  0.75000  0.60600  1.0000
  S   S9        1.0  0.69400  0.25000  0.71300  1.0000
  S   S10       1.0  0.19400  0.25000  0.78700  1.0000
  S   S11       1.0  0.51100  0.75000  0.89400  1.0000
  S   S12       1.0  0.84100  0.25000  0.99500  1.0000
