data_image0
_chemical_formula_structural       Dy4Ni6Si10
_chemical_formula_sum              "Dy4 Ni6 Si10"
_cell_length_a       5.64172
_cell_length_b       7.85601
_cell_length_c       7.85601
_cell_angle_alpha    105.027
_cell_angle_beta     111.043
_cell_angle_gamma    68.9569

_space_group_name_H-M_alt    "P 1"
_space_group_IT_number       1

loop_
  _space_group_symop_operation_xyz
  'x, y, z'

loop_
  _atom_site_type_symbol
  _atom_site_label
  _atom_site_symmetry_multiplicity
  _atom_site_fract_x
  _atom_site_fract_y
  _atom_site_fract_z
  _atom_site_occupancy
  Dy  Dy1       1.0  0.36900  0.36800  0.10500  1.0000
  Dy  Dy2       1.0  0.13100  0.10500  0.36800  1.0000
  Dy  Dy3       1.0  0.86900  0.89500  0.63200  1.0000
  Dy  Dy4       1.0  0.63100  0.63200  0.89500  1.0000
  Ni  Ni1       1.0  0.13500  0.75300  0.02230  1.0000
  Ni  Ni2       1.0  0.63500  0.97800  0.24700  1.0000
  Ni  Ni3       1.0  0.25000  0.50000  0.50000  1.0000
  Ni  Ni4       1.0  0.75000  0.50000  0.50000  1.0000
  Ni  Ni5       1.0  0.36500  0.02230  0.75300  1.0000
  Ni  Ni6       1.0  0.86500  0.24700  0.97800  1.0000
  Si  Si1       1.0  0.25000  0.00000  0.00000  1.0000
  Si  Si2       1.0  0.75000  0.00000  0.00000  1.0000
  Si  Si3       1.0  0.89300  0.45500  0.24000  1.0000
  Si  Si4       1.0  0.01710  0.73300  0.26700  1.0000
  Si  Si5       1.0  0.51700  0.73300  0.26700  1.0000
  Si  Si6       1.0  0.60700  0.24000  0.45500  1.0000
  Si  Si7       1.0  0.39300  0.76000  0.54500  1.0000
  Si  Si8       1.0  0.48300  0.26700  0.73300  1.0000
  Si  Si9       1.0  0.98300  0.26700  0.73300  1.0000
  Si  Si10      1.0  0.10700  0.54500  0.76000  1.0000
