data_image0
_chemical_formula_structural       Ca2O12Si4Zn2
_chemical_formula_sum              "Ca2 O12 Si4 Zn2"
_cell_length_a       5.24293
_cell_length_b       6.62801
_cell_length_c       6.62801
_cell_angle_alpha    95.4641
_cell_angle_beta     101.372
_cell_angle_gamma    78.628

_space_group_name_H-M_alt    "P 1"
_space_group_IT_number       1

loop_
  _space_group_symop_operation_xyz
  'x, y, z'

loop_
  _atom_site_type_symbol
  _atom_site_label
  _atom_site_symmetry_multiplicity
  _atom_site_fract_x
  _atom_site_fract_y
  _atom_site_fract_z
  _atom_site_occupancy
  Ca  Ca1       1.0  0.75000  0.30100  0.30100  1.0000
  Ca  Ca2       1.0  0.25000  0.69900  0.69900  1.0000
  O   O1        1.0  0.14600  0.79300  0.02590  1.0000
  O   O2        1.0  0.32600  0.38900  0.10800  1.0000
  O   O3        1.0  0.64600  0.97400  0.20700  1.0000
  O   O4        1.0  0.99200  0.62600  0.33100  1.0000
  O   O5        1.0  0.49200  0.66900  0.37400  1.0000
  O   O6        1.0  0.17400  0.10800  0.38900  1.0000
  O   O7        1.0  0.82600  0.89200  0.61100  1.0000
  O   O8        1.0  0.50800  0.33100  0.62600  1.0000
  O   O9        1.0  0.00759  0.37400  0.66900  1.0000
  O   O10       1.0  0.35400  0.02590  0.79300  1.0000
  O   O11       1.0  0.67400  0.61100  0.89200  1.0000
  O   O12       1.0  0.85400  0.20700  0.97400  1.0000
  Si  Si1       1.0  0.23000  0.62000  0.19300  1.0000
  Si  Si2       1.0  0.73000  0.80700  0.38000  1.0000
  Si  Si3       1.0  0.27000  0.19300  0.62000  1.0000
  Si  Si4       1.0  0.77000  0.38000  0.80700  1.0000
  Zn  Zn1       1.0  0.25000  0.09340  0.09340  1.0000
  Zn  Zn2       1.0  0.75000  0.90700  0.90700  1.0000
