data_image0
_chemical_formula_structural       Ge10Ru6Y4
_chemical_formula_sum              "Ge10 Ru6 Y4"
_cell_length_a       5.78153
_cell_length_b       8.47654
_cell_length_c       8.47654
_cell_angle_alpha    95.0752
_cell_angle_beta     109.94
_cell_angle_gamma    109.94

_space_group_name_H-M_alt    "P 1"
_space_group_IT_number       1

loop_
  _space_group_symop_operation_xyz
  'x, y, z'

loop_
  _atom_site_type_symbol
  _atom_site_label
  _atom_site_symmetry_multiplicity
  _atom_site_fract_x
  _atom_site_fract_y
  _atom_site_fract_z
  _atom_site_occupancy
  Ge  Ge1       1.0  0.25000  0.00000  0.00000  1.0000
  Ge  Ge2       1.0  0.75000  0.00000  0.00000  1.0000
  Ge  Ge3       1.0  0.82400  0.41200  0.23600  1.0000
  Ge  Ge4       1.0  0.25000  0.70700  0.29300  1.0000
  Ge  Ge5       1.0  0.75000  0.70700  0.29300  1.0000
  Ge  Ge6       1.0  0.32400  0.23600  0.41200  1.0000
  Ge  Ge7       1.0  0.67600  0.76400  0.58800  1.0000
  Ge  Ge8       1.0  0.25000  0.29300  0.70700  1.0000
  Ge  Ge9       1.0  0.75000  0.29300  0.70700  1.0000
  Ge  Ge10      1.0  0.17600  0.58800  0.76400  1.0000
  Ru  Ru1       1.0  0.40900  0.76100  0.05610  1.0000
  Ru  Ru2       1.0  0.09120  0.94400  0.23900  1.0000
  Ru  Ru3       1.0  0.25000  0.50000  0.50000  1.0000
  Ru  Ru4       1.0  0.75000  0.50000  0.50000  1.0000
  Ru  Ru5       1.0  0.90900  0.05610  0.76100  1.0000
  Ru  Ru6       1.0  0.59100  0.23900  0.94400  1.0000
  Y   Y1        1.0  0.23100  0.37100  0.09180  1.0000
  Y   Y2        1.0  0.73100  0.09180  0.37100  1.0000
  Y   Y3        1.0  0.26900  0.90800  0.62900  1.0000
  Y   Y4        1.0  0.76900  0.62900  0.90800  1.0000
