data_image0
_chemical_formula_structural       Ba4Li6N8Nb2
_chemical_formula_sum              "Ba4 Li6 N8 Nb2"
_cell_length_a       5.66719
_cell_length_b       6.31331
_cell_length_c       10.1015
_cell_angle_alpha    95.6275
_cell_angle_beta     106.291
_cell_angle_gamma    63.3314

_space_group_name_H-M_alt    "P 1"
_space_group_IT_number       1

loop_
  _space_group_symop_operation_xyz
  'x, y, z'

loop_
  _atom_site_type_symbol
  _atom_site_label
  _atom_site_symmetry_multiplicity
  _atom_site_fract_x
  _atom_site_fract_y
  _atom_site_fract_z
  _atom_site_occupancy
  Ba  Ba1       1.0  0.17200  0.69400  0.11200  1.0000
  Ba  Ba2       1.0  0.75300  0.80600  0.38800  1.0000
  Ba  Ba3       1.0  0.24700  0.19400  0.61200  1.0000
  Ba  Ba4       1.0  0.82800  0.30600  0.88800  1.0000
  Li  Li1       1.0  0.56800  0.80900  0.04120  1.0000
  Li  Li2       1.0  0.63300  0.25000  0.25000  1.0000
  Li  Li3       1.0  0.33600  0.69100  0.45900  1.0000
  Li  Li4       1.0  0.66400  0.30900  0.54100  1.0000
  Li  Li5       1.0  0.36700  0.75000  0.75000  1.0000
  Li  Li6       1.0  0.43200  0.19100  0.95900  1.0000
  N   N1        1.0  0.32100  0.11100  0.11200  1.0000
  N   N2        1.0  0.74000  0.49400  0.16100  1.0000
  N   N3        1.0  0.07310  0.00613  0.33900  1.0000
  N   N4        1.0  0.32100  0.38900  0.38800  1.0000
  N   N5        1.0  0.67900  0.61100  0.61200  1.0000
  N   N6        1.0  0.92700  0.99400  0.66100  1.0000
  N   N7        1.0  0.26000  0.50600  0.83900  1.0000
  N   N8        1.0  0.67900  0.88900  0.88800  1.0000
  Nb  Nb1       1.0  0.11200  0.25000  0.25000  1.0000
  Nb  Nb2       1.0  0.88800  0.75000  0.75000  1.0000
