data_image0
_chemical_formula_structural       Li2O12Si4Ti2
_chemical_formula_sum              "Li2 O12 Si4 Ti2"
_cell_length_a       5.27212
_cell_length_b       6.50478
_cell_length_c       6.50478
_cell_angle_alpha    97.0681
_cell_angle_beta     104.362
_cell_angle_gamma    75.6381

_space_group_name_H-M_alt    "P 1"
_space_group_IT_number       1

loop_
  _space_group_symop_operation_xyz
  'x, y, z'

loop_
  _atom_site_type_symbol
  _atom_site_label
  _atom_site_symmetry_multiplicity
  _atom_site_fract_x
  _atom_site_fract_y
  _atom_site_fract_z
  _atom_site_occupancy
  Li  Li1       1.0  0.75000  0.26700  0.26700  1.0000
  Li  Li2       1.0  0.25000  0.73300  0.73300  1.0000
  O   O1        1.0  0.16100  0.78400  0.02730  1.0000
  O   O2        1.0  0.33700  0.36500  0.10900  1.0000
  O   O3        1.0  0.66100  0.97300  0.21600  1.0000
  O   O4        1.0  0.56300  0.63900  0.35800  1.0000
  O   O5        1.0  0.06270  0.64200  0.36100  1.0000
  O   O6        1.0  0.16300  0.10900  0.36500  1.0000
  O   O7        1.0  0.83700  0.89100  0.63500  1.0000
  O   O8        1.0  0.93700  0.35800  0.63900  1.0000
  O   O9        1.0  0.43700  0.36100  0.64200  1.0000
  O   O10       1.0  0.33900  0.02730  0.78400  1.0000
  O   O11       1.0  0.66300  0.63500  0.89100  1.0000
  O   O12       1.0  0.83900  0.21600  0.97300  1.0000
  Si  Si1       1.0  0.27500  0.60600  0.20700  1.0000
  Si  Si2       1.0  0.77500  0.79300  0.39400  1.0000
  Si  Si3       1.0  0.22500  0.20700  0.60600  1.0000
  Si  Si4       1.0  0.72500  0.39400  0.79300  1.0000
  Ti  Ti1       1.0  0.25000  0.08490  0.08490  1.0000
  Ti  Ti2       1.0  0.75000  0.91500  0.91500  1.0000
