data_image0
_chemical_formula_structural       Cl12Cs4Pd4
_chemical_formula_sum              "Cl12 Cs4 Pd4"
_cell_length_a       8.64917
_cell_length_b       9.74314
_cell_length_c       9.74314
_cell_angle_alpha    90.4848
_cell_angle_beta     116.35
_cell_angle_gamma    116.35

_space_group_name_H-M_alt    "P 1"
_space_group_IT_number       1

loop_
  _space_group_symop_operation_xyz
  'x, y, z'

loop_
  _atom_site_type_symbol
  _atom_site_label
  _atom_site_symmetry_multiplicity
  _atom_site_fract_x
  _atom_site_fract_y
  _atom_site_fract_z
  _atom_site_occupancy
  Cl  Cl1       1.0  0.28000  0.48900  0.07220  1.0000
  Cl  Cl2       1.0  0.65100  0.15600  0.14600  1.0000
  Cl  Cl3       1.0  0.15100  0.14600  0.15600  1.0000
  Cl  Cl4       1.0  0.93700  0.54300  0.33200  1.0000
  Cl  Cl5       1.0  0.56300  0.66800  0.45700  1.0000
  Cl  Cl6       1.0  0.78000  0.07220  0.48900  1.0000
  Cl  Cl7       1.0  0.22000  0.92800  0.51100  1.0000
  Cl  Cl8       1.0  0.43700  0.33200  0.54300  1.0000
  Cl  Cl9       1.0  0.06260  0.45700  0.66800  1.0000
  Cl  Cl10      1.0  0.84900  0.85400  0.84400  1.0000
  Cl  Cl11      1.0  0.34900  0.84400  0.85400  1.0000
  Cl  Cl12      1.0  0.72000  0.51100  0.92800  1.0000
  Cs  Cs1       1.0  0.25000  0.82400  0.17600  1.0000
  Cs  Cs2       1.0  0.75000  0.82400  0.17600  1.0000
  Cs  Cs3       1.0  0.25000  0.17600  0.82400  1.0000
  Cs  Cs4       1.0  0.75000  0.17600  0.82400  1.0000
  Pd  Pd1       1.0  0.35400  0.40500  0.30200  1.0000
  Pd  Pd2       1.0  0.85400  0.30200  0.40500  1.0000
  Pd  Pd3       1.0  0.14600  0.69800  0.59500  1.0000
  Pd  Pd4       1.0  0.64600  0.59500  0.69800  1.0000
