data_image0
_chemical_formula_structural       Gd8Se12
_chemical_formula_sum              "Gd8 Se12"
_cell_length_a       11.2386
_cell_length_b       4.06318
_cell_length_c       11.003
_cell_angle_alpha    90
_cell_angle_beta     90
_cell_angle_gamma    90

_space_group_name_H-M_alt    "P 1"
_space_group_IT_number       1

loop_
  _space_group_symop_operation_xyz
  'x, y, z'

loop_
  _atom_site_type_symbol
  _atom_site_label
  _atom_site_symmetry_multiplicity
  _atom_site_fract_x
  _atom_site_fract_y
  _atom_site_fract_z
  _atom_site_occupancy
  Gd  Gd1       1.0  0.19400  0.75000  0.00155  1.0000
  Gd  Gd2       1.0  0.48700  0.25000  0.18700  1.0000
  Gd  Gd3       1.0  0.98700  0.25000  0.31300  1.0000
  Gd  Gd4       1.0  0.69400  0.75000  0.49800  1.0000
  Gd  Gd5       1.0  0.30600  0.25000  0.50200  1.0000
  Gd  Gd6       1.0  0.01270  0.75000  0.68700  1.0000
  Gd  Gd7       1.0  0.51300  0.75000  0.81300  1.0000
  Gd  Gd8       1.0  0.80600  0.25000  0.99800  1.0000
  Se  Se1       1.0  0.62000  0.75000  0.05620  1.0000
  Se  Se2       1.0  0.95500  0.75000  0.12500  1.0000
  Se  Se3       1.0  0.22700  0.25000  0.19700  1.0000
  Se  Se4       1.0  0.72700  0.25000  0.30300  1.0000
  Se  Se5       1.0  0.45500  0.75000  0.37500  1.0000
  Se  Se6       1.0  0.12000  0.75000  0.44400  1.0000
  Se  Se7       1.0  0.88000  0.25000  0.55600  1.0000
  Se  Se8       1.0  0.54500  0.25000  0.62500  1.0000
  Se  Se9       1.0  0.27300  0.75000  0.69700  1.0000
  Se  Se10      1.0  0.77300  0.75000  0.80300  1.0000
  Se  Se11      1.0  0.04450  0.25000  0.87500  1.0000
  Se  Se12      1.0  0.38000  0.25000  0.94400  1.0000
