data_image0
_chemical_formula_structural       Ir2Lu2O12Sr4
_chemical_formula_sum              "Ir2 Lu2 O12 Sr4"
_cell_length_a       5.73374
_cell_length_b       5.73618
_cell_length_c       8.11266
_cell_angle_alpha    90
_cell_angle_beta     90.1684
_cell_angle_gamma    90

_space_group_name_H-M_alt    "P 1"
_space_group_IT_number       1

loop_
  _space_group_symop_operation_xyz
  'x, y, z'

loop_
  _atom_site_type_symbol
  _atom_site_label
  _atom_site_symmetry_multiplicity
  _atom_site_fract_x
  _atom_site_fract_y
  _atom_site_fract_z
  _atom_site_occupancy
  Ir  Ir1       1.0  0.50000  0.00000  1.00000  1.0000
  Ir  Ir2       1.0  1.00000  0.50000  0.50000  1.0000
  Lu  Lu1       1.0  0.00000  0.50000  0.00000  1.0000
  Lu  Lu2       1.0  0.50000  0.00000  0.50000  1.0000
  O   O1        1.0  0.77200  0.79300  0.03260  1.0000
  O   O2        1.0  0.70600  0.27300  0.03350  1.0000
  O   O3        1.0  0.43700  0.98800  0.23900  1.0000
  O   O4        1.0  0.06300  0.48800  0.26100  1.0000
  O   O5        1.0  0.79400  0.77300  0.46700  1.0000
  O   O6        1.0  0.72800  0.29300  0.46700  1.0000
  O   O7        1.0  0.27200  0.70700  0.53300  1.0000
  O   O8        1.0  0.20600  0.22700  0.53300  1.0000
  O   O9        1.0  0.93700  0.51200  0.73900  1.0000
  O   O10       1.0  0.56300  0.01230  0.76100  1.0000
  O   O11       1.0  0.29400  0.72700  0.96700  1.0000
  O   O12       1.0  0.22800  0.20700  0.96700  1.0000
  Sr  Sr1       1.0  0.50500  0.52700  0.25000  1.0000
  Sr  Sr2       1.0  0.99500  0.02670  0.25000  1.0000
  Sr  Sr3       1.0  0.00495  0.97300  0.75000  1.0000
  Sr  Sr4       1.0  0.49500  0.47300  0.75000  1.0000
