data_image0
_chemical_formula_structural       Ho4Ni6Si10
_chemical_formula_sum              "Ho4 Ni6 Si10"
_cell_length_a       5.62047
_cell_length_b       7.82492
_cell_length_c       7.82492
_cell_angle_alpha    89.8633
_cell_angle_beta     111.047
_cell_angle_gamma    111.047

_space_group_name_H-M_alt    "P 1"
_space_group_IT_number       1

loop_
  _space_group_symop_operation_xyz
  'x, y, z'

loop_
  _atom_site_type_symbol
  _atom_site_label
  _atom_site_symmetry_multiplicity
  _atom_site_fract_x
  _atom_site_fract_y
  _atom_site_fract_z
  _atom_site_occupancy
  Ho  Ho1       1.0  0.23800  0.36900  0.10700  1.0000
  Ho  Ho2       1.0  0.73800  0.10700  0.36900  1.0000
  Ho  Ho3       1.0  0.26200  0.89300  0.63100  1.0000
  Ho  Ho4       1.0  0.76200  0.63100  0.89300  1.0000
  Ni  Ni1       1.0  0.38500  0.75200  0.01880  1.0000
  Ni  Ni2       1.0  0.11500  0.98100  0.24800  1.0000
  Ni  Ni3       1.0  0.25000  0.50000  0.50000  1.0000
  Ni  Ni4       1.0  0.75000  0.50000  0.50000  1.0000
  Ni  Ni5       1.0  0.88500  0.01880  0.75200  1.0000
  Ni  Ni6       1.0  0.61500  0.24800  0.98100  1.0000
  Si  Si1       1.0  0.25000  0.00000  0.00000  1.0000
  Si  Si2       1.0  0.75000  0.00000  0.00000  1.0000
  Si  Si3       1.0  0.84900  0.45700  0.24100  1.0000
  Si  Si4       1.0  0.25000  0.73600  0.26400  1.0000
  Si  Si5       1.0  0.75000  0.73600  0.26400  1.0000
  Si  Si6       1.0  0.34900  0.24100  0.45700  1.0000
  Si  Si7       1.0  0.65100  0.75900  0.54300  1.0000
  Si  Si8       1.0  0.25000  0.26400  0.73600  1.0000
  Si  Si9       1.0  0.75000  0.26400  0.73600  1.0000
  Si  Si10      1.0  0.15100  0.54300  0.75900  1.0000
