data_image0
_chemical_formula_structural       C12Tm8
_chemical_formula_sum              "C12 Tm8"
_cell_length_a       6.99195
_cell_length_b       6.99195
_cell_length_c       6.99195
_cell_angle_alpha    109.471
_cell_angle_beta     109.471
_cell_angle_gamma    109.471

_space_group_name_H-M_alt    "P 1"
_space_group_IT_number       1

loop_
  _space_group_symop_operation_xyz
  'x, y, z'

loop_
  _atom_site_type_symbol
  _atom_site_label
  _atom_site_symmetry_multiplicity
  _atom_site_fract_x
  _atom_site_fract_y
  _atom_site_fract_z
  _atom_site_occupancy
  C   C1        1.0  0.25000  0.29200  0.04170  1.0000
  C   C2        1.0  0.25000  0.45800  0.20800  1.0000
  C   C3        1.0  0.04170  0.79200  0.25000  1.0000
  C   C4        1.0  0.20800  0.95800  0.25000  1.0000
  C   C5        1.0  0.75000  0.04170  0.29200  1.0000
  C   C6        1.0  0.75000  0.20800  0.45800  1.0000
  C   C7        1.0  0.79200  0.75000  0.54200  1.0000
  C   C8        1.0  0.95800  0.75000  0.70800  1.0000
  C   C9        1.0  0.29200  0.54200  0.75000  1.0000
  C   C10       1.0  0.45800  0.70800  0.75000  1.0000
  C   C11       1.0  0.54200  0.25000  0.79200  1.0000
  C   C12       1.0  0.70800  0.25000  0.95800  1.0000
  Tm  Tm1       1.0  0.40000  0.00000  0.00000  1.0000
  Tm  Tm2       1.0  0.90000  0.00000  0.00000  1.0000
  Tm  Tm3       1.0  0.60000  0.60000  0.09990  1.0000
  Tm  Tm4       1.0  0.00000  0.50000  0.40000  1.0000
  Tm  Tm5       1.0  0.50000  0.40000  0.50000  1.0000
  Tm  Tm6       1.0  0.50000  0.90000  0.50000  1.0000
  Tm  Tm7       1.0  0.09990  0.09990  0.60000  1.0000
  Tm  Tm8       1.0  0.00000  0.50000  0.90000  1.0000
