data_image0
_chemical_formula_structural       Rb8Te12
_chemical_formula_sum              "Rb8 Te12"
_cell_length_a       16.236
_cell_length_b       10.9055
_cell_length_c       4.72657
_cell_angle_alpha    90
_cell_angle_beta     90
_cell_angle_gamma    90

_space_group_name_H-M_alt    "P 1"
_space_group_IT_number       1

loop_
  _space_group_symop_operation_xyz
  'x, y, z'

loop_
  _atom_site_type_symbol
  _atom_site_label
  _atom_site_symmetry_multiplicity
  _atom_site_fract_x
  _atom_site_fract_y
  _atom_site_fract_z
  _atom_site_occupancy
  Rb  Rb1       1.0  0.87600  0.02990  0.22000  1.0000
  Rb  Rb2       1.0  0.87600  0.47000  0.22000  1.0000
  Rb  Rb3       1.0  0.37600  0.02990  0.28000  1.0000
  Rb  Rb4       1.0  0.37600  0.47000  0.28000  1.0000
  Rb  Rb5       1.0  0.62400  0.53000  0.72000  1.0000
  Rb  Rb6       1.0  0.62400  0.97000  0.72000  1.0000
  Rb  Rb7       1.0  0.12400  0.53000  0.78000  1.0000
  Rb  Rb8       1.0  0.12400  0.97000  0.78000  1.0000
  Te  Te1       1.0  0.62400  0.25000  0.17800  1.0000
  Te  Te2       1.0  0.51400  0.75000  0.20000  1.0000
  Te  Te3       1.0  0.24000  0.75000  0.21400  1.0000
  Te  Te4       1.0  0.74000  0.75000  0.28600  1.0000
  Te  Te5       1.0  0.01450  0.75000  0.30000  1.0000
  Te  Te6       1.0  0.12400  0.25000  0.32200  1.0000
  Te  Te7       1.0  0.87600  0.75000  0.67800  1.0000
  Te  Te8       1.0  0.98600  0.25000  0.70000  1.0000
  Te  Te9       1.0  0.26000  0.25000  0.71400  1.0000
  Te  Te10      1.0  0.76000  0.25000  0.78600  1.0000
  Te  Te11      1.0  0.48600  0.25000  0.80000  1.0000
  Te  Te12      1.0  0.37600  0.75000  0.82200  1.0000
