data_image0
_chemical_formula_structural       Mn6O12W2
_chemical_formula_sum              "Mn6 O12 W2"
_cell_length_a       6.20612
_cell_length_b       6.20612
_cell_length_c       6.20612
_cell_angle_alpha    91.5488
_cell_angle_beta     91.5488
_cell_angle_gamma    91.5489

_space_group_name_H-M_alt    "P 1"
_space_group_IT_number       1

loop_
  _space_group_symop_operation_xyz
  'x, y, z'

loop_
  _atom_site_type_symbol
  _atom_site_label
  _atom_site_symmetry_multiplicity
  _atom_site_fract_x
  _atom_site_fract_y
  _atom_site_fract_z
  _atom_site_occupancy
  Mn  Mn1       1.0  0.56100  0.25100  0.06300  1.0000
  Mn  Mn2       1.0  0.06300  0.56100  0.25100  1.0000
  Mn  Mn3       1.0  0.74900  0.93700  0.43900  1.0000
  Mn  Mn4       1.0  0.25100  0.06300  0.56100  1.0000
  Mn  Mn5       1.0  0.93700  0.43900  0.74900  1.0000
  Mn  Mn6       1.0  0.43900  0.74900  0.93700  1.0000
  O   O1        1.0  0.70500  0.92200  0.06810  1.0000
  O   O2        1.0  0.93200  0.29500  0.07800  1.0000
  O   O3        1.0  0.40900  0.55300  0.20500  1.0000
  O   O4        1.0  0.07800  0.93200  0.29500  1.0000
  O   O5        1.0  0.55300  0.20500  0.40900  1.0000
  O   O6        1.0  0.79500  0.59100  0.44700  1.0000
  O   O7        1.0  0.20500  0.40900  0.55300  1.0000
  O   O8        1.0  0.44700  0.79500  0.59100  1.0000
  O   O9        1.0  0.92200  0.06810  0.70500  1.0000
  O   O10       1.0  0.59100  0.44700  0.79500  1.0000
  O   O11       1.0  0.06810  0.70500  0.92200  1.0000
  O   O12       1.0  0.29500  0.07800  0.93200  1.0000
  W   W1        1.0  0.00000  0.00000  0.00000  1.0000
  W   W2        1.0  0.50000  0.50000  0.50000  1.0000
