data_image0
_chemical_formula_structural       Cs4Se12Te4
_chemical_formula_sum              "Cs4 Se12 Te4"
_cell_length_a       7.634
_cell_length_b       6.8223
_cell_length_c       13.5928
_cell_angle_alpha    90
_cell_angle_beta     95.6627
_cell_angle_gamma    90

_space_group_name_H-M_alt    "P 1"
_space_group_IT_number       1

loop_
  _space_group_symop_operation_xyz
  'x, y, z'

loop_
  _atom_site_type_symbol
  _atom_site_label
  _atom_site_symmetry_multiplicity
  _atom_site_fract_x
  _atom_site_fract_y
  _atom_site_fract_z
  _atom_site_occupancy
  Cs  Cs1       1.0  0.86000  0.39100  0.14200  1.0000
  Cs  Cs2       1.0  0.14000  0.89100  0.35800  1.0000
  Cs  Cs3       1.0  0.86000  0.10900  0.64200  1.0000
  Cs  Cs4       1.0  0.14000  0.60900  0.85800  1.0000
  Se  Se1       1.0  0.88200  0.90500  0.02950  1.0000
  Se  Se2       1.0  0.45300  0.69800  0.08030  1.0000
  Se  Se3       1.0  0.35000  0.50400  0.21000  1.0000
  Se  Se4       1.0  0.65000  0.00372  0.29000  1.0000
  Se  Se5       1.0  0.54700  0.19800  0.42000  1.0000
  Se  Se6       1.0  0.11800  0.40500  0.47100  1.0000
  Se  Se7       1.0  0.88200  0.59500  0.52900  1.0000
  Se  Se8       1.0  0.45300  0.80200  0.58000  1.0000
  Se  Se9       1.0  0.35000  0.99600  0.71000  1.0000
  Se  Se10      1.0  0.65000  0.49600  0.79000  1.0000
  Se  Se11      1.0  0.54700  0.30200  0.92000  1.0000
  Se  Se12      1.0  0.11800  0.09480  0.97100  1.0000
  Te  Te1       1.0  0.37600  0.06620  0.12600  1.0000
  Te  Te2       1.0  0.62400  0.56600  0.37400  1.0000
  Te  Te3       1.0  0.37600  0.43400  0.62600  1.0000
  Te  Te4       1.0  0.62400  0.93400  0.87400  1.0000
