data_image0
_chemical_formula_structural       Ge10Ir6Y4
_chemical_formula_sum              "Ge10 Ir6 Y4"
_cell_length_a       6.03277
_cell_length_b       8.38138
_cell_length_c       8.38138
_cell_angle_alpha    90.7491
_cell_angle_beta     68.9065
_cell_angle_gamma    111.094

_space_group_name_H-M_alt    "P 1"
_space_group_IT_number       1

loop_
  _space_group_symop_operation_xyz
  'x, y, z'

loop_
  _atom_site_type_symbol
  _atom_site_label
  _atom_site_symmetry_multiplicity
  _atom_site_fract_x
  _atom_site_fract_y
  _atom_site_fract_z
  _atom_site_occupancy
  Ge  Ge1       1.0  0.25000  0.00000  0.00000  1.0000
  Ge  Ge2       1.0  0.75000  0.00000  0.00000  1.0000
  Ge  Ge3       1.0  0.16200  0.56400  0.23900  1.0000
  Ge  Ge4       1.0  0.25000  0.27700  0.27700  1.0000
  Ge  Ge5       1.0  0.75000  0.27700  0.27700  1.0000
  Ge  Ge6       1.0  0.66200  0.76100  0.43600  1.0000
  Ge  Ge7       1.0  0.33800  0.23900  0.56400  1.0000
  Ge  Ge8       1.0  0.25000  0.72300  0.72300  1.0000
  Ge  Ge9       1.0  0.75000  0.72300  0.72300  1.0000
  Ge  Ge10      1.0  0.83800  0.43600  0.76100  1.0000
  Ir  Ir1       1.0  0.61100  0.25300  0.03100  1.0000
  Ir  Ir2       1.0  0.88900  0.03100  0.25300  1.0000
  Ir  Ir3       1.0  0.25000  0.50000  0.50000  1.0000
  Ir  Ir4       1.0  0.75000  0.50000  0.50000  1.0000
  Ir  Ir5       1.0  0.11100  0.96900  0.74700  1.0000
  Ir  Ir6       1.0  0.38900  0.74700  0.96900  1.0000
  Y   Y1        1.0  0.77400  0.64000  0.09220  1.0000
  Y   Y2        1.0  0.27400  0.90800  0.36000  1.0000
  Y   Y3        1.0  0.72600  0.09220  0.64000  1.0000
  Y   Y4        1.0  0.22600  0.36000  0.90800  1.0000
