data_image0
_chemical_formula_structural       S12Tb8
_chemical_formula_sum              "S12 Tb8"
_cell_length_a       10.7009
_cell_length_b       3.89191
_cell_length_c       10.4791
_cell_angle_alpha    90
_cell_angle_beta     90
_cell_angle_gamma    90

_space_group_name_H-M_alt    "P 1"
_space_group_IT_number       1

loop_
  _space_group_symop_operation_xyz
  'x, y, z'

loop_
  _atom_site_type_symbol
  _atom_site_label
  _atom_site_symmetry_multiplicity
  _atom_site_fract_x
  _atom_site_fract_y
  _atom_site_fract_z
  _atom_site_occupancy
  S   S1        1.0  0.62000  0.75000  0.05540  1.0000
  S   S2        1.0  0.95400  0.75000  0.12600  1.0000
  S   S3        1.0  0.22800  0.25000  0.19700  1.0000
  S   S4        1.0  0.72800  0.25000  0.30300  1.0000
  S   S5        1.0  0.45400  0.75000  0.37400  1.0000
  S   S6        1.0  0.12000  0.75000  0.44500  1.0000
  S   S7        1.0  0.88000  0.25000  0.55500  1.0000
  S   S8        1.0  0.54600  0.25000  0.62600  1.0000
  S   S9        1.0  0.27200  0.75000  0.69700  1.0000
  S   S10       1.0  0.77200  0.75000  0.80300  1.0000
  S   S11       1.0  0.04580  0.25000  0.87400  1.0000
  S   S12       1.0  0.38000  0.25000  0.94500  1.0000
  Tb  Tb1       1.0  0.19200  0.75000  0.00426  1.0000
  Tb  Tb2       1.0  0.49000  0.25000  0.18700  1.0000
  Tb  Tb3       1.0  0.99000  0.25000  0.31300  1.0000
  Tb  Tb4       1.0  0.69200  0.75000  0.49600  1.0000
  Tb  Tb5       1.0  0.30800  0.25000  0.50400  1.0000
  Tb  Tb6       1.0  0.00997  0.75000  0.68700  1.0000
  Tb  Tb7       1.0  0.51000  0.75000  0.81300  1.0000
  Tb  Tb8       1.0  0.80800  0.25000  0.99600  1.0000
