data_image0
_chemical_formula_structural       B2K3Nb3O12
_chemical_formula_sum              "B2 K3 Nb3 O12"
_cell_length_a       8.78162
_cell_length_b       8.78162
_cell_length_c       3.9033
_cell_angle_alpha    89.9981
_cell_angle_beta     89.9981
_cell_angle_gamma    120.03

_space_group_name_H-M_alt    "P 1"
_space_group_IT_number       1

loop_
  _space_group_symop_operation_xyz
  'x, y, z'

loop_
  _atom_site_type_symbol
  _atom_site_label
  _atom_site_symmetry_multiplicity
  _atom_site_fract_x
  _atom_site_fract_y
  _atom_site_fract_z
  _atom_site_occupancy
  B   B1        1.0  0.33300  0.66700  0.99000  1.0000
  B   B2        1.0  0.66700  0.33300  0.99000  1.0000
  K   K1        1.0  0.59500  0.00000  0.49100  1.0000
  K   K2        1.0  0.00000  0.59500  0.49100  1.0000
  K   K3        1.0  0.40500  0.40500  0.49100  1.0000
  Nb  Nb1       1.0  0.24800  0.00000  0.99200  1.0000
  Nb  Nb2       1.0  0.00000  0.24800  0.99200  1.0000
  Nb  Nb3       1.0  0.75200  0.75200  0.99200  1.0000
  O   O1        1.0  0.50700  0.18300  0.99000  1.0000
  O   O2        1.0  0.81700  0.32400  0.99100  1.0000
  O   O3        1.0  0.67600  0.49300  0.99100  1.0000
  O   O4        1.0  0.18300  0.50700  0.99000  1.0000
  O   O5        1.0  0.49300  0.67600  0.99100  1.0000
  O   O6        1.0  0.32400  0.81700  0.99100  1.0000
  O   O7        1.0  0.26300  0.00000  0.49100  1.0000
  O   O8        1.0  0.00000  0.26300  0.49100  1.0000
  O   O9        1.0  0.73700  0.73700  0.49100  1.0000
  O   O10       1.0  0.81500  0.00000  0.99000  1.0000
  O   O11       1.0  0.00000  0.81500  0.99000  1.0000
  O   O12       1.0  0.18500  0.18500  0.99000  1.0000
