data_image0
_chemical_formula_structural       Cr4La4Sb12
_chemical_formula_sum              "Cr4 La4 Sb12"
_cell_length_a       13.3383
_cell_length_b       6.27891
_cell_length_c       6.16032
_cell_angle_alpha    90
_cell_angle_beta     90
_cell_angle_gamma    90

_space_group_name_H-M_alt    "P 1"
_space_group_IT_number       1

loop_
  _space_group_symop_operation_xyz
  'x, y, z'

loop_
  _atom_site_type_symbol
  _atom_site_label
  _atom_site_symmetry_multiplicity
  _atom_site_fract_x
  _atom_site_fract_y
  _atom_site_fract_z
  _atom_site_occupancy
  Cr  Cr1       1.0  0.90900  0.25000  0.00000  1.0000
  Cr  Cr2       1.0  0.09080  0.75000  0.00000  1.0000
  Cr  Cr3       1.0  0.90900  0.25000  0.50000  1.0000
  Cr  Cr4       1.0  0.09080  0.75000  0.50000  1.0000
  La  La1       1.0  0.30700  0.00331  0.25000  1.0000
  La  La2       1.0  0.69300  0.50300  0.25000  1.0000
  La  La3       1.0  0.30700  0.49700  0.75000  1.0000
  La  La4       1.0  0.69300  0.99700  0.75000  1.0000
  Sb  Sb1       1.0  0.50100  0.25000  0.00000  1.0000
  Sb  Sb2       1.0  0.49900  0.75000  0.00000  1.0000
  Sb  Sb3       1.0  0.78400  0.00194  0.25000  1.0000
  Sb  Sb4       1.0  0.06180  0.10000  0.25000  1.0000
  Sb  Sb5       1.0  0.21600  0.50200  0.25000  1.0000
  Sb  Sb6       1.0  0.93800  0.60000  0.25000  1.0000
  Sb  Sb7       1.0  0.50100  0.25000  0.50000  1.0000
  Sb  Sb8       1.0  0.49900  0.75000  0.50000  1.0000
  Sb  Sb9       1.0  0.06180  0.40000  0.75000  1.0000
  Sb  Sb10      1.0  0.78400  0.49800  0.75000  1.0000
  Sb  Sb11      1.0  0.93800  0.90000  0.75000  1.0000
  Sb  Sb12      1.0  0.21600  0.99800  0.75000  1.0000
