data_image0
_chemical_formula_structural       Ge14Re6
_chemical_formula_sum              "Ge14 Re6"
_cell_length_a       3.25613
_cell_length_b       4.84007
_cell_length_c       22.0846
_cell_angle_alpha    90
_cell_angle_beta     90
_cell_angle_gamma    70.344

_space_group_name_H-M_alt    "P 1"
_space_group_IT_number       1

loop_
  _space_group_symop_operation_xyz
  'x, y, z'

loop_
  _atom_site_type_symbol
  _atom_site_label
  _atom_site_symmetry_multiplicity
  _atom_site_fract_x
  _atom_site_fract_y
  _atom_site_fract_z
  _atom_site_occupancy
  Ge  Ge1       1.0  0.35400  0.29200  0.03210  1.0000
  Ge  Ge2       1.0  0.67500  0.64900  0.13700  1.0000
  Ge  Ge3       1.0  0.94000  0.11900  0.16200  1.0000
  Ge  Ge4       1.0  0.23800  0.52400  0.25000  1.0000
  Ge  Ge5       1.0  0.94000  0.11900  0.33800  1.0000
  Ge  Ge6       1.0  0.67500  0.64900  0.36300  1.0000
  Ge  Ge7       1.0  0.35400  0.29200  0.46800  1.0000
  Ge  Ge8       1.0  0.64600  0.70800  0.53200  1.0000
  Ge  Ge9       1.0  0.32500  0.35100  0.63700  1.0000
  Ge  Ge10      1.0  0.05970  0.88100  0.66200  1.0000
  Ge  Ge11      1.0  0.76200  0.47600  0.75000  1.0000
  Ge  Ge12      1.0  0.05970  0.88100  0.83800  1.0000
  Ge  Ge13      1.0  0.32500  0.35100  0.86300  1.0000
  Ge  Ge14      1.0  0.64600  0.70800  0.96800  1.0000
  Re  Re1       1.0  0.07330  0.85300  0.05940  1.0000
  Re  Re2       1.0  0.52000  0.96000  0.25000  1.0000
  Re  Re3       1.0  0.07330  0.85300  0.44100  1.0000
  Re  Re4       1.0  0.92700  0.14700  0.55900  1.0000
  Re  Re5       1.0  0.48000  0.04010  0.75000  1.0000
  Re  Re6       1.0  0.92700  0.14700  0.94100  1.0000
