data_image0
_chemical_formula_structural       Se12Sm8
_chemical_formula_sum              "Se12 Sm8"
_cell_length_a       11.3755
_cell_length_b       4.11912
_cell_length_c       11.0774
_cell_angle_alpha    90
_cell_angle_beta     90
_cell_angle_gamma    90

_space_group_name_H-M_alt    "P 1"
_space_group_IT_number       1

loop_
  _space_group_symop_operation_xyz
  'x, y, z'

loop_
  _atom_site_type_symbol
  _atom_site_label
  _atom_site_symmetry_multiplicity
  _atom_site_fract_x
  _atom_site_fract_y
  _atom_site_fract_z
  _atom_site_occupancy
  Se  Se1       1.0  0.88000  0.75000  0.05590  1.0000
  Se  Se2       1.0  0.54500  0.75000  0.12500  1.0000
  Se  Se3       1.0  0.27200  0.25000  0.19900  1.0000
  Se  Se4       1.0  0.77200  0.25000  0.30100  1.0000
  Se  Se5       1.0  0.04460  0.75000  0.37500  1.0000
  Se  Se6       1.0  0.38000  0.75000  0.44400  1.0000
  Se  Se7       1.0  0.62000  0.25000  0.55600  1.0000
  Se  Se8       1.0  0.95500  0.25000  0.62500  1.0000
  Se  Se9       1.0  0.22800  0.75000  0.69900  1.0000
  Se  Se10      1.0  0.72800  0.75000  0.80100  1.0000
  Se  Se11      1.0  0.45500  0.25000  0.87500  1.0000
  Se  Se12      1.0  0.12000  0.25000  0.94400  1.0000
  Sm  Sm1       1.0  0.30600  0.75000  0.00232  1.0000
  Sm  Sm2       1.0  0.01190  0.25000  0.18700  1.0000
  Sm  Sm3       1.0  0.51200  0.25000  0.31300  1.0000
  Sm  Sm4       1.0  0.80600  0.75000  0.49800  1.0000
  Sm  Sm5       1.0  0.19400  0.25000  0.50200  1.0000
  Sm  Sm6       1.0  0.48800  0.75000  0.68700  1.0000
  Sm  Sm7       1.0  0.98800  0.75000  0.81300  1.0000
  Sm  Sm8       1.0  0.69400  0.25000  0.99800  1.0000
