data_image0
_chemical_formula_structural       Al4Au16
_chemical_formula_sum              "Al4 Au16"
_cell_length_a       7.02248
_cell_length_b       7.02248
_cell_length_c       7.02248
_cell_angle_alpha    90
_cell_angle_beta     90
_cell_angle_gamma    90

_space_group_name_H-M_alt    "P 1"
_space_group_IT_number       1

loop_
  _space_group_symop_operation_xyz
  'x, y, z'

loop_
  _atom_site_type_symbol
  _atom_site_label
  _atom_site_symmetry_multiplicity
  _atom_site_fract_x
  _atom_site_fract_y
  _atom_site_fract_z
  _atom_site_occupancy
  Al  Al1       1.0  0.81300  0.31300  0.18700  1.0000
  Al  Al2       1.0  0.18700  0.81300  0.31300  1.0000
  Al  Al3       1.0  0.68700  0.68700  0.68700  1.0000
  Al  Al4       1.0  0.31300  0.18700  0.81300  1.0000
  Au  Au1       1.0  0.86600  0.70000  0.03600  1.0000
  Au  Au2       1.0  0.06760  0.06760  0.06760  1.0000
  Au  Au3       1.0  0.20000  0.46400  0.13400  1.0000
  Au  Au4       1.0  0.46400  0.13400  0.20000  1.0000
  Au  Au5       1.0  0.53600  0.63400  0.30000  1.0000
  Au  Au6       1.0  0.80000  0.96400  0.36600  1.0000
  Au  Au7       1.0  0.93200  0.56800  0.43200  1.0000
  Au  Au8       1.0  0.13400  0.20000  0.46400  1.0000
  Au  Au9       1.0  0.63400  0.30000  0.53600  1.0000
  Au  Au10      1.0  0.43200  0.93200  0.56800  1.0000
  Au  Au11      1.0  0.30000  0.53600  0.63400  1.0000
  Au  Au12      1.0  0.03600  0.86600  0.70000  1.0000
  Au  Au13      1.0  0.96400  0.36600  0.80000  1.0000
  Au  Au14      1.0  0.70000  0.03600  0.86600  1.0000
  Au  Au15      1.0  0.56800  0.43200  0.93200  1.0000
  Au  Au16      1.0  0.36600  0.80000  0.96400  1.0000
