data_image0
_chemical_formula_structural       B4Ba2O12Zr2
_chemical_formula_sum              "B4 Ba2 O12 Zr2"
_cell_length_a       5.18668
_cell_length_b       5.18668
_cell_length_c       11.5826
_cell_angle_alpha    102.938
_cell_angle_beta     90
_cell_angle_gamma    60

_space_group_name_H-M_alt    "P 1"
_space_group_IT_number       1

loop_
  _space_group_symop_operation_xyz
  'x, y, z'

loop_
  _atom_site_type_symbol
  _atom_site_label
  _atom_site_symmetry_multiplicity
  _atom_site_fract_x
  _atom_site_fract_y
  _atom_site_fract_z
  _atom_site_occupancy
  B   B1        1.0  0.62000  0.76100  0.14100  1.0000
  B   B2        1.0  0.88000  0.24000  0.36000  1.0000
  B   B3        1.0  0.12000  0.76100  0.64100  1.0000
  B   B4        1.0  0.38000  0.24000  0.86000  1.0000
  Ba  Ba1       1.0  0.99990  0.00019  0.00029  1.0000
  Ba  Ba2       1.0  0.50000  0.00020  0.50000  1.0000
  O   O1        1.0  0.41300  0.66800  0.13900  1.0000
  O   O2        1.0  0.91900  0.55200  0.13900  1.0000
  O   O3        1.0  0.53000  0.05770  0.13900  1.0000
  O   O4        1.0  0.97100  0.94300  0.36200  1.0000
  O   O5        1.0  0.58000  0.44900  0.36200  1.0000
  O   O6        1.0  0.08630  0.33300  0.36200  1.0000
  O   O7        1.0  0.41900  0.66800  0.63900  1.0000
  O   O8        1.0  0.02960  0.55200  0.63900  1.0000
  O   O9        1.0  0.91300  0.05770  0.63900  1.0000
  O   O10       1.0  0.58600  0.94300  0.86200  1.0000
  O   O11       1.0  0.47100  0.44900  0.86200  1.0000
  O   O12       1.0  0.08050  0.33300  0.86200  1.0000
  Zr  Zr1       1.0  0.25000  0.50000  0.25000  1.0000
  Zr  Zr2       1.0  0.75000  0.50000  0.75000  1.0000
