data_image0
_chemical_formula_structural       Ce4S6
_chemical_formula_sum              "Ce4 S6"
_cell_length_a       7.31642
_cell_length_b       7.31642
_cell_length_c       7.66833
_cell_angle_alpha    118.493
_cell_angle_beta     61.5068
_cell_angle_gamma    120

_space_group_name_H-M_alt    "P 1"
_space_group_IT_number       1

loop_
  _space_group_symop_operation_xyz
  'x, y, z'

loop_
  _atom_site_type_symbol
  _atom_site_label
  _atom_site_symmetry_multiplicity
  _atom_site_fract_x
  _atom_site_fract_y
  _atom_site_fract_z
  _atom_site_occupancy
  Ce  Ce1       1.0  0.64500  0.35500  0.06360  1.0000
  Ce  Ce2       1.0  0.85500  0.14500  0.43600  1.0000
  Ce  Ce3       1.0  0.14500  0.85500  0.56400  1.0000
  Ce  Ce4       1.0  0.35500  0.64500  0.93600  1.0000
  S   S1        1.0  0.54400  0.75000  0.25000  1.0000
  S   S2        1.0  0.95600  0.45600  0.25000  1.0000
  S   S3        1.0  0.25000  0.04370  0.25000  1.0000
  S   S4        1.0  0.75000  0.95600  0.75000  1.0000
  S   S5        1.0  0.04370  0.54400  0.75000  1.0000
  S   S6        1.0  0.45600  0.25000  0.75000  1.0000
