data_image0
_chemical_formula_structural       Au4Cd4Rb4S8
_chemical_formula_sum              "Au4 Cd4 Rb4 S8"
_cell_length_a       13.88
_cell_length_b       5.84501
_cell_length_c       6.86423
_cell_angle_alpha    90
_cell_angle_beta     90
_cell_angle_gamma    90

_space_group_name_H-M_alt    "P 1"
_space_group_IT_number       1

loop_
  _space_group_symop_operation_xyz
  'x, y, z'

loop_
  _atom_site_type_symbol
  _atom_site_label
  _atom_site_symmetry_multiplicity
  _atom_site_fract_x
  _atom_site_fract_y
  _atom_site_fract_z
  _atom_site_occupancy
  Au  Au1       1.0  0.25000  0.50000  0.18300  1.0000
  Au  Au2       1.0  0.75000  0.50000  0.31700  1.0000
  Au  Au3       1.0  0.25000  0.50000  0.68300  1.0000
  Au  Au4       1.0  0.75000  0.50000  0.81700  1.0000
  Cd  Cd1       1.0  0.75000  0.00000  0.06310  1.0000
  Cd  Cd2       1.0  0.25000  0.00000  0.43700  1.0000
  Cd  Cd3       1.0  0.75000  0.00000  0.56300  1.0000
  Cd  Cd4       1.0  0.25000  0.00000  0.93700  1.0000
  Rb  Rb1       1.0  0.00000  0.27800  0.25000  1.0000
  Rb  Rb2       1.0  0.50000  0.72200  0.25000  1.0000
  Rb  Rb3       1.0  0.50000  0.27800  0.75000  1.0000
  Rb  Rb4       1.0  0.00000  0.72200  0.75000  1.0000
  S   S1        1.0  0.36400  0.20600  0.18500  1.0000
  S   S2        1.0  0.13600  0.79400  0.18500  1.0000
  S   S3        1.0  0.63600  0.20600  0.31500  1.0000
  S   S4        1.0  0.86400  0.79400  0.31500  1.0000
  S   S5        1.0  0.13600  0.20600  0.68500  1.0000
  S   S6        1.0  0.36400  0.79400  0.68500  1.0000
  S   S7        1.0  0.86400  0.20600  0.81500  1.0000
  S   S8        1.0  0.63600  0.79400  0.81500  1.0000
