data_image0
_chemical_formula_structural       Al5Ge8Yb7
_chemical_formula_sum              "Al5 Ge8 Yb7"
_cell_length_a       4.26706
_cell_length_b       8.30507
_cell_length_c       12.8435
_cell_angle_alpha    95.5134
_cell_angle_beta     90
_cell_angle_gamma    104.886

_space_group_name_H-M_alt    "P 1"
_space_group_IT_number       1

loop_
  _space_group_symop_operation_xyz
  'x, y, z'

loop_
  _atom_site_type_symbol
  _atom_site_label
  _atom_site_symmetry_multiplicity
  _atom_site_fract_x
  _atom_site_fract_y
  _atom_site_fract_z
  _atom_site_occupancy
  Al  Al1       1.0  0.60900  0.21900  0.17100  1.0000
  Al  Al2       1.0  0.22400  0.44700  0.30100  1.0000
  Al  Al3       1.0  0.50000  0.00000  0.50000  1.0000
  Al  Al4       1.0  0.77600  0.55300  0.69900  1.0000
  Al  Al5       1.0  0.39100  0.78100  0.82900  1.0000
  Ge  Ge1       1.0  0.17600  0.35100  0.10500  1.0000
  Ge  Ge2       1.0  0.44700  0.89300  0.14100  1.0000
  Ge  Ge3       1.0  0.38700  0.77400  0.31600  1.0000
  Ge  Ge4       1.0  0.65200  0.30400  0.38000  1.0000
  Ge  Ge5       1.0  0.34800  0.69600  0.62000  1.0000
  Ge  Ge6       1.0  0.61300  0.22600  0.68400  1.0000
  Ge  Ge7       1.0  0.55300  0.10700  0.85900  1.0000
  Ge  Ge8       1.0  0.82400  0.64900  0.89500  1.0000
  Yb  Yb1       1.0  0.00000  0.00000  0.00000  1.0000
  Yb  Yb2       1.0  0.81100  0.62300  0.13300  1.0000
  Yb  Yb3       1.0  0.01740  0.03480  0.29800  1.0000
  Yb  Yb4       1.0  0.84000  0.68000  0.45800  1.0000
  Yb  Yb5       1.0  0.16000  0.32000  0.54200  1.0000
  Yb  Yb6       1.0  0.98300  0.96500  0.70200  1.0000
  Yb  Yb7       1.0  0.18900  0.37700  0.86700  1.0000
