data_image0
_chemical_formula_structural       B6O12Pr2
_chemical_formula_sum              "B6 O12 Pr2"
_cell_length_a       6.35148
_cell_length_b       6.35148
_cell_length_c       6.35333
_cell_angle_alpha    117.122
_cell_angle_beta     62.8775
_cell_angle_gamma    100.715

_space_group_name_H-M_alt    "P 1"
_space_group_IT_number       1

loop_
  _space_group_symop_operation_xyz
  'x, y, z'

loop_
  _atom_site_type_symbol
  _atom_site_label
  _atom_site_symmetry_multiplicity
  _atom_site_fract_x
  _atom_site_fract_y
  _atom_site_fract_z
  _atom_site_occupancy
  B   B1        1.0  0.84200  0.29200  0.08410  1.0000
  B   B2        1.0  0.72100  0.72100  0.25000  1.0000
  B   B3        1.0  0.29200  0.84200  0.41600  1.0000
  B   B4        1.0  0.70800  0.15800  0.58400  1.0000
  B   B5        1.0  0.27900  0.27900  0.75000  1.0000
  B   B6        1.0  0.15800  0.70800  0.91600  1.0000
  O   O1        1.0  0.28800  0.88800  0.00077  1.0000
  O   O2        1.0  0.91400  0.71000  0.00688  1.0000
  O   O3        1.0  0.50500  0.71700  0.21100  1.0000
  O   O4        1.0  0.71700  0.50500  0.28900  1.0000
  O   O5        1.0  0.71000  0.91400  0.49300  1.0000
  O   O6        1.0  0.88800  0.28800  0.49900  1.0000
  O   O7        1.0  0.11200  0.71200  0.50100  1.0000
  O   O8        1.0  0.29000  0.08630  0.50700  1.0000
  O   O9        1.0  0.28300  0.49500  0.71100  1.0000
  O   O10       1.0  0.49500  0.28300  0.78900  1.0000
  O   O11       1.0  0.08630  0.29000  0.99300  1.0000
  O   O12       1.0  0.71200  0.11200  0.99900  1.0000
  Pr  Pr1       1.0  0.30300  0.30300  0.25000  1.0000
  Pr  Pr2       1.0  0.69700  0.69700  0.75000  1.0000
