data_image0
_chemical_formula_structural       Ni8Se4Ta4Te4
_chemical_formula_sum              "Ni8 Se4 Ta4 Te4"
_cell_length_a       6.48965
_cell_length_b       3.50296
_cell_length_c       16.4549
_cell_angle_alpha    90
_cell_angle_beta     90
_cell_angle_gamma    90

_space_group_name_H-M_alt    "P 1"
_space_group_IT_number       1

loop_
  _space_group_symop_operation_xyz
  'x, y, z'

loop_
  _atom_site_type_symbol
  _atom_site_label
  _atom_site_symmetry_multiplicity
  _atom_site_fract_x
  _atom_site_fract_y
  _atom_site_fract_z
  _atom_site_occupancy
  Ni  Ni1       1.0  0.71400  0.75000  0.17900  1.0000
  Ni  Ni2       1.0  0.10400  0.75000  0.18000  1.0000
  Ni  Ni3       1.0  0.60400  0.75000  0.32000  1.0000
  Ni  Ni4       1.0  0.21400  0.75000  0.32100  1.0000
  Ni  Ni5       1.0  0.78600  0.25000  0.67900  1.0000
  Ni  Ni6       1.0  0.39600  0.25000  0.68000  1.0000
  Ni  Ni7       1.0  0.89600  0.25000  0.82000  1.0000
  Ni  Ni8       1.0  0.28600  0.25000  0.82100  1.0000
  Se  Se1       1.0  0.40900  0.75000  0.09880  1.0000
  Se  Se2       1.0  0.90900  0.75000  0.40100  1.0000
  Se  Se3       1.0  0.09080  0.25000  0.59900  1.0000
  Se  Se4       1.0  0.59100  0.25000  0.90100  1.0000
  Ta  Ta1       1.0  0.40700  0.25000  0.22100  1.0000
  Ta  Ta2       1.0  0.90700  0.25000  0.27900  1.0000
  Ta  Ta3       1.0  0.09260  0.75000  0.72100  1.0000
  Ta  Ta4       1.0  0.59300  0.75000  0.77900  1.0000
  Te  Te1       1.0  0.91000  0.25000  0.09690  1.0000
  Te  Te2       1.0  0.41000  0.25000  0.40300  1.0000
  Te  Te3       1.0  0.59000  0.75000  0.59700  1.0000
  Te  Te4       1.0  0.09000  0.75000  0.90300  1.0000
