data_image0
_chemical_formula_structural       B4Cs2O12Ta2
_chemical_formula_sum              "B4 Cs2 O12 Ta2"
_cell_length_a       7.59616
_cell_length_b       3.88552
_cell_length_c       9.8107
_cell_angle_alpha    90
_cell_angle_beta     90
_cell_angle_gamma    90

_space_group_name_H-M_alt    "P 1"
_space_group_IT_number       1

loop_
  _space_group_symop_operation_xyz
  'x, y, z'

loop_
  _atom_site_type_symbol
  _atom_site_label
  _atom_site_symmetry_multiplicity
  _atom_site_fract_x
  _atom_site_fract_y
  _atom_site_fract_z
  _atom_site_occupancy
  B   B1        1.0  0.16300  0.00849  0.06260  1.0000
  B   B2        1.0  0.83700  0.00849  0.06260  1.0000
  B   B3        1.0  0.33700  0.99200  0.56300  1.0000
  B   B4        1.0  0.66300  0.99200  0.56300  1.0000
  Cs  Cs1       1.0  0.00000  0.51700  0.38500  1.0000
  Cs  Cs2       1.0  0.50000  0.48300  0.88500  1.0000
  O   O1        1.0  0.00000  0.02260  0.13000  1.0000
  O   O2        1.0  0.30800  0.05720  0.14000  1.0000
  O   O3        1.0  0.69200  0.05720  0.14000  1.0000
  O   O4        1.0  0.50000  0.55400  0.27100  1.0000
  O   O5        1.0  0.32200  0.04710  0.42600  1.0000
  O   O6        1.0  0.67800  0.04710  0.42600  1.0000
  O   O7        1.0  0.50000  0.97700  0.63000  1.0000
  O   O8        1.0  0.19200  0.94300  0.64000  1.0000
  O   O9        1.0  0.80800  0.94300  0.64000  1.0000
  O   O10       1.0  0.00000  0.44600  0.77100  1.0000
  O   O11       1.0  0.17800  0.95300  0.92600  1.0000
  O   O12       1.0  0.82200  0.95300  0.92600  1.0000
  Ta  Ta1       1.0  0.50000  0.06420  0.27400  1.0000
  Ta  Ta2       1.0  0.00000  0.93600  0.77400  1.0000
