data_image0
_chemical_formula_structural       Au6O4Rb10
_chemical_formula_sum              "Au6 O4 Rb10"
_cell_length_a       7.42291
_cell_length_b       14.4353
_cell_length_c       5.71025
_cell_angle_alpha    90
_cell_angle_beta     90
_cell_angle_gamma    90

_space_group_name_H-M_alt    "P 1"
_space_group_IT_number       1

loop_
  _space_group_symop_operation_xyz
  'x, y, z'

loop_
  _atom_site_type_symbol
  _atom_site_label
  _atom_site_symmetry_multiplicity
  _atom_site_fract_x
  _atom_site_fract_y
  _atom_site_fract_z
  _atom_site_occupancy
  Au  Au1       1.0  0.00000  0.00000  0.00000  1.0000
  Au  Au2       1.0  0.50000  0.50000  0.00000  1.0000
  Au  Au3       1.0  0.35200  0.14400  0.50000  1.0000
  Au  Au4       1.0  0.85200  0.35600  0.50000  1.0000
  Au  Au5       1.0  0.14800  0.64400  0.50000  1.0000
  Au  Au6       1.0  0.64800  0.85600  0.50000  1.0000
  O   O1        1.0  0.82400  0.10900  0.00000  1.0000
  O   O2        1.0  0.32400  0.39100  0.00000  1.0000
  O   O3        1.0  0.67600  0.60900  0.00000  1.0000
  O   O4        1.0  0.17600  0.89100  0.00000  1.0000
  Rb  Rb1       1.0  0.50000  0.00000  0.00000  1.0000
  Rb  Rb2       1.0  0.11400  0.23500  0.00000  1.0000
  Rb  Rb3       1.0  0.61400  0.26500  0.00000  1.0000
  Rb  Rb4       1.0  0.00000  0.50000  0.00000  1.0000
  Rb  Rb5       1.0  0.38600  0.73500  0.00000  1.0000
  Rb  Rb6       1.0  0.88600  0.76500  0.00000  1.0000
  Rb  Rb7       1.0  0.82800  0.10400  0.50000  1.0000
  Rb  Rb8       1.0  0.32800  0.39600  0.50000  1.0000
  Rb  Rb9       1.0  0.67200  0.60400  0.50000  1.0000
  Rb  Rb10      1.0  0.17200  0.89600  0.50000  1.0000
