data_image0
_chemical_formula_structural       Ca4Fe2O12Sb2
_chemical_formula_sum              "Ca4 Fe2 O12 Sb2"
_cell_length_a       5.42251
_cell_length_b       5.5533
_cell_length_c       7.72912
_cell_angle_alpha    90
_cell_angle_beta     89.7777
_cell_angle_gamma    90

_space_group_name_H-M_alt    "P 1"
_space_group_IT_number       1

loop_
  _space_group_symop_operation_xyz
  'x, y, z'

loop_
  _atom_site_type_symbol
  _atom_site_label
  _atom_site_symmetry_multiplicity
  _atom_site_fract_x
  _atom_site_fract_y
  _atom_site_fract_z
  _atom_site_occupancy
  Ca  Ca1       1.0  0.48800  0.55200  0.24900  1.0000
  Ca  Ca2       1.0  0.01240  0.05170  0.25100  1.0000
  Ca  Ca3       1.0  0.98800  0.94800  0.74900  1.0000
  Ca  Ca4       1.0  0.51200  0.44800  0.75100  1.0000
  Fe  Fe1       1.0  0.50000  0.00000  1.00000  1.0000
  Fe  Fe2       1.0  1.00000  0.50000  0.50000  1.0000
  O   O1        1.0  0.29800  0.29800  0.04790  1.0000
  O   O2        1.0  0.19800  0.79600  0.04910  1.0000
  O   O3        1.0  0.90600  0.47000  0.24900  1.0000
  O   O4        1.0  0.59400  0.97000  0.25100  1.0000
  O   O5        1.0  0.30200  0.29600  0.45100  1.0000
  O   O6        1.0  0.20200  0.79800  0.45200  1.0000
  O   O7        1.0  0.79800  0.20200  0.54800  1.0000
  O   O8        1.0  0.69800  0.70400  0.54900  1.0000
  O   O9        1.0  0.40600  0.02970  0.74900  1.0000
  O   O10       1.0  0.09350  0.53000  0.75100  1.0000
  O   O11       1.0  0.80200  0.20400  0.95100  1.0000
  O   O12       1.0  0.70200  0.70200  0.95200  1.0000
  Sb  Sb1       1.0  0.00000  0.50000  0.00000  1.0000
  Sb  Sb2       1.0  0.50000  0.00000  0.50000  1.0000
