data_image0
_chemical_formula_structural       I12Rb4Yb4
_chemical_formula_sum              "I12 Rb4 Yb4"
_cell_length_a       10.5579
_cell_length_b       4.68172
_cell_length_c       17.5234
_cell_angle_alpha    90
_cell_angle_beta     90
_cell_angle_gamma    90

_space_group_name_H-M_alt    "P 1"
_space_group_IT_number       1

loop_
  _space_group_symop_operation_xyz
  'x, y, z'

loop_
  _atom_site_type_symbol
  _atom_site_label
  _atom_site_symmetry_multiplicity
  _atom_site_fract_x
  _atom_site_fract_y
  _atom_site_fract_z
  _atom_site_occupancy
  I   I1        1.0  0.33400  0.75000  0.01130  1.0000
  I   I2        1.0  0.01880  0.25000  0.10300  1.0000
  I   I3        1.0  0.70600  0.75000  0.21100  1.0000
  I   I4        1.0  0.20600  0.75000  0.28900  1.0000
  I   I5        1.0  0.51900  0.25000  0.39700  1.0000
  I   I6        1.0  0.83400  0.75000  0.48900  1.0000
  I   I7        1.0  0.16600  0.25000  0.51100  1.0000
  I   I8        1.0  0.48100  0.75000  0.60300  1.0000
  I   I9        1.0  0.79400  0.25000  0.71100  1.0000
  I   I10       1.0  0.29400  0.25000  0.78900  1.0000
  I   I11       1.0  0.98100  0.75000  0.89700  1.0000
  I   I12       1.0  0.66600  0.25000  0.98900  1.0000
  Rb  Rb1       1.0  0.42700  0.25000  0.17900  1.0000
  Rb  Rb2       1.0  0.92700  0.25000  0.32100  1.0000
  Rb  Rb3       1.0  0.07330  0.75000  0.67900  1.0000
  Rb  Rb4       1.0  0.57300  0.75000  0.82100  1.0000
  Yb  Yb1       1.0  0.83200  0.75000  0.05440  1.0000
  Yb  Yb2       1.0  0.33200  0.75000  0.44600  1.0000
  Yb  Yb3       1.0  0.66800  0.25000  0.55400  1.0000
  Yb  Yb4       1.0  0.16800  0.25000  0.94600  1.0000
