data_image0
_chemical_formula_structural       Cu16Pd4
_chemical_formula_sum              "Cu16 Pd4"
_cell_length_a       5.85035
_cell_length_b       5.85035
_cell_length_c       7.29883
_cell_angle_alpha    90
_cell_angle_beta     90
_cell_angle_gamma    90

_space_group_name_H-M_alt    "P 1"
_space_group_IT_number       1

loop_
  _space_group_symop_operation_xyz
  'x, y, z'

loop_
  _atom_site_type_symbol
  _atom_site_label
  _atom_site_symmetry_multiplicity
  _atom_site_fract_x
  _atom_site_fract_y
  _atom_site_fract_z
  _atom_site_occupancy
  Cu  Cu1       1.0  0.00000  0.00000  0.00000  1.0000
  Cu  Cu2       1.0  0.80900  0.39500  0.00000  1.0000
  Cu  Cu3       1.0  0.19100  0.60500  0.00000  1.0000
  Cu  Cu4       1.0  0.09670  0.29700  0.24900  1.0000
  Cu  Cu5       1.0  0.90300  0.70300  0.24900  1.0000
  Cu  Cu6       1.0  0.50000  0.50000  0.25000  1.0000
  Cu  Cu7       1.0  0.70300  0.09670  0.25100  1.0000
  Cu  Cu8       1.0  0.29700  0.90300  0.25100  1.0000
  Cu  Cu9       1.0  0.00000  0.00000  0.50000  1.0000
  Cu  Cu10      1.0  0.39500  0.19100  0.50000  1.0000
  Cu  Cu11      1.0  0.60500  0.80900  0.50000  1.0000
  Cu  Cu12      1.0  0.70300  0.09670  0.74900  1.0000
  Cu  Cu13      1.0  0.29700  0.90300  0.74900  1.0000
  Cu  Cu14      1.0  0.50000  0.50000  0.75000  1.0000
  Cu  Cu15      1.0  0.09670  0.29700  0.75100  1.0000
  Cu  Cu16      1.0  0.90300  0.70300  0.75100  1.0000
  Pd  Pd1       1.0  0.39800  0.20900  0.00000  1.0000
  Pd  Pd2       1.0  0.60200  0.79100  0.00000  1.0000
  Pd  Pd3       1.0  0.79100  0.39800  0.50000  1.0000
  Pd  Pd4       1.0  0.20900  0.60200  0.50000  1.0000
