data_image0
_chemical_formula_structural       La4O12Rh2Zn2
_chemical_formula_sum              "La4 O12 Rh2 Zn2"
_cell_length_a       5.55608
_cell_length_b       5.69065
_cell_length_c       7.8945
_cell_angle_alpha    90
_cell_angle_beta     89.9452
_cell_angle_gamma    90

_space_group_name_H-M_alt    "P 1"
_space_group_IT_number       1

loop_
  _space_group_symop_operation_xyz
  'x, y, z'

loop_
  _atom_site_type_symbol
  _atom_site_label
  _atom_site_symmetry_multiplicity
  _atom_site_fract_x
  _atom_site_fract_y
  _atom_site_fract_z
  _atom_site_occupancy
  La  La1       1.0  0.51200  0.55300  0.25000  1.0000
  La  La2       1.0  0.98800  0.05340  0.25000  1.0000
  La  La3       1.0  0.01160  0.94700  0.75000  1.0000
  La  La4       1.0  0.48800  0.44700  0.75000  1.0000
  O   O1        1.0  0.70600  0.29900  0.04840  1.0000
  O   O2        1.0  0.80400  0.79100  0.04880  1.0000
  O   O3        1.0  0.09170  0.47700  0.24700  1.0000
  O   O4        1.0  0.40800  0.97700  0.25300  1.0000
  O   O5        1.0  0.69600  0.29100  0.45100  1.0000
  O   O6        1.0  0.79400  0.79900  0.45200  1.0000
  O   O7        1.0  0.20600  0.20100  0.54800  1.0000
  O   O8        1.0  0.30400  0.70900  0.54900  1.0000
  O   O9        1.0  0.59200  0.02340  0.74700  1.0000
  O   O10       1.0  0.90800  0.52300  0.75300  1.0000
  O   O11       1.0  0.19600  0.20900  0.95100  1.0000
  O   O12       1.0  0.29400  0.70100  0.95200  1.0000
  Rh  Rh1       1.0  0.00000  0.50000  0.00000  1.0000
  Rh  Rh2       1.0  0.50000  0.00000  0.50000  1.0000
  Zn  Zn1       1.0  0.50000  0.00000  0.00000  1.0000
  Zn  Zn2       1.0  1.00000  0.50000  0.50000  1.0000
