data_image0
_chemical_formula_structural       Ir2O12Sr4Tb2
_chemical_formula_sum              "Ir2 O12 Sr4 Tb2"
_cell_length_a       5.78581
_cell_length_b       5.81172
_cell_length_c       8.18648
_cell_angle_alpha    90
_cell_angle_beta     90.3545
_cell_angle_gamma    90

_space_group_name_H-M_alt    "P 1"
_space_group_IT_number       1

loop_
  _space_group_symop_operation_xyz
  'x, y, z'

loop_
  _atom_site_type_symbol
  _atom_site_label
  _atom_site_symmetry_multiplicity
  _atom_site_fract_x
  _atom_site_fract_y
  _atom_site_fract_z
  _atom_site_occupancy
  Ir  Ir1       1.0  0.00000  0.00000  0.00000  1.0000
  Ir  Ir2       1.0  0.50000  0.50000  0.50000  1.0000
  O   O1        1.0  0.27200  0.80100  0.04020  1.0000
  O   O2        1.0  0.19500  0.27400  0.04090  1.0000
  O   O3        1.0  0.92300  0.98300  0.23500  1.0000
  O   O4        1.0  0.57700  0.48300  0.26500  1.0000
  O   O5        1.0  0.30500  0.77400  0.45900  1.0000
  O   O6        1.0  0.22800  0.30100  0.46000  1.0000
  O   O7        1.0  0.77200  0.69900  0.54000  1.0000
  O   O8        1.0  0.69500  0.22600  0.54100  1.0000
  O   O9        1.0  0.42300  0.51700  0.73500  1.0000
  O   O10       1.0  0.07690  0.01730  0.76500  1.0000
  O   O11       1.0  0.80500  0.72600  0.95900  1.0000
  O   O12       1.0  0.72800  0.19900  0.96000  1.0000
  Sr  Sr1       1.0  0.00797  0.53700  0.24900  1.0000
  Sr  Sr2       1.0  0.49200  0.03710  0.25100  1.0000
  Sr  Sr3       1.0  0.50800  0.96300  0.74900  1.0000
  Sr  Sr4       1.0  0.99200  0.46300  0.75100  1.0000
  Tb  Tb1       1.0  0.50000  0.50000  0.00000  1.0000
  Tb  Tb2       1.0  1.00000  0.00000  0.50000  1.0000
