data_image0
_chemical_formula_structural       Ge10La4Ru6
_chemical_formula_sum              "Ge10 La4 Ru6"
_cell_length_a       5.94772
_cell_length_b       8.60322
_cell_length_c       8.60322
_cell_angle_alpha    94.3442
_cell_angle_beta     110.223
_cell_angle_gamma    110.223

_space_group_name_H-M_alt    "P 1"
_space_group_IT_number       1

loop_
  _space_group_symop_operation_xyz
  'x, y, z'

loop_
  _atom_site_type_symbol
  _atom_site_label
  _atom_site_symmetry_multiplicity
  _atom_site_fract_x
  _atom_site_fract_y
  _atom_site_fract_z
  _atom_site_occupancy
  Ge  Ge1       1.0  0.25000  0.00000  0.00000  1.0000
  Ge  Ge2       1.0  0.75000  0.00000  0.00000  1.0000
  Ge  Ge3       1.0  0.83100  0.42300  0.23900  1.0000
  Ge  Ge4       1.0  0.25000  0.71100  0.28900  1.0000
  Ge  Ge5       1.0  0.75000  0.71100  0.28900  1.0000
  Ge  Ge6       1.0  0.33100  0.23900  0.42300  1.0000
  Ge  Ge7       1.0  0.66900  0.76100  0.57700  1.0000
  Ge  Ge8       1.0  0.25000  0.28900  0.71100  1.0000
  Ge  Ge9       1.0  0.75000  0.28900  0.71100  1.0000
  Ge  Ge10      1.0  0.16900  0.57700  0.76100  1.0000
  La  La1       1.0  0.23100  0.36700  0.09450  1.0000
  La  La2       1.0  0.73100  0.09450  0.36700  1.0000
  La  La3       1.0  0.26900  0.90600  0.63300  1.0000
  La  La4       1.0  0.76900  0.63300  0.90600  1.0000
  Ru  Ru1       1.0  0.40600  0.76100  0.05170  1.0000
  Ru  Ru2       1.0  0.09380  0.94800  0.23900  1.0000
  Ru  Ru3       1.0  0.25000  0.50000  0.50000  1.0000
  Ru  Ru4       1.0  0.75000  0.50000  0.50000  1.0000
  Ru  Ru5       1.0  0.90600  0.05170  0.76100  1.0000
  Ru  Ru6       1.0  0.59400  0.23900  0.94800  1.0000
