data_image0
_chemical_formula_structural       B16Lu4
_chemical_formula_sum              "B16 Lu4"
_cell_length_a       7.01564
_cell_length_b       7.01564
_cell_length_c       3.95916
_cell_angle_alpha    90
_cell_angle_beta     90
_cell_angle_gamma    90

_space_group_name_H-M_alt    "P 1"
_space_group_IT_number       1

loop_
  _space_group_symop_operation_xyz
  'x, y, z'

loop_
  _atom_site_type_symbol
  _atom_site_label
  _atom_site_symmetry_multiplicity
  _atom_site_fract_x
  _atom_site_fract_y
  _atom_site_fract_z
  _atom_site_occupancy
  B   B1        1.0  0.00000  0.00000  0.20200  1.0000
  B   B2        1.0  0.50000  0.50000  0.20200  1.0000
  B   B3        1.0  0.17700  0.03850  0.50000  1.0000
  B   B4        1.0  0.41300  0.08670  0.50000  1.0000
  B   B5        1.0  0.96200  0.17700  0.50000  1.0000
  B   B6        1.0  0.46200  0.32300  0.50000  1.0000
  B   B7        1.0  0.91300  0.41300  0.50000  1.0000
  B   B8        1.0  0.67700  0.46200  0.50000  1.0000
  B   B9        1.0  0.32300  0.53800  0.50000  1.0000
  B   B10       1.0  0.08670  0.58700  0.50000  1.0000
  B   B11       1.0  0.53800  0.67700  0.50000  1.0000
  B   B12       1.0  0.03850  0.82300  0.50000  1.0000
  B   B13       1.0  0.58700  0.91300  0.50000  1.0000
  B   B14       1.0  0.82300  0.96200  0.50000  1.0000
  B   B15       1.0  0.00000  0.00000  0.79800  1.0000
  B   B16       1.0  0.50000  0.50000  0.79800  1.0000
  Lu  Lu1       1.0  0.68200  0.18200  0.00000  1.0000
  Lu  Lu2       1.0  0.18200  0.31800  0.00000  1.0000
  Lu  Lu3       1.0  0.81800  0.68200  0.00000  1.0000
  Lu  Lu4       1.0  0.31800  0.81800  0.00000  1.0000
