data_image0
_chemical_formula_structural       C8Na4O8
_chemical_formula_sum              "C8 Na4 O8"
_cell_length_a       3.42944
_cell_length_b       6.77032
_cell_length_c       10.2599
_cell_angle_alpha    90
_cell_angle_beta     91.1458
_cell_angle_gamma    90

_space_group_name_H-M_alt    "P 1"
_space_group_IT_number       1

loop_
  _space_group_symop_operation_xyz
  'x, y, z'

loop_
  _atom_site_type_symbol
  _atom_site_label
  _atom_site_symmetry_multiplicity
  _atom_site_fract_x
  _atom_site_fract_y
  _atom_site_fract_z
  _atom_site_occupancy
  C   C1        1.0  0.89000  0.85700  0.00013  1.0000
  C   C2        1.0  0.09940  0.98200  0.09560  1.0000
  C   C3        1.0  0.90100  0.48200  0.40400  1.0000
  C   C4        1.0  0.10900  0.35700  0.50000  1.0000
  C   C5        1.0  0.89000  0.64300  0.50000  1.0000
  C   C6        1.0  0.09940  0.51800  0.59600  1.0000
  C   C7        1.0  0.90100  0.01800  0.90400  1.0000
  C   C8        1.0  0.10900  0.14300  1.00000  1.0000
  Na  Na1       1.0  0.29000  0.56200  0.15100  1.0000
  Na  Na2       1.0  0.71000  0.06180  0.34900  1.0000
  Na  Na3       1.0  0.29000  0.93800  0.65100  1.0000
  Na  Na4       1.0  0.71000  0.43800  0.84900  1.0000
  O   O1        1.0  0.76300  0.68300  0.00541  1.0000
  O   O2        1.0  0.21700  0.95200  0.21100  1.0000
  O   O3        1.0  0.78300  0.45200  0.28900  1.0000
  O   O4        1.0  0.23700  0.18300  0.49500  1.0000
  O   O5        1.0  0.76300  0.81700  0.50500  1.0000
  O   O6        1.0  0.21700  0.54800  0.71100  1.0000
  O   O7        1.0  0.78300  0.04850  0.78900  1.0000
  O   O8        1.0  0.23700  0.31700  0.99500  1.0000
