data_image0
_chemical_formula_structural       Cu3Mn4O12Yb
_chemical_formula_sum              "Cu3 Mn4 O12 Yb1"
_cell_length_a       6.24246
_cell_length_b       6.24246
_cell_length_c       6.24246
_cell_angle_alpha    109.471
_cell_angle_beta     109.471
_cell_angle_gamma    109.471

_space_group_name_H-M_alt    "P 1"
_space_group_IT_number       1

loop_
  _space_group_symop_operation_xyz
  'x, y, z'

loop_
  _atom_site_type_symbol
  _atom_site_label
  _atom_site_symmetry_multiplicity
  _atom_site_fract_x
  _atom_site_fract_y
  _atom_site_fract_z
  _atom_site_occupancy
  Cu  Cu1       1.0  0.50000  0.50000  0.00000  1.0000
  Cu  Cu2       1.0  0.50000  0.00000  0.50000  1.0000
  Cu  Cu3       1.0  0.00000  0.50000  0.50000  1.0000
  Mn  Mn1       1.0  0.50000  0.00000  0.00000  1.0000
  Mn  Mn2       1.0  0.00000  0.50000  0.00000  1.0000
  Mn  Mn3       1.0  0.00000  0.00000  0.50000  1.0000
  Mn  Mn4       1.0  0.50000  0.50000  0.50000  1.0000
  O   O1        1.0  0.82100  0.30100  0.12200  1.0000
  O   O2        1.0  0.30100  0.48000  0.17900  1.0000
  O   O3        1.0  0.69900  0.87800  0.17900  1.0000
  O   O4        1.0  0.12200  0.82100  0.30100  1.0000
  O   O5        1.0  0.48000  0.17900  0.30100  1.0000
  O   O6        1.0  0.17900  0.30100  0.48000  1.0000
  O   O7        1.0  0.82100  0.69900  0.52000  1.0000
  O   O8        1.0  0.87800  0.17900  0.69900  1.0000
  O   O9        1.0  0.52000  0.82100  0.69900  1.0000
  O   O10       1.0  0.30100  0.12200  0.82100  1.0000
  O   O11       1.0  0.69900  0.52000  0.82100  1.0000
  O   O12       1.0  0.17900  0.69900  0.87800  1.0000
  Yb  Yb1       1.0  0.00000  0.00000  0.00000  1.0000
