data_image0
_chemical_formula_structural       Ba2Mn6O12
_chemical_formula_sum              "Ba2 Mn6 O12"
_cell_length_a       4.09524
_cell_length_b       5.68588
_cell_length_c       10.4226
_cell_angle_alpha    97.8886
_cell_angle_beta     101.33
_cell_angle_gamma    90

_space_group_name_H-M_alt    "P 1"
_space_group_IT_number       1

loop_
  _space_group_symop_operation_xyz
  'x, y, z'

loop_
  _atom_site_type_symbol
  _atom_site_label
  _atom_site_symmetry_multiplicity
  _atom_site_fract_x
  _atom_site_fract_y
  _atom_site_fract_z
  _atom_site_occupancy
  Ba  Ba1       1.0  0.06920  0.28500  0.13800  1.0000
  Ba  Ba2       1.0  0.93100  0.71500  0.86200  1.0000
  Mn  Mn1       1.0  0.56400  0.78200  0.12800  1.0000
  Mn  Mn2       1.0  0.70600  0.35200  0.41200  1.0000
  Mn  Mn3       1.0  0.70700  0.85300  0.41400  1.0000
  Mn  Mn4       1.0  0.29300  0.14700  0.58600  1.0000
  Mn  Mn5       1.0  0.29400  0.64800  0.58800  1.0000
  Mn  Mn6       1.0  0.43600  0.21800  0.87200  1.0000
  O   O1        1.0  0.50000  0.50000  1.00000  1.0000
  O   O2        1.0  0.50000  0.00000  0.00000  1.0000
  O   O3        1.0  0.06450  0.78100  0.12900  1.0000
  O   O4        1.0  0.64200  0.06430  0.28400  1.0000
  O   O5        1.0  0.64300  0.57500  0.28600  1.0000
  O   O6        1.0  0.22400  0.36100  0.44900  1.0000
  O   O7        1.0  0.22700  0.86300  0.45400  1.0000
  O   O8        1.0  0.77300  0.13700  0.54600  1.0000
  O   O9        1.0  0.77600  0.63900  0.55100  1.0000
  O   O10       1.0  0.35700  0.42500  0.71400  1.0000
  O   O11       1.0  0.35800  0.93600  0.71600  1.0000
  O   O12       1.0  0.93500  0.21900  0.87100  1.0000
