data_image0
_chemical_formula_structural       Gd14Pd6
_chemical_formula_sum              "Gd14 Pd6"
_cell_length_a       9.95193
_cell_length_b       9.95205
_cell_length_c       6.29557
_cell_angle_alpha    90
_cell_angle_beta     90
_cell_angle_gamma    120

_space_group_name_H-M_alt    "P 1"
_space_group_IT_number       1

loop_
  _space_group_symop_operation_xyz
  'x, y, z'

loop_
  _atom_site_type_symbol
  _atom_site_label
  _atom_site_symmetry_multiplicity
  _atom_site_fract_x
  _atom_site_fract_y
  _atom_site_fract_z
  _atom_site_occupancy
  Gd  Gd1       1.0  0.53800  0.46200  0.04890  1.0000
  Gd  Gd2       1.0  0.92300  0.46200  0.04890  1.0000
  Gd  Gd3       1.0  0.53800  0.07690  0.04890  1.0000
  Gd  Gd4       1.0  0.33300  0.66700  0.05650  1.0000
  Gd  Gd5       1.0  0.12500  0.25100  0.25400  1.0000
  Gd  Gd6       1.0  0.12500  0.87500  0.25400  1.0000
  Gd  Gd7       1.0  0.74900  0.87500  0.25400  1.0000
  Gd  Gd8       1.0  0.07690  0.53800  0.54900  1.0000
  Gd  Gd9       1.0  0.46200  0.53800  0.54900  1.0000
  Gd  Gd10      1.0  0.46200  0.92300  0.54900  1.0000
  Gd  Gd11      1.0  0.66700  0.33300  0.55600  1.0000
  Gd  Gd12      1.0  0.87500  0.74900  0.75400  1.0000
  Gd  Gd13      1.0  0.25100  0.12500  0.75400  1.0000
  Gd  Gd14      1.0  0.87500  0.12500  0.75400  1.0000
  Pd  Pd1       1.0  0.38000  0.19000  0.31100  1.0000
  Pd  Pd2       1.0  0.81000  0.19000  0.31100  1.0000
  Pd  Pd3       1.0  0.81000  0.62000  0.31100  1.0000
  Pd  Pd4       1.0  0.19000  0.81000  0.81100  1.0000
  Pd  Pd5       1.0  0.62000  0.81000  0.81100  1.0000
  Pd  Pd6       1.0  0.19000  0.38000  0.81100  1.0000
