data_image0
_chemical_formula_structural       Cl4Mn4S8Sb4
_chemical_formula_sum              "Cl4 Mn4 S8 Sb4"
_cell_length_a       9.48178
_cell_length_b       3.8128
_cell_length_c       12.2957
_cell_angle_alpha    90
_cell_angle_beta     90
_cell_angle_gamma    90

_space_group_name_H-M_alt    "P 1"
_space_group_IT_number       1

loop_
  _space_group_symop_operation_xyz
  'x, y, z'

loop_
  _atom_site_type_symbol
  _atom_site_label
  _atom_site_symmetry_multiplicity
  _atom_site_fract_x
  _atom_site_fract_y
  _atom_site_fract_z
  _atom_site_occupancy
  Cl  Cl1       1.0  0.43700  0.75000  0.11400  1.0000
  Cl  Cl2       1.0  0.93700  0.75000  0.38600  1.0000
  Cl  Cl3       1.0  0.06330  0.25000  0.61400  1.0000
  Cl  Cl4       1.0  0.56300  0.25000  0.88600  1.0000
  Mn  Mn1       1.0  0.49700  0.25000  0.23700  1.0000
  Mn  Mn2       1.0  0.99700  0.25000  0.26300  1.0000
  Mn  Mn3       1.0  0.00299  0.75000  0.73700  1.0000
  Mn  Mn4       1.0  0.50300  0.75000  0.76300  1.0000
  S   S1        1.0  0.05160  0.75000  0.11700  1.0000
  S   S2        1.0  0.75400  0.25000  0.17600  1.0000
  S   S3        1.0  0.25400  0.25000  0.32400  1.0000
  S   S4        1.0  0.55200  0.75000  0.38300  1.0000
  S   S5        1.0  0.44800  0.25000  0.61700  1.0000
  S   S6        1.0  0.74600  0.75000  0.67600  1.0000
  S   S7        1.0  0.24600  0.75000  0.82400  1.0000
  S   S8        1.0  0.94800  0.25000  0.88300  1.0000
  Sb  Sb1       1.0  0.81000  0.75000  0.03540  1.0000
  Sb  Sb2       1.0  0.31000  0.75000  0.46500  1.0000
  Sb  Sb3       1.0  0.69000  0.25000  0.53500  1.0000
  Sb  Sb4       1.0  0.19000  0.25000  0.96500  1.0000
