data_image0
_chemical_formula_structural       Rh6Si10Tb4
_chemical_formula_sum              "Rh6 Si10 Tb4"
_cell_length_a       5.70268
_cell_length_b       8.12532
_cell_length_c       8.12532
_cell_angle_alpha    93.5086
_cell_angle_beta     108.964
_cell_angle_gamma    108.964

_space_group_name_H-M_alt    "P 1"
_space_group_IT_number       1

loop_
  _space_group_symop_operation_xyz
  'x, y, z'

loop_
  _atom_site_type_symbol
  _atom_site_label
  _atom_site_symmetry_multiplicity
  _atom_site_fract_x
  _atom_site_fract_y
  _atom_site_fract_z
  _atom_site_occupancy
  Rh  Rh1       1.0  0.25000  0.99800  0.00170  1.0000
  Rh  Rh2       1.0  0.37500  0.54000  0.26000  1.0000
  Rh  Rh3       1.0  0.12500  0.74000  0.46000  1.0000
  Rh  Rh4       1.0  0.87500  0.26000  0.54000  1.0000
  Rh  Rh5       1.0  0.62500  0.46000  0.74000  1.0000
  Rh  Rh6       1.0  0.75000  0.00170  0.99800  1.0000
  Si  Si1       1.0  0.16200  0.26700  0.05790  1.0000
  Si  Si2       1.0  0.25000  0.79000  0.21000  1.0000
  Si  Si3       1.0  0.75000  0.77600  0.22400  1.0000
  Si  Si4       1.0  0.66200  0.05790  0.26700  1.0000
  Si  Si5       1.0  0.75000  0.51200  0.48800  1.0000
  Si  Si6       1.0  0.25000  0.48800  0.51200  1.0000
  Si  Si7       1.0  0.33800  0.94200  0.73300  1.0000
  Si  Si8       1.0  0.25000  0.22400  0.77600  1.0000
  Si  Si9       1.0  0.75000  0.21000  0.79000  1.0000
  Si  Si10      1.0  0.83800  0.73300  0.94200  1.0000
  Tb  Tb1       1.0  0.76100  0.40100  0.13300  1.0000
  Tb  Tb2       1.0  0.26100  0.13300  0.40100  1.0000
  Tb  Tb3       1.0  0.73900  0.86700  0.59900  1.0000
  Tb  Tb4       1.0  0.23900  0.59900  0.86700  1.0000
