data_image0
_chemical_formula_structural       Mn2Nb6O12
_chemical_formula_sum              "Mn2 Nb6 O12"
_cell_length_a       6.54981
_cell_length_b       7.02981
_cell_length_c       7.02981
_cell_angle_alpha    93.1644
_cell_angle_beta     117.766
_cell_angle_gamma    117.766

_space_group_name_H-M_alt    "P 1"
_space_group_IT_number       1

loop_
  _space_group_symop_operation_xyz
  'x, y, z'

loop_
  _atom_site_type_symbol
  _atom_site_label
  _atom_site_symmetry_multiplicity
  _atom_site_fract_x
  _atom_site_fract_y
  _atom_site_fract_z
  _atom_site_occupancy
  Mn  Mn1       1.0  0.25400  0.00000  0.00000  1.0000
  Mn  Mn2       1.0  0.74600  0.00000  0.00000  1.0000
  Nb  Nb1       1.0  0.27900  0.50100  0.05730  1.0000
  Nb  Nb2       1.0  0.72100  0.94300  0.49900  1.0000
  Nb  Nb3       1.0  0.29900  0.50000  0.50000  1.0000
  Nb  Nb4       1.0  0.70100  0.50000  0.50000  1.0000
  Nb  Nb5       1.0  0.27900  0.05730  0.50100  1.0000
  Nb  Nb6       1.0  0.72100  0.49900  0.94300  1.0000
  O   O1        1.0  0.00000  0.85600  0.14400  1.0000
  O   O2        1.0  0.50000  0.85100  0.14900  1.0000
  O   O3        1.0  0.02380  0.43700  0.16900  1.0000
  O   O4        1.0  0.58300  0.43700  0.16900  1.0000
  O   O5        1.0  0.02380  0.16900  0.43700  1.0000
  O   O6        1.0  0.58300  0.16900  0.43700  1.0000
  O   O7        1.0  0.41700  0.83100  0.56300  1.0000
  O   O8        1.0  0.97600  0.83100  0.56300  1.0000
  O   O9        1.0  0.41700  0.56300  0.83100  1.0000
  O   O10       1.0  0.97600  0.56300  0.83100  1.0000
  O   O11       1.0  0.50000  0.14900  0.85100  1.0000
  O   O12       1.0  0.00000  0.14400  0.85600  1.0000
