data_image0
_chemical_formula_structural       Ge4N8Sr8
_chemical_formula_sum              "Ge4 N8 Sr8"
_cell_length_a       5.41132
_cell_length_b       6.30804
_cell_length_c       12.1793
_cell_angle_alpha    90
_cell_angle_beta     90
_cell_angle_gamma    64.6008

_space_group_name_H-M_alt    "P 1"
_space_group_IT_number       1

loop_
  _space_group_symop_operation_xyz
  'x, y, z'

loop_
  _atom_site_type_symbol
  _atom_site_label
  _atom_site_symmetry_multiplicity
  _atom_site_fract_x
  _atom_site_fract_y
  _atom_site_fract_z
  _atom_site_occupancy
  Ge  Ge1       1.0  0.76000  0.48000  0.18100  1.0000
  Ge  Ge2       1.0  0.26000  0.48000  0.31900  1.0000
  Ge  Ge3       1.0  0.74000  0.52000  0.68100  1.0000
  Ge  Ge4       1.0  0.24000  0.52000  0.81900  1.0000
  N   N1        1.0  0.66000  0.68000  0.05920  1.0000
  N   N2        1.0  0.92100  0.15700  0.14200  1.0000
  N   N3        1.0  0.42100  0.15700  0.35800  1.0000
  N   N4        1.0  0.16000  0.68000  0.44100  1.0000
  N   N5        1.0  0.84000  0.32000  0.55900  1.0000
  N   N6        1.0  0.57900  0.84300  0.64200  1.0000
  N   N7        1.0  0.07850  0.84300  0.85800  1.0000
  N   N8        1.0  0.34000  0.32000  0.94100  1.0000
  Sr  Sr1       1.0  0.14400  0.71200  0.05870  1.0000
  Sr  Sr2       1.0  0.45200  0.09580  0.14200  1.0000
  Sr  Sr3       1.0  0.95200  0.09580  0.35800  1.0000
  Sr  Sr4       1.0  0.64400  0.71200  0.44100  1.0000
  Sr  Sr5       1.0  0.35600  0.28800  0.55900  1.0000
  Sr  Sr6       1.0  0.04790  0.90400  0.64200  1.0000
  Sr  Sr7       1.0  0.54800  0.90400  0.85800  1.0000
  Sr  Sr8       1.0  0.85600  0.28800  0.94100  1.0000
