data_image0
_chemical_formula_structural       Eu4P4Se12
_chemical_formula_sum              "Eu4 P4 Se12"
_cell_length_a       9.68735
_cell_length_b       7.77611
_cell_length_c       6.9584
_cell_angle_alpha    90
_cell_angle_beta     91.7492
_cell_angle_gamma    90

_space_group_name_H-M_alt    "P 1"
_space_group_IT_number       1

loop_
  _space_group_symop_operation_xyz
  'x, y, z'

loop_
  _atom_site_type_symbol
  _atom_site_label
  _atom_site_symmetry_multiplicity
  _atom_site_fract_x
  _atom_site_fract_y
  _atom_site_fract_z
  _atom_site_occupancy
  Eu  Eu1       1.0  0.75000  0.61300  0.03720  1.0000
  Eu  Eu2       1.0  0.75000  0.11300  0.46300  1.0000
  Eu  Eu3       1.0  0.25000  0.88700  0.53700  1.0000
  Eu  Eu4       1.0  0.25000  0.38700  0.96300  1.0000
  P   P1        1.0  0.43500  0.89400  0.06180  1.0000
  P   P2        1.0  0.06460  0.39400  0.43800  1.0000
  P   P3        1.0  0.93500  0.60600  0.56200  1.0000
  P   P4        1.0  0.56500  0.10600  0.93800  1.0000
  Se  Se1       1.0  0.23100  0.00756  0.11000  1.0000
  Se  Se2       1.0  0.55700  0.30600  0.16200  1.0000
  Se  Se3       1.0  0.95500  0.30000  0.17500  1.0000
  Se  Se4       1.0  0.54500  0.80000  0.32500  1.0000
  Se  Se5       1.0  0.94300  0.80600  0.33800  1.0000
  Se  Se6       1.0  0.26900  0.50800  0.39000  1.0000
  Se  Se7       1.0  0.73100  0.49200  0.61000  1.0000
  Se  Se8       1.0  0.05690  0.19400  0.66200  1.0000
  Se  Se9       1.0  0.45500  0.20000  0.67500  1.0000
  Se  Se10      1.0  0.04530  0.70000  0.82500  1.0000
  Se  Se11      1.0  0.44300  0.69400  0.83800  1.0000
  Se  Se12      1.0  0.76900  0.99200  0.89000  1.0000
