data_image0
_chemical_formula_structural       Ge10Nd4Rh6
_chemical_formula_sum              "Ge10 Nd4 Rh6"
_cell_length_a       6.03615
_cell_length_b       8.45696
_cell_length_c       8.45696
_cell_angle_alpha    92.0958
_cell_angle_beta     110.305
_cell_angle_gamma    110.305

_space_group_name_H-M_alt    "P 1"
_space_group_IT_number       1

loop_
  _space_group_symop_operation_xyz
  'x, y, z'

loop_
  _atom_site_type_symbol
  _atom_site_label
  _atom_site_symmetry_multiplicity
  _atom_site_fract_x
  _atom_site_fract_y
  _atom_site_fract_z
  _atom_site_occupancy
  Ge  Ge1       1.0  0.16400  0.26100  0.06400  1.0000
  Ge  Ge2       1.0  0.25000  0.78200  0.21800  1.0000
  Ge  Ge3       1.0  0.75000  0.77600  0.22400  1.0000
  Ge  Ge4       1.0  0.66400  0.06400  0.26100  1.0000
  Ge  Ge5       1.0  0.75000  0.50500  0.49500  1.0000
  Ge  Ge6       1.0  0.25000  0.49500  0.50500  1.0000
  Ge  Ge7       1.0  0.33600  0.93600  0.73900  1.0000
  Ge  Ge8       1.0  0.25000  0.22400  0.77600  1.0000
  Ge  Ge9       1.0  0.75000  0.21800  0.78200  1.0000
  Ge  Ge10      1.0  0.83600  0.73900  0.93600  1.0000
  Nd  Nd1       1.0  0.76800  0.40300  0.13400  1.0000
  Nd  Nd2       1.0  0.26800  0.13400  0.40300  1.0000
  Nd  Nd3       1.0  0.73200  0.86600  0.59700  1.0000
  Nd  Nd4       1.0  0.23200  0.59700  0.86600  1.0000
  Rh  Rh1       1.0  0.25000  0.99900  0.00124  1.0000
  Rh  Rh2       1.0  0.38700  0.53700  0.25500  1.0000
  Rh  Rh3       1.0  0.11300  0.74500  0.46300  1.0000
  Rh  Rh4       1.0  0.88700  0.25500  0.53700  1.0000
  Rh  Rh5       1.0  0.61300  0.46300  0.74500  1.0000
  Rh  Rh6       1.0  0.75000  0.00123  0.99900  1.0000
