data_image0
_chemical_formula_structural       O12Sr4Ta2Tm2
_chemical_formula_sum              "O12 Sr4 Ta2 Tm2"
_cell_length_a       5.77839
_cell_length_b       5.83395
_cell_length_c       8.19375
_cell_angle_alpha    90
_cell_angle_beta     90.1662
_cell_angle_gamma    90

_space_group_name_H-M_alt    "P 1"
_space_group_IT_number       1

loop_
  _space_group_symop_operation_xyz
  'x, y, z'

loop_
  _atom_site_type_symbol
  _atom_site_label
  _atom_site_symmetry_multiplicity
  _atom_site_fract_x
  _atom_site_fract_y
  _atom_site_fract_z
  _atom_site_occupancy
  O   O1        1.0  0.27400  0.29800  0.04090  1.0000
  O   O2        1.0  0.19900  0.77500  0.04370  1.0000
  O   O3        1.0  0.92000  0.47900  0.23700  1.0000
  O   O4        1.0  0.58000  0.97900  0.26300  1.0000
  O   O5        1.0  0.30100  0.27500  0.45600  1.0000
  O   O6        1.0  0.22600  0.79800  0.45900  1.0000
  O   O7        1.0  0.77400  0.20200  0.54100  1.0000
  O   O8        1.0  0.69900  0.72500  0.54400  1.0000
  O   O9        1.0  0.42000  0.02080  0.73700  1.0000
  O   O10       1.0  0.07960  0.52100  0.76300  1.0000
  O   O11       1.0  0.80100  0.22500  0.95600  1.0000
  O   O12       1.0  0.72600  0.70200  0.95900  1.0000
  Sr  Sr1       1.0  0.49200  0.53300  0.25000  1.0000
  Sr  Sr2       1.0  0.00807  0.03300  0.25000  1.0000
  Sr  Sr3       1.0  0.99200  0.96700  0.75000  1.0000
  Sr  Sr4       1.0  0.50800  0.46700  0.75000  1.0000
  Ta  Ta1       1.0  0.00000  0.50000  0.00000  1.0000
  Ta  Ta2       1.0  0.50000  0.00000  0.50000  1.0000
  Tm  Tm1       1.0  0.50000  0.00000  1.00000  1.0000
  Tm  Tm2       1.0  0.00000  0.50000  0.50000  1.0000
