data_image0
_chemical_formula_structural       Ge10La4Rh6
_chemical_formula_sum              "Ge10 La4 Rh6"
_cell_length_a       6.09938
_cell_length_b       8.55135
_cell_length_c       8.55135
_cell_angle_alpha    91.6086
_cell_angle_beta     110.894
_cell_angle_gamma    110.894

_space_group_name_H-M_alt    "P 1"
_space_group_IT_number       1

loop_
  _space_group_symop_operation_xyz
  'x, y, z'

loop_
  _atom_site_type_symbol
  _atom_site_label
  _atom_site_symmetry_multiplicity
  _atom_site_fract_x
  _atom_site_fract_y
  _atom_site_fract_z
  _atom_site_occupancy
  Ge  Ge1       1.0  0.25000  0.00000  0.00000  1.0000
  Ge  Ge2       1.0  0.75000  0.00000  0.00000  1.0000
  Ge  Ge3       1.0  0.84200  0.44200  0.24200  1.0000
  Ge  Ge4       1.0  0.25000  0.72400  0.27600  1.0000
  Ge  Ge5       1.0  0.75000  0.72400  0.27600  1.0000
  Ge  Ge6       1.0  0.34200  0.24200  0.44200  1.0000
  Ge  Ge7       1.0  0.65800  0.75800  0.55800  1.0000
  Ge  Ge8       1.0  0.25000  0.27600  0.72400  1.0000
  Ge  Ge9       1.0  0.75000  0.27600  0.72400  1.0000
  Ge  Ge10      1.0  0.15800  0.55800  0.75800  1.0000
  La  La1       1.0  0.23200  0.36500  0.09940  1.0000
  La  La2       1.0  0.73200  0.09940  0.36500  1.0000
  La  La3       1.0  0.26800  0.90100  0.63500  1.0000
  La  La4       1.0  0.76800  0.63500  0.90100  1.0000
  Rh  Rh1       1.0  0.39200  0.75200  0.03270  1.0000
  Rh  Rh2       1.0  0.10800  0.96700  0.24800  1.0000
  Rh  Rh3       1.0  0.25000  0.50000  0.50000  1.0000
  Rh  Rh4       1.0  0.75000  0.50000  0.50000  1.0000
  Rh  Rh5       1.0  0.89200  0.03270  0.75200  1.0000
  Rh  Rh6       1.0  0.60800  0.24800  0.96700  1.0000
