data_image0
_chemical_formula_structural       La4Li2O12Ru2
_chemical_formula_sum              "La4 Li2 O12 Ru2"
_cell_length_a       5.5338
_cell_length_b       5.60917
_cell_length_c       7.81906
_cell_angle_alpha    90
_cell_angle_beta     90.0251
_cell_angle_gamma    90

_space_group_name_H-M_alt    "P 1"
_space_group_IT_number       1

loop_
  _space_group_symop_operation_xyz
  'x, y, z'

loop_
  _atom_site_type_symbol
  _atom_site_label
  _atom_site_symmetry_multiplicity
  _atom_site_fract_x
  _atom_site_fract_y
  _atom_site_fract_z
  _atom_site_occupancy
  La  La1       1.0  0.50800  0.54700  0.24900  1.0000
  La  La2       1.0  0.99200  0.04740  0.25100  1.0000
  La  La3       1.0  0.00824  0.95300  0.74900  1.0000
  La  La4       1.0  0.49200  0.45300  0.75100  1.0000
  Li  Li1       1.0  0.50000  0.00000  0.00000  1.0000
  Li  Li2       1.0  1.00000  0.50000  0.50000  1.0000
  O   O1        1.0  0.71500  0.30000  0.04320  1.0000
  O   O2        1.0  0.80200  0.78600  0.04430  1.0000
  O   O3        1.0  0.08290  0.48100  0.24400  1.0000
  O   O4        1.0  0.41700  0.98100  0.25600  1.0000
  O   O5        1.0  0.69800  0.28600  0.45600  1.0000
  O   O6        1.0  0.78500  0.80000  0.45700  1.0000
  O   O7        1.0  0.21500  0.20000  0.54300  1.0000
  O   O8        1.0  0.30200  0.71400  0.54400  1.0000
  O   O9        1.0  0.58300  0.01900  0.74400  1.0000
  O   O10       1.0  0.91700  0.51900  0.75600  1.0000
  O   O11       1.0  0.19800  0.21400  0.95600  1.0000
  O   O12       1.0  0.28500  0.70000  0.95700  1.0000
  Ru  Ru1       1.0  0.00000  0.50000  0.00000  1.0000
  Ru  Ru2       1.0  0.50000  0.00000  0.50000  1.0000
