data_image0
_chemical_formula_structural       Cl12In2Na6
_chemical_formula_sum              "Cl12 In2 Na6"
_cell_length_a       6.90853
_cell_length_b       6.90873
_cell_length_c       12.428
_cell_angle_alpha    90.0004
_cell_angle_beta     89.9998
_cell_angle_gamma    120.001

_space_group_name_H-M_alt    "P 1"
_space_group_IT_number       1

loop_
  _space_group_symop_operation_xyz
  'x, y, z'

loop_
  _atom_site_type_symbol
  _atom_site_label
  _atom_site_symmetry_multiplicity
  _atom_site_fract_x
  _atom_site_fract_y
  _atom_site_fract_z
  _atom_site_occupancy
  Cl  Cl1       1.0  0.95500  0.31700  0.12800  1.0000
  Cl  Cl2       1.0  0.68300  0.63800  0.12800  1.0000
  Cl  Cl3       1.0  0.36200  0.04550  0.12800  1.0000
  Cl  Cl4       1.0  0.36200  0.31700  0.37200  1.0000
  Cl  Cl5       1.0  0.68300  0.04550  0.37200  1.0000
  Cl  Cl6       1.0  0.95500  0.63800  0.37200  1.0000
  Cl  Cl7       1.0  0.04550  0.36200  0.62800  1.0000
  Cl  Cl8       1.0  0.31700  0.95500  0.62800  1.0000
  Cl  Cl9       1.0  0.63800  0.68300  0.62800  1.0000
  Cl  Cl10      1.0  0.63800  0.95500  0.87200  1.0000
  Cl  Cl11      1.0  0.31700  0.36200  0.87200  1.0000
  Cl  Cl12      1.0  0.04550  0.68300  0.87200  1.0000
  In  In1       1.0  0.66700  0.33300  0.25000  1.0000
  In  In2       1.0  0.33300  0.66700  0.75000  1.0000
  Na  Na1       1.0  0.33300  0.66700  0.04070  1.0000
  Na  Na2       1.0  0.00000  0.00000  0.25000  1.0000
  Na  Na3       1.0  0.33300  0.66700  0.45900  1.0000
  Na  Na4       1.0  0.66700  0.33300  0.54100  1.0000
  Na  Na5       1.0  1.00000  1.00000  0.75000  1.0000
  Na  Na6       1.0  0.66700  0.33300  0.95900  1.0000
