data_image0
_chemical_formula_structural       I12La6OsSr
_chemical_formula_sum              "I12 La6 Os1 Sr1"
_cell_length_a       10.1789
_cell_length_b       10.1789
_cell_length_c       10.1789
_cell_angle_alpha    106.465
_cell_angle_beta     106.465
_cell_angle_gamma    106.465

_space_group_name_H-M_alt    "P 1"
_space_group_IT_number       1

loop_
  _space_group_symop_operation_xyz
  'x, y, z'

loop_
  _atom_site_type_symbol
  _atom_site_label
  _atom_site_symmetry_multiplicity
  _atom_site_fract_x
  _atom_site_fract_y
  _atom_site_fract_z
  _atom_site_occupancy
  I   I1        1.0  0.22600  0.67900  0.07400  1.0000
  I   I2        1.0  0.45700  0.37600  0.14900  1.0000
  I   I3        1.0  0.67900  0.07400  0.22600  1.0000
  I   I4        1.0  0.92600  0.77400  0.32100  1.0000
  I   I5        1.0  0.14900  0.45700  0.37600  1.0000
  I   I6        1.0  0.37600  0.14900  0.45700  1.0000
  I   I7        1.0  0.62400  0.85100  0.54300  1.0000
  I   I8        1.0  0.85100  0.54300  0.62400  1.0000
  I   I9        1.0  0.07400  0.22600  0.67900  1.0000
  I   I10       1.0  0.32100  0.92600  0.77400  1.0000
  I   I11       1.0  0.54300  0.62400  0.85100  1.0000
  I   I12       1.0  0.77400  0.32100  0.92600  1.0000
  La  La1       1.0  0.09870  0.30200  0.02280  1.0000
  La  La2       1.0  0.30200  0.02280  0.09870  1.0000
  La  La3       1.0  0.02280  0.09870  0.30200  1.0000
  La  La4       1.0  0.97700  0.90100  0.69800  1.0000
  La  La5       1.0  0.69800  0.97700  0.90100  1.0000
  La  La6       1.0  0.90100  0.69800  0.97700  1.0000
  Os  Os1       1.0  0.00000  0.00000  0.00000  1.0000
  Sr  Sr1       1.0  0.50000  0.50000  0.50000  1.0000
