data_image0
_chemical_formula_structural       Bi12Sr8
_chemical_formula_sum              "Bi12 Sr8"
_cell_length_a       15.6124
_cell_length_b       6.83778
_cell_length_c       6.63646
_cell_angle_alpha    90
_cell_angle_beta     90
_cell_angle_gamma    90

_space_group_name_H-M_alt    "P 1"
_space_group_IT_number       1

loop_
  _space_group_symop_operation_xyz
  'x, y, z'

loop_
  _atom_site_type_symbol
  _atom_site_label
  _atom_site_symmetry_multiplicity
  _atom_site_fract_x
  _atom_site_fract_y
  _atom_site_fract_z
  _atom_site_occupancy
  Bi  Bi1       1.0  0.65400  0.43800  0.07900  1.0000
  Bi  Bi2       1.0  0.84600  0.56200  0.07900  1.0000
  Bi  Bi3       1.0  0.43100  0.25000  0.25000  1.0000
  Bi  Bi4       1.0  0.06860  0.75000  0.25000  1.0000
  Bi  Bi5       1.0  0.65400  0.06250  0.42100  1.0000
  Bi  Bi6       1.0  0.84600  0.93800  0.42100  1.0000
  Bi  Bi7       1.0  0.15400  0.06250  0.57900  1.0000
  Bi  Bi8       1.0  0.34600  0.93800  0.57900  1.0000
  Bi  Bi9       1.0  0.93100  0.25000  0.75000  1.0000
  Bi  Bi10      1.0  0.56900  0.75000  0.75000  1.0000
  Bi  Bi11      1.0  0.15400  0.43800  0.92100  1.0000
  Bi  Bi12      1.0  0.34600  0.56200  0.92100  1.0000
  Sr  Sr1       1.0  0.25000  0.00000  0.06220  1.0000
  Sr  Sr2       1.0  0.00091  0.25000  0.25000  1.0000
  Sr  Sr3       1.0  0.49900  0.75000  0.25000  1.0000
  Sr  Sr4       1.0  0.25000  0.50000  0.43800  1.0000
  Sr  Sr5       1.0  0.75000  0.50000  0.56200  1.0000
  Sr  Sr6       1.0  0.50100  0.25000  0.75000  1.0000
  Sr  Sr7       1.0  0.99900  0.75000  0.75000  1.0000
  Sr  Sr8       1.0  0.75000  0.00000  0.93800  1.0000
