data_image0
_chemical_formula_structural       Au8Er8Sn4
_chemical_formula_sum              "Au8 Er8 Sn4"
_cell_length_a       7.86388
_cell_length_b       7.86388
_cell_length_c       7.43961
_cell_angle_alpha    90
_cell_angle_beta     90
_cell_angle_gamma    90

_space_group_name_H-M_alt    "P 1"
_space_group_IT_number       1

loop_
  _space_group_symop_operation_xyz
  'x, y, z'

loop_
  _atom_site_type_symbol
  _atom_site_label
  _atom_site_symmetry_multiplicity
  _atom_site_fract_x
  _atom_site_fract_y
  _atom_site_fract_z
  _atom_site_occupancy
  Au  Au1       1.0  0.87200  0.12800  0.22200  1.0000
  Au  Au2       1.0  0.12800  0.87200  0.22200  1.0000
  Au  Au3       1.0  0.37200  0.37200  0.27800  1.0000
  Au  Au4       1.0  0.62800  0.62800  0.27800  1.0000
  Au  Au5       1.0  0.37200  0.37200  0.72200  1.0000
  Au  Au6       1.0  0.62800  0.62800  0.72200  1.0000
  Au  Au7       1.0  0.87200  0.12800  0.77800  1.0000
  Au  Au8       1.0  0.12800  0.87200  0.77800  1.0000
  Er  Er1       1.0  0.18400  0.18400  0.00000  1.0000
  Er  Er2       1.0  0.65700  0.34300  0.00000  1.0000
  Er  Er3       1.0  0.34300  0.65700  0.00000  1.0000
  Er  Er4       1.0  0.81600  0.81600  0.00000  1.0000
  Er  Er5       1.0  0.15700  0.15700  0.50000  1.0000
  Er  Er6       1.0  0.68400  0.31600  0.50000  1.0000
  Er  Er7       1.0  0.31600  0.68400  0.50000  1.0000
  Er  Er8       1.0  0.84300  0.84300  0.50000  1.0000
  Sn  Sn1       1.0  0.50000  0.00000  0.25000  1.0000
  Sn  Sn2       1.0  0.00000  0.50000  0.25000  1.0000
  Sn  Sn3       1.0  0.50000  0.00000  0.75000  1.0000
  Sn  Sn4       1.0  0.00000  0.50000  0.75000  1.0000
