data_image0
_chemical_formula_structural       In4Ni8Ti8
_chemical_formula_sum              "In4 Ni8 Ti8"
_cell_length_a       6.93203
_cell_length_b       6.93199
_cell_length_c       6.20904
_cell_angle_alpha    90
_cell_angle_beta     90
_cell_angle_gamma    90

_space_group_name_H-M_alt    "P 1"
_space_group_IT_number       1

loop_
  _space_group_symop_operation_xyz
  'x, y, z'

loop_
  _atom_site_type_symbol
  _atom_site_label
  _atom_site_symmetry_multiplicity
  _atom_site_fract_x
  _atom_site_fract_y
  _atom_site_fract_z
  _atom_site_occupancy
  In  In1       1.0  0.50000  0.00000  0.25000  1.0000
  In  In2       1.0  0.00000  0.50000  0.25000  1.0000
  In  In3       1.0  0.00000  0.50000  0.75000  1.0000
  In  In4       1.0  0.50000  0.00000  0.75000  1.0000
  Ni  Ni1       1.0  0.87400  0.12600  0.22000  1.0000
  Ni  Ni2       1.0  0.12600  0.87400  0.22000  1.0000
  Ni  Ni3       1.0  0.37400  0.37400  0.28000  1.0000
  Ni  Ni4       1.0  0.62600  0.62600  0.28000  1.0000
  Ni  Ni5       1.0  0.37400  0.37400  0.72000  1.0000
  Ni  Ni6       1.0  0.62600  0.62600  0.72000  1.0000
  Ni  Ni7       1.0  0.87400  0.12600  0.78000  1.0000
  Ni  Ni8       1.0  0.12600  0.87400  0.78000  1.0000
  Ti  Ti1       1.0  0.17600  0.17600  0.00000  1.0000
  Ti  Ti2       1.0  0.65200  0.34900  0.00000  1.0000
  Ti  Ti3       1.0  0.34800  0.65100  0.00000  1.0000
  Ti  Ti4       1.0  0.82400  0.82400  0.00000  1.0000
  Ti  Ti5       1.0  0.15200  0.15100  0.50000  1.0000
  Ti  Ti6       1.0  0.67600  0.32400  0.50000  1.0000
  Ti  Ti7       1.0  0.32400  0.67600  0.50000  1.0000
  Ti  Ti8       1.0  0.84800  0.84900  0.50000  1.0000
