data_image0
_chemical_formula_structural       O4Pr8Se8
_chemical_formula_sum              "O4 Pr8 Se8"
_cell_length_a       8.90841
_cell_length_b       7.39305
_cell_length_c       7.38419
_cell_angle_alpha    90
_cell_angle_beta     99.8806
_cell_angle_gamma    90

_space_group_name_H-M_alt    "P 1"
_space_group_IT_number       1

loop_
  _space_group_symop_operation_xyz
  'x, y, z'

loop_
  _atom_site_type_symbol
  _atom_site_label
  _atom_site_symmetry_multiplicity
  _atom_site_fract_x
  _atom_site_fract_y
  _atom_site_fract_z
  _atom_site_occupancy
  O   O1        1.0  0.61400  0.58500  0.14900  1.0000
  O   O2        1.0  0.38600  0.08500  0.35100  1.0000
  O   O3        1.0  0.61400  0.91500  0.64900  1.0000
  O   O4        1.0  0.38600  0.41500  0.85100  1.0000
  Pr  Pr1       1.0  0.42600  0.35200  0.17400  1.0000
  Pr  Pr2       1.0  0.85800  0.44700  0.24600  1.0000
  Pr  Pr3       1.0  0.14200  0.94700  0.25400  1.0000
  Pr  Pr4       1.0  0.57400  0.85200  0.32600  1.0000
  Pr  Pr5       1.0  0.42600  0.14800  0.67400  1.0000
  Pr  Pr6       1.0  0.85800  0.05270  0.74600  1.0000
  Pr  Pr7       1.0  0.14200  0.55300  0.75400  1.0000
  Pr  Pr8       1.0  0.57400  0.64800  0.82600  1.0000
  Se  Se1       1.0  0.07780  0.27700  0.02860  1.0000
  Se  Se2       1.0  0.68100  0.12900  0.06900  1.0000
  Se  Se3       1.0  0.31900  0.62900  0.43100  1.0000
  Se  Se4       1.0  0.92200  0.77700  0.47100  1.0000
  Se  Se5       1.0  0.07780  0.22300  0.52900  1.0000
  Se  Se6       1.0  0.68100  0.37100  0.56900  1.0000
  Se  Se7       1.0  0.31900  0.87100  0.93100  1.0000
  Se  Se8       1.0  0.92200  0.72300  0.97100  1.0000
