data_image0
_chemical_formula_structural       Ir6Lu4Si10
_chemical_formula_sum              "Ir6 Lu4 Si10"
_cell_length_a       5.77189
_cell_length_b       8.09975
_cell_length_c       8.09975
_cell_angle_alpha    91.1386
_cell_angle_beta     69.1269
_cell_angle_gamma    110.873

_space_group_name_H-M_alt    "P 1"
_space_group_IT_number       1

loop_
  _space_group_symop_operation_xyz
  'x, y, z'

loop_
  _atom_site_type_symbol
  _atom_site_label
  _atom_site_symmetry_multiplicity
  _atom_site_fract_x
  _atom_site_fract_y
  _atom_site_fract_z
  _atom_site_occupancy
  Ir  Ir1       1.0  0.61600  0.25600  0.02370  1.0000
  Ir  Ir2       1.0  0.88400  0.02370  0.25600  1.0000
  Ir  Ir3       1.0  0.25000  0.50000  0.50000  1.0000
  Ir  Ir4       1.0  0.75000  0.50000  0.50000  1.0000
  Ir  Ir5       1.0  0.11600  0.97600  0.74400  1.0000
  Ir  Ir6       1.0  0.38400  0.74400  0.97600  1.0000
  Lu  Lu1       1.0  0.77100  0.64000  0.09740  1.0000
  Lu  Lu2       1.0  0.27100  0.90300  0.36000  1.0000
  Lu  Lu3       1.0  0.72900  0.09740  0.64000  1.0000
  Lu  Lu4       1.0  0.22900  0.36000  0.90300  1.0000
  Si  Si1       1.0  0.25000  0.00000  0.00000  1.0000
  Si  Si2       1.0  0.75000  0.00000  0.00000  1.0000
  Si  Si3       1.0  0.15600  0.55000  0.23800  1.0000
  Si  Si4       1.0  0.25000  0.27400  0.27400  1.0000
  Si  Si5       1.0  0.75000  0.27400  0.27400  1.0000
  Si  Si6       1.0  0.65600  0.76200  0.45000  1.0000
  Si  Si7       1.0  0.34400  0.23800  0.55000  1.0000
  Si  Si8       1.0  0.25000  0.72600  0.72600  1.0000
  Si  Si9       1.0  0.75000  0.72600  0.72600  1.0000
  Si  Si10      1.0  0.84400  0.45000  0.76200  1.0000
