data_image0
_chemical_formula_structural       Ba4CeMn3O12
_chemical_formula_sum              "Ba4 Ce1 Mn3 O12"
_cell_length_a       5.83752
_cell_length_b       5.83752
_cell_length_c       10.3674
_cell_angle_alpha    106.352
_cell_angle_beta     73.6484
_cell_angle_gamma    120

_space_group_name_H-M_alt    "P 1"
_space_group_IT_number       1

loop_
  _space_group_symop_operation_xyz
  'x, y, z'

loop_
  _atom_site_type_symbol
  _atom_site_label
  _atom_site_symmetry_multiplicity
  _atom_site_fract_x
  _atom_site_fract_y
  _atom_site_fract_z
  _atom_site_occupancy
  Ba  Ba1       1.0  0.27900  0.72100  0.16400  1.0000
  Ba  Ba2       1.0  0.86900  0.13100  0.39300  1.0000
  Ba  Ba3       1.0  0.13100  0.86900  0.60700  1.0000
  Ba  Ba4       1.0  0.72100  0.27900  0.83600  1.0000
  Ce  Ce1       1.0  0.00000  0.00000  0.00000  1.0000
  Mn  Mn1       1.0  0.58600  0.41400  0.24200  1.0000
  Mn  Mn2       1.0  0.50000  0.50000  0.50000  1.0000
  Mn  Mn3       1.0  0.41400  0.58600  0.75800  1.0000
  O   O1        1.0  0.77300  0.69000  0.14500  1.0000
  O   O2        1.0  0.31000  0.22700  0.14500  1.0000
  O   O3        1.0  0.77300  0.22700  0.14500  1.0000
  O   O4        1.0  0.39200  0.60800  0.37800  1.0000
  O   O5        1.0  0.83800  0.60800  0.37800  1.0000
  O   O6        1.0  0.39200  0.16200  0.37800  1.0000
  O   O7        1.0  0.60800  0.83800  0.62200  1.0000
  O   O8        1.0  0.16200  0.39200  0.62200  1.0000
  O   O9        1.0  0.60800  0.39200  0.62200  1.0000
  O   O10       1.0  0.22700  0.77300  0.85500  1.0000
  O   O11       1.0  0.69000  0.77300  0.85500  1.0000
  O   O12       1.0  0.22700  0.31000  0.85500  1.0000
