data_image0
_chemical_formula_structural       As2Bi2Cd4O12
_chemical_formula_sum              "As2 Bi2 Cd4 O12"
_cell_length_a       5.4841
_cell_length_b       7.33716
_cell_length_c       7.33716
_cell_angle_alpha    107.538
_cell_angle_beta     90
_cell_angle_gamma    90

_space_group_name_H-M_alt    "P 1"
_space_group_IT_number       1

loop_
  _space_group_symop_operation_xyz
  'x, y, z'

loop_
  _atom_site_type_symbol
  _atom_site_label
  _atom_site_symmetry_multiplicity
  _atom_site_fract_x
  _atom_site_fract_y
  _atom_site_fract_z
  _atom_site_occupancy
  As  As1       1.0  0.84700  0.68100  0.31900  1.0000
  As  As2       1.0  0.34700  0.31900  0.68100  1.0000
  Bi  Bi1       1.0  0.39300  0.90200  0.09760  1.0000
  Bi  Bi2       1.0  0.89300  0.09760  0.90200  1.0000
  Cd  Cd1       1.0  0.38500  0.40800  0.20100  1.0000
  Cd  Cd2       1.0  0.88500  0.20100  0.40800  1.0000
  Cd  Cd3       1.0  0.38500  0.79900  0.59200  1.0000
  Cd  Cd4       1.0  0.88500  0.59200  0.79900  1.0000
  O   O1        1.0  0.72600  0.58100  0.09410  1.0000
  O   O2        1.0  0.63300  0.15800  0.15100  1.0000
  O   O3        1.0  0.13300  0.15100  0.15800  1.0000
  O   O4        1.0  0.16200  0.68800  0.31200  1.0000
  O   O5        1.0  0.72600  0.90600  0.41900  1.0000
  O   O6        1.0  0.72300  0.54700  0.45300  1.0000
  O   O7        1.0  0.22300  0.45300  0.54700  1.0000
  O   O8        1.0  0.22600  0.09410  0.58100  1.0000
  O   O9        1.0  0.66200  0.31200  0.68800  1.0000
  O   O10       1.0  0.63300  0.84900  0.84200  1.0000
  O   O11       1.0  0.13300  0.84200  0.84900  1.0000
  O   O12       1.0  0.22600  0.41900  0.90600  1.0000
