data_image0
_chemical_formula_structural       Li14Sn6
_chemical_formula_sum              "Li14 Sn6"
_cell_length_a       8.42834
_cell_length_b       4.66167
_cell_length_c       9.3374
_cell_angle_alpha    90
_cell_angle_beta     106.112
_cell_angle_gamma    90

_space_group_name_H-M_alt    "P 1"
_space_group_IT_number       1

loop_
  _space_group_symop_operation_xyz
  'x, y, z'

loop_
  _atom_site_type_symbol
  _atom_site_label
  _atom_site_symmetry_multiplicity
  _atom_site_fract_x
  _atom_site_fract_y
  _atom_site_fract_z
  _atom_site_occupancy
  Li  Li1       1.0  0.60100  0.25000  0.01330  1.0000
  Li  Li2       1.0  0.00789  0.25000  0.12800  1.0000
  Li  Li3       1.0  0.18700  0.75000  0.17000  1.0000
  Li  Li4       1.0  0.60400  0.75000  0.27500  1.0000
  Li  Li5       1.0  0.80100  0.25000  0.31900  1.0000
  Li  Li6       1.0  0.00477  0.75000  0.37900  1.0000
  Li  Li7       1.0  0.40200  0.75000  0.46600  1.0000
  Li  Li8       1.0  0.59800  0.25000  0.53400  1.0000
  Li  Li9       1.0  0.99500  0.25000  0.62100  1.0000
  Li  Li10      1.0  0.19900  0.75000  0.68100  1.0000
  Li  Li11      1.0  0.39600  0.25000  0.72500  1.0000
  Li  Li12      1.0  0.81300  0.25000  0.83000  1.0000
  Li  Li13      1.0  0.99200  0.75000  0.87200  1.0000
  Li  Li14      1.0  0.39900  0.75000  0.98700  1.0000
  Sn  Sn1       1.0  0.80700  0.75000  0.08570  1.0000
  Sn  Sn2       1.0  0.40700  0.25000  0.22500  1.0000
  Sn  Sn3       1.0  0.19700  0.25000  0.43300  1.0000
  Sn  Sn4       1.0  0.80300  0.75000  0.56700  1.0000
  Sn  Sn5       1.0  0.59300  0.75000  0.77500  1.0000
  Sn  Sn6       1.0  0.19300  0.25000  0.91400  1.0000
