data_image0
_chemical_formula_structural       Ce2Ir2O12Sr4
_chemical_formula_sum              "Ce2 Ir2 O12 Sr4"
_cell_length_a       5.87344
_cell_length_b       5.95844
_cell_length_c       8.34277
_cell_angle_alpha    90
_cell_angle_beta     90.7241
_cell_angle_gamma    90

_space_group_name_H-M_alt    "P 1"
_space_group_IT_number       1

loop_
  _space_group_symop_operation_xyz
  'x, y, z'

loop_
  _atom_site_type_symbol
  _atom_site_label
  _atom_site_symmetry_multiplicity
  _atom_site_fract_x
  _atom_site_fract_y
  _atom_site_fract_z
  _atom_site_occupancy
  Ce  Ce1       1.0  0.50000  0.00000  0.00000  1.0000
  Ce  Ce2       1.0  1.00000  0.50000  0.50000  1.0000
  Ir  Ir1       1.0  0.00000  0.50000  0.00000  1.0000
  Ir  Ir2       1.0  0.50000  0.00000  0.50000  1.0000
  O   O1        1.0  0.27200  0.31400  0.04980  1.0000
  O   O2        1.0  0.17900  0.77400  0.05190  1.0000
  O   O3        1.0  0.90500  0.47200  0.22600  1.0000
  O   O4        1.0  0.59500  0.97200  0.27400  1.0000
  O   O5        1.0  0.32100  0.27400  0.44800  1.0000
  O   O6        1.0  0.22800  0.81400  0.45000  1.0000
  O   O7        1.0  0.77200  0.18600  0.55000  1.0000
  O   O8        1.0  0.67900  0.72600  0.55200  1.0000
  O   O9        1.0  0.40500  0.02850  0.72600  1.0000
  O   O10       1.0  0.09540  0.52800  0.77400  1.0000
  O   O11       1.0  0.82100  0.22600  0.94800  1.0000
  O   O12       1.0  0.72800  0.68600  0.95000  1.0000
  Sr  Sr1       1.0  0.01310  0.04840  0.24800  1.0000
  Sr  Sr2       1.0  0.48700  0.54800  0.25200  1.0000
  Sr  Sr3       1.0  0.51300  0.45200  0.74800  1.0000
  Sr  Sr4       1.0  0.98700  0.95200  0.75200  1.0000
