data_image0
_chemical_formula_structural       O12Ru2Sr4Tb2
_chemical_formula_sum              "O12 Ru2 Sr4 Tb2"
_cell_length_a       5.77814
_cell_length_b       5.82079
_cell_length_c       8.1823
_cell_angle_alpha    90
_cell_angle_beta     90.2553
_cell_angle_gamma    90

_space_group_name_H-M_alt    "P 1"
_space_group_IT_number       1

loop_
  _space_group_symop_operation_xyz
  'x, y, z'

loop_
  _atom_site_type_symbol
  _atom_site_label
  _atom_site_symmetry_multiplicity
  _atom_site_fract_x
  _atom_site_fract_y
  _atom_site_fract_z
  _atom_site_occupancy
  O   O1        1.0  0.27200  0.80300  0.04130  1.0000
  O   O2        1.0  0.19300  0.27400  0.04260  1.0000
  O   O3        1.0  0.92100  0.98000  0.23400  1.0000
  O   O4        1.0  0.57900  0.48000  0.26600  1.0000
  O   O5        1.0  0.30700  0.77400  0.45700  1.0000
  O   O6        1.0  0.22800  0.30300  0.45900  1.0000
  O   O7        1.0  0.77200  0.69700  0.54100  1.0000
  O   O8        1.0  0.69300  0.22600  0.54300  1.0000
  O   O9        1.0  0.42100  0.52000  0.73400  1.0000
  O   O10       1.0  0.07940  0.01980  0.76600  1.0000
  O   O11       1.0  0.80700  0.72600  0.95700  1.0000
  O   O12       1.0  0.72800  0.19700  0.95900  1.0000
  Ru  Ru1       1.0  0.00000  0.00000  0.00000  1.0000
  Ru  Ru2       1.0  0.50000  0.50000  0.50000  1.0000
  Sr  Sr1       1.0  0.00823  0.53800  0.24900  1.0000
  Sr  Sr2       1.0  0.49200  0.03760  0.25100  1.0000
  Sr  Sr3       1.0  0.50800  0.96200  0.74900  1.0000
  Sr  Sr4       1.0  0.99200  0.46200  0.75100  1.0000
  Tb  Tb1       1.0  0.50000  0.50000  1.00000  1.0000
  Tb  Tb2       1.0  1.00000  0.00000  0.50000  1.0000
