data_image0
_chemical_formula_structural       Ga2O12Tb6
_chemical_formula_sum              "Ga2 O12 Tb6"
_cell_length_a       5.42432
_cell_length_b       7.11945
_cell_length_c       7.11945
_cell_angle_alpha    102.793
_cell_angle_beta     90
_cell_angle_gamma    90

_space_group_name_H-M_alt    "P 1"
_space_group_IT_number       1

loop_
  _space_group_symop_operation_xyz
  'x, y, z'

loop_
  _atom_site_type_symbol
  _atom_site_label
  _atom_site_symmetry_multiplicity
  _atom_site_fract_x
  _atom_site_fract_y
  _atom_site_fract_z
  _atom_site_occupancy
  Ga  Ga1       1.0  0.00000  0.80700  0.19300  1.0000
  Ga  Ga2       1.0  0.50000  0.19300  0.80700  1.0000
  O   O1        1.0  0.14100  0.96200  0.03780  1.0000
  O   O2        1.0  0.17800  0.57800  0.10500  1.0000
  O   O3        1.0  0.66400  0.78300  0.21700  1.0000
  O   O4        1.0  0.69700  0.35600  0.32400  1.0000
  O   O5        1.0  0.19700  0.32400  0.35600  1.0000
  O   O6        1.0  0.17800  0.89500  0.42200  1.0000
  O   O7        1.0  0.67800  0.10500  0.57800  1.0000
  O   O8        1.0  0.69700  0.67600  0.64400  1.0000
  O   O9        1.0  0.19700  0.64400  0.67600  1.0000
  O   O10       1.0  0.16400  0.21700  0.78300  1.0000
  O   O11       1.0  0.67800  0.42200  0.89500  1.0000
  O   O12       1.0  0.64100  0.03780  0.96200  1.0000
  Tb  Tb1       1.0  0.96900  0.29800  0.08700  1.0000
  Tb  Tb2       1.0  0.46900  0.08700  0.29800  1.0000
  Tb  Tb3       1.0  0.42200  0.60300  0.39700  1.0000
  Tb  Tb4       1.0  0.92200  0.39700  0.60300  1.0000
  Tb  Tb5       1.0  0.96900  0.91300  0.70200  1.0000
  Tb  Tb6       1.0  0.46900  0.70200  0.91300  1.0000
