data_image0
_chemical_formula_structural       Ir2O12Sc2Sr4
_chemical_formula_sum              "Ir2 O12 Sc2 Sr4"
_cell_length_a       5.6789
_cell_length_b       5.63373
_cell_length_c       7.95634
_cell_angle_alpha    90
_cell_angle_beta     90.132
_cell_angle_gamma    90

_space_group_name_H-M_alt    "P 1"
_space_group_IT_number       1

loop_
  _space_group_symop_operation_xyz
  'x, y, z'

loop_
  _atom_site_type_symbol
  _atom_site_label
  _atom_site_symmetry_multiplicity
  _atom_site_fract_x
  _atom_site_fract_y
  _atom_site_fract_z
  _atom_site_occupancy
  Ir  Ir1       1.0  0.50000  0.00000  0.00000  1.0000
  Ir  Ir2       1.0  1.00000  0.50000  0.50000  1.0000
  O   O1        1.0  0.74100  0.24700  0.02960  1.0000
  O   O2        1.0  0.74600  0.75800  0.03080  1.0000
  O   O3        1.0  0.44300  0.99900  0.24400  1.0000
  O   O4        1.0  0.05720  0.49900  0.25600  1.0000
  O   O5        1.0  0.75400  0.25800  0.46900  1.0000
  O   O6        1.0  0.75900  0.74700  0.47000  1.0000
  O   O7        1.0  0.24100  0.25300  0.53000  1.0000
  O   O8        1.0  0.24600  0.74200  0.53100  1.0000
  O   O9        1.0  0.94300  0.50100  0.74400  1.0000
  O   O10       1.0  0.55700  0.00052  0.75600  1.0000
  O   O11       1.0  0.25400  0.24200  0.96900  1.0000
  O   O12       1.0  0.25900  0.75300  0.97000  1.0000
  Sc  Sc1       1.0  0.00000  0.50000  0.00000  1.0000
  Sc  Sc2       1.0  0.50000  0.00000  0.50000  1.0000
  Sr  Sr1       1.0  0.50400  0.50200  0.25000  1.0000
  Sr  Sr2       1.0  0.99600  0.00249  0.25000  1.0000
  Sr  Sr3       1.0  0.00388  0.99800  0.75000  1.0000
  Sr  Sr4       1.0  0.49600  0.49800  0.75000  1.0000
