data_image0
_chemical_formula_structural       Ca4Fe2O12Re2
_chemical_formula_sum              "Ca4 Fe2 O12 Re2"
_cell_length_a       5.37113
_cell_length_b       5.53686
_cell_length_c       7.66807
_cell_angle_alpha    90
_cell_angle_beta     90.1578
_cell_angle_gamma    90

_space_group_name_H-M_alt    "P 1"
_space_group_IT_number       1

loop_
  _space_group_symop_operation_xyz
  'x, y, z'

loop_
  _atom_site_type_symbol
  _atom_site_label
  _atom_site_symmetry_multiplicity
  _atom_site_fract_x
  _atom_site_fract_y
  _atom_site_fract_z
  _atom_site_occupancy
  Ca  Ca1       1.0  0.01190  0.05250  0.24900  1.0000
  Ca  Ca2       1.0  0.48800  0.55200  0.25100  1.0000
  Ca  Ca3       1.0  0.51200  0.44800  0.74900  1.0000
  Ca  Ca4       1.0  0.98800  0.94800  0.75100  1.0000
  Fe  Fe1       1.0  0.00000  0.50000  0.00000  1.0000
  Fe  Fe2       1.0  0.50000  0.00000  0.50000  1.0000
  O   O1        1.0  0.20600  0.80100  0.04580  1.0000
  O   O2        1.0  0.30500  0.29200  0.04770  1.0000
  O   O3        1.0  0.59000  0.97300  0.24600  1.0000
  O   O4        1.0  0.91000  0.47300  0.25400  1.0000
  O   O5        1.0  0.19500  0.79200  0.45200  1.0000
  O   O6        1.0  0.29400  0.30100  0.45400  1.0000
  O   O7        1.0  0.70600  0.69900  0.54600  1.0000
  O   O8        1.0  0.80500  0.20800  0.54800  1.0000
  O   O9        1.0  0.08970  0.52700  0.74600  1.0000
  O   O10       1.0  0.41000  0.02660  0.75400  1.0000
  O   O11       1.0  0.69500  0.70800  0.95200  1.0000
  O   O12       1.0  0.79400  0.19900  0.95400  1.0000
  Re  Re1       1.0  0.50000  0.00000  1.00000  1.0000
  Re  Re2       1.0  0.00000  0.50000  0.50000  1.0000
