data_image0
_chemical_formula_structural       Ho2O12Sb2Sr4
_chemical_formula_sum              "Ho2 O12 Sb2 Sr4"
_cell_length_a       5.81024
_cell_length_b       5.84759
_cell_length_c       8.23351
_cell_angle_alpha    90
_cell_angle_beta     90.2202
_cell_angle_gamma    90

_space_group_name_H-M_alt    "P 1"
_space_group_IT_number       1

loop_
  _space_group_symop_operation_xyz
  'x, y, z'

loop_
  _atom_site_type_symbol
  _atom_site_label
  _atom_site_symmetry_multiplicity
  _atom_site_fract_x
  _atom_site_fract_y
  _atom_site_fract_z
  _atom_site_occupancy
  Ho  Ho1       1.0  0.50000  0.00000  1.00000  1.0000
  Ho  Ho2       1.0  0.00000  0.50000  0.50000  1.0000
  O   O1        1.0  0.27300  0.29800  0.03980  1.0000
  O   O2        1.0  0.19900  0.77400  0.04150  1.0000
  O   O3        1.0  0.92300  0.48100  0.23700  1.0000
  O   O4        1.0  0.57700  0.98100  0.26300  1.0000
  O   O5        1.0  0.30100  0.27400  0.45900  1.0000
  O   O6        1.0  0.22700  0.79800  0.46000  1.0000
  O   O7        1.0  0.77300  0.20200  0.54000  1.0000
  O   O8        1.0  0.69900  0.72600  0.54100  1.0000
  O   O9        1.0  0.42300  0.01940  0.73700  1.0000
  O   O10       1.0  0.07700  0.51900  0.76300  1.0000
  O   O11       1.0  0.80100  0.22600  0.95900  1.0000
  O   O12       1.0  0.72700  0.70200  0.96000  1.0000
  Sb  Sb1       1.0  0.00000  0.50000  0.00000  1.0000
  Sb  Sb2       1.0  0.50000  0.00000  0.50000  1.0000
  Sr  Sr1       1.0  0.00727  0.03200  0.24900  1.0000
  Sr  Sr2       1.0  0.49300  0.53200  0.25100  1.0000
  Sr  Sr3       1.0  0.50700  0.46800  0.74900  1.0000
  Sr  Sr4       1.0  0.99300  0.96800  0.75100  1.0000
