data_image0
_chemical_formula_structural       C12Gd8
_chemical_formula_sum              "C12 Gd8"
_cell_length_a       7.2066
_cell_length_b       7.2066
_cell_length_c       7.2066
_cell_angle_alpha    109.471
_cell_angle_beta     109.471
_cell_angle_gamma    109.471

_space_group_name_H-M_alt    "P 1"
_space_group_IT_number       1

loop_
  _space_group_symop_operation_xyz
  'x, y, z'

loop_
  _atom_site_type_symbol
  _atom_site_label
  _atom_site_symmetry_multiplicity
  _atom_site_fract_x
  _atom_site_fract_y
  _atom_site_fract_z
  _atom_site_occupancy
  C   C1        1.0  0.75000  0.29500  0.04470  1.0000
  C   C2        1.0  0.75000  0.45500  0.20500  1.0000
  C   C3        1.0  0.29500  0.54500  0.25000  1.0000
  C   C4        1.0  0.45500  0.70500  0.25000  1.0000
  C   C5        1.0  0.25000  0.04470  0.29500  1.0000
  C   C6        1.0  0.25000  0.20500  0.45500  1.0000
  C   C7        1.0  0.79500  0.25000  0.54500  1.0000
  C   C8        1.0  0.95500  0.25000  0.70500  1.0000
  C   C9        1.0  0.04470  0.79500  0.75000  1.0000
  C   C10       1.0  0.20500  0.95500  0.75000  1.0000
  C   C11       1.0  0.54500  0.75000  0.79500  1.0000
  C   C12       1.0  0.70500  0.75000  0.95500  1.0000
  Gd  Gd1       1.0  0.00000  0.10200  0.00000  1.0000
  Gd  Gd2       1.0  0.00000  0.60200  0.00000  1.0000
  Gd  Gd3       1.0  0.50000  0.00000  0.10200  1.0000
  Gd  Gd4       1.0  0.89800  0.89800  0.39800  1.0000
  Gd  Gd5       1.0  0.10200  0.50000  0.50000  1.0000
  Gd  Gd6       1.0  0.60200  0.50000  0.50000  1.0000
  Gd  Gd7       1.0  0.50000  0.00000  0.60200  1.0000
  Gd  Gd8       1.0  0.39800  0.39800  0.89800  1.0000
