data_image0
_chemical_formula_structural       Ga4Sn8V8
_chemical_formula_sum              "Ga4 Sn8 V8"
_cell_length_a       9.81429
_cell_length_b       5.61053
_cell_length_c       6.74649
_cell_angle_alpha    90
_cell_angle_beta     90
_cell_angle_gamma    106.609

_space_group_name_H-M_alt    "P 1"
_space_group_IT_number       1

loop_
  _space_group_symop_operation_xyz
  'x, y, z'

loop_
  _atom_site_type_symbol
  _atom_site_label
  _atom_site_symmetry_multiplicity
  _atom_site_fract_x
  _atom_site_fract_y
  _atom_site_fract_z
  _atom_site_occupancy
  Ga  Ga1       1.0  0.03580  0.26800  0.25000  1.0000
  Ga  Ga2       1.0  0.03580  0.76800  0.25000  1.0000
  Ga  Ga3       1.0  0.96400  0.23200  0.75000  1.0000
  Ga  Ga4       1.0  0.96400  0.73200  0.75000  1.0000
  Sn  Sn1       1.0  0.77800  0.38900  0.07700  1.0000
  Sn  Sn2       1.0  0.55600  0.77800  0.07760  1.0000
  Sn  Sn3       1.0  0.55600  0.27800  0.42200  1.0000
  Sn  Sn4       1.0  0.77800  0.88900  0.42300  1.0000
  Sn  Sn5       1.0  0.22200  0.11100  0.57700  1.0000
  Sn  Sn6       1.0  0.44400  0.72200  0.57800  1.0000
  Sn  Sn7       1.0  0.44400  0.22200  0.92200  1.0000
  Sn  Sn8       1.0  0.22200  0.61100  0.92300  1.0000
  V   V1        1.0  0.85200  0.92600  0.02770  1.0000
  V   V2        1.0  0.31700  0.40800  0.25000  1.0000
  V   V3        1.0  0.31700  0.90800  0.25000  1.0000
  V   V4        1.0  0.85200  0.42600  0.47200  1.0000
  V   V5        1.0  0.14800  0.57400  0.52800  1.0000
  V   V6        1.0  0.68300  0.09160  0.75000  1.0000
  V   V7        1.0  0.68300  0.59200  0.75000  1.0000
  V   V8        1.0  0.14800  0.07420  0.97200  1.0000
