data_image0
_chemical_formula_structural       Na2P4S12Sb2
_chemical_formula_sum              "Na2 P4 S12 Sb2"
_cell_length_a       6.56998
_cell_length_b       7.58134
_cell_length_c       9.44206
_cell_angle_alpha    90
_cell_angle_beta     92.7457
_cell_angle_gamma    90

_space_group_name_H-M_alt    "P 1"
_space_group_IT_number       1

loop_
  _space_group_symop_operation_xyz
  'x, y, z'

loop_
  _atom_site_type_symbol
  _atom_site_label
  _atom_site_symmetry_multiplicity
  _atom_site_fract_x
  _atom_site_fract_y
  _atom_site_fract_z
  _atom_site_occupancy
  Na  Na1       1.0  0.30700  0.95600  0.49300  1.0000
  Na  Na2       1.0  0.69300  0.45600  0.50700  1.0000
  P   P1        1.0  0.31100  0.66700  0.18200  1.0000
  P   P2        1.0  0.18800  0.45200  0.31800  1.0000
  P   P3        1.0  0.81200  0.95200  0.68200  1.0000
  P   P4        1.0  0.68900  0.16700  0.81800  1.0000
  S   S1        1.0  0.65400  0.04970  0.01490  1.0000
  S   S2        1.0  0.08970  0.86100  0.17600  1.0000
  S   S3        1.0  0.93800  0.37300  0.19100  1.0000
  S   S4        1.0  0.57200  0.75800  0.27300  1.0000
  S   S5        1.0  0.40200  0.26100  0.30300  1.0000
  S   S6        1.0  0.87200  0.05500  0.49700  1.0000
  S   S7        1.0  0.12800  0.55500  0.50300  1.0000
  S   S8        1.0  0.59800  0.76100  0.69700  1.0000
  S   S9        1.0  0.42800  0.25800  0.72700  1.0000
  S   S10       1.0  0.06170  0.87300  0.80900  1.0000
  S   S11       1.0  0.91000  0.36100  0.82400  1.0000
  S   S12       1.0  0.34600  0.55000  0.98500  1.0000
  Sb  Sb1       1.0  0.18900  0.24200  0.01730  1.0000
  Sb  Sb2       1.0  0.81100  0.74200  0.98300  1.0000
