data_image0
_chemical_formula_structural       Gd2O12Ru2Sr4
_chemical_formula_sum              "Gd2 O12 Ru2 Sr4"
_cell_length_a       5.78265
_cell_length_b       5.84587
_cell_length_c       8.20133
_cell_angle_alpha    90
_cell_angle_beta     90.4395
_cell_angle_gamma    90

_space_group_name_H-M_alt    "P 1"
_space_group_IT_number       1

loop_
  _space_group_symop_operation_xyz
  'x, y, z'

loop_
  _atom_site_type_symbol
  _atom_site_label
  _atom_site_symmetry_multiplicity
  _atom_site_fract_x
  _atom_site_fract_y
  _atom_site_fract_z
  _atom_site_occupancy
  Gd  Gd1       1.0  0.00000  0.50000  0.00000  1.0000
  Gd  Gd2       1.0  0.50000  0.00000  0.50000  1.0000
  O   O1        1.0  0.77200  0.80400  0.04280  1.0000
  O   O2        1.0  0.69200  0.27400  0.04420  1.0000
  O   O3        1.0  0.41800  0.97900  0.23300  1.0000
  O   O4        1.0  0.08180  0.47900  0.26700  1.0000
  O   O5        1.0  0.80800  0.77400  0.45600  1.0000
  O   O6        1.0  0.72800  0.30400  0.45700  1.0000
  O   O7        1.0  0.27200  0.69600  0.54300  1.0000
  O   O8        1.0  0.19200  0.22600  0.54400  1.0000
  O   O9        1.0  0.91800  0.52100  0.73300  1.0000
  O   O10       1.0  0.58200  0.02120  0.76700  1.0000
  O   O11       1.0  0.30800  0.72600  0.95600  1.0000
  O   O12       1.0  0.22800  0.19600  0.95700  1.0000
  Ru  Ru1       1.0  0.50000  0.00000  1.00000  1.0000
  Ru  Ru2       1.0  1.00000  0.50000  0.50000  1.0000
  Sr  Sr1       1.0  0.51000  0.54000  0.24900  1.0000
  Sr  Sr2       1.0  0.99000  0.04040  0.25100  1.0000
  Sr  Sr3       1.0  0.00987  0.96000  0.74900  1.0000
  Sr  Sr4       1.0  0.49000  0.46000  0.75100  1.0000
