data_image0
_chemical_formula_structural       Ga6Ge4Ni10
_chemical_formula_sum              "Ga6 Ge4 Ni10"
_cell_length_a       3.91203
_cell_length_b       6.37612
_cell_length_c       11.1434
_cell_angle_alpha    90
_cell_angle_beta     90
_cell_angle_gamma    72.1352

_space_group_name_H-M_alt    "P 1"
_space_group_IT_number       1

loop_
  _space_group_symop_operation_xyz
  'x, y, z'

loop_
  _atom_site_type_symbol
  _atom_site_label
  _atom_site_symmetry_multiplicity
  _atom_site_fract_x
  _atom_site_fract_y
  _atom_site_fract_z
  _atom_site_occupancy
  Ga  Ga1       1.0  0.50000  0.00000  0.00000  1.0000
  Ga  Ga2       1.0  0.16900  0.66300  0.02330  1.0000
  Ga  Ga3       1.0  0.16900  0.66300  0.47700  1.0000
  Ga  Ga4       1.0  0.50000  0.00000  0.50000  1.0000
  Ga  Ga5       1.0  0.83100  0.33700  0.52300  1.0000
  Ga  Ga6       1.0  0.83100  0.33700  0.97700  1.0000
  Ge  Ge1       1.0  0.78900  0.42100  0.25000  1.0000
  Ge  Ge2       1.0  0.53700  0.92600  0.25000  1.0000
  Ge  Ge3       1.0  0.46300  0.07380  0.75000  1.0000
  Ge  Ge4       1.0  0.21100  0.57900  0.75000  1.0000
  Ni  Ni1       1.0  0.97900  0.04170  0.13200  1.0000
  Ni  Ni2       1.0  0.34000  0.31900  0.13200  1.0000
  Ni  Ni3       1.0  0.16000  0.68000  0.25000  1.0000
  Ni  Ni4       1.0  0.34000  0.31900  0.36800  1.0000
  Ni  Ni5       1.0  0.97900  0.04170  0.36800  1.0000
  Ni  Ni6       1.0  0.02080  0.95800  0.63200  1.0000
  Ni  Ni7       1.0  0.66000  0.68100  0.63200  1.0000
  Ni  Ni8       1.0  0.84000  0.32000  0.75000  1.0000
  Ni  Ni9       1.0  0.66000  0.68100  0.86800  1.0000
  Ni  Ni10      1.0  0.02080  0.95800  0.86800  1.0000
