data_image0
_chemical_formula_structural       Ir6Sn14
_chemical_formula_sum              "Ir6 Sn14"
_cell_length_a       8.21428
_cell_length_b       8.21428
_cell_length_c       8.21428
_cell_angle_alpha    109.471
_cell_angle_beta     109.471
_cell_angle_gamma    109.471

_space_group_name_H-M_alt    "P 1"
_space_group_IT_number       1

loop_
  _space_group_symop_operation_xyz
  'x, y, z'

loop_
  _atom_site_type_symbol
  _atom_site_label
  _atom_site_symmetry_multiplicity
  _atom_site_fract_x
  _atom_site_fract_y
  _atom_site_fract_z
  _atom_site_occupancy
  Ir  Ir1       1.0  0.34200  0.34200  0.00000  1.0000
  Ir  Ir2       1.0  0.65800  0.65800  0.00000  1.0000
  Ir  Ir3       1.0  0.34200  0.00000  0.34200  1.0000
  Ir  Ir4       1.0  0.00000  0.34200  0.34200  1.0000
  Ir  Ir5       1.0  0.65800  0.00000  0.65800  1.0000
  Ir  Ir6       1.0  0.00000  0.65800  0.65800  1.0000
  Sn  Sn1       1.0  0.33000  0.00000  0.00000  1.0000
  Sn  Sn2       1.0  0.67000  0.00000  0.00000  1.0000
  Sn  Sn3       1.0  0.00000  0.33000  0.00000  1.0000
  Sn  Sn4       1.0  0.00000  0.67000  0.00000  1.0000
  Sn  Sn5       1.0  0.75000  0.50000  0.25000  1.0000
  Sn  Sn6       1.0  0.50000  0.75000  0.25000  1.0000
  Sn  Sn7       1.0  0.00000  0.00000  0.33000  1.0000
  Sn  Sn8       1.0  0.33000  0.33000  0.33000  1.0000
  Sn  Sn9       1.0  0.75000  0.25000  0.50000  1.0000
  Sn  Sn10      1.0  0.25000  0.75000  0.50000  1.0000
  Sn  Sn11      1.0  0.00000  0.00000  0.67000  1.0000
  Sn  Sn12      1.0  0.67000  0.67000  0.67000  1.0000
  Sn  Sn13      1.0  0.50000  0.25000  0.75000  1.0000
  Sn  Sn14      1.0  0.25000  0.50000  0.75000  1.0000
