data_image0
_chemical_formula_structural       La4Ni2O12Ru2
_chemical_formula_sum              "La4 Ni2 O12 Ru2"
_cell_length_a       5.54433
_cell_length_b       5.61905
_cell_length_c       7.84925
_cell_angle_alpha    90
_cell_angle_beta     89.9692
_cell_angle_gamma    90

_space_group_name_H-M_alt    "P 1"
_space_group_IT_number       1

loop_
  _space_group_symop_operation_xyz
  'x, y, z'

loop_
  _atom_site_type_symbol
  _atom_site_label
  _atom_site_symmetry_multiplicity
  _atom_site_fract_x
  _atom_site_fract_y
  _atom_site_fract_z
  _atom_site_occupancy
  La  La1       1.0  0.49000  0.54800  0.25000  1.0000
  La  La2       1.0  0.01010  0.04820  0.25000  1.0000
  La  La3       1.0  0.99000  0.95200  0.75000  1.0000
  La  La4       1.0  0.51000  0.45200  0.75000  1.0000
  Ni  Ni1       1.0  0.50000  0.00000  1.00000  1.0000
  Ni  Ni2       1.0  1.00000  0.50000  0.50000  1.0000
  O   O1        1.0  0.29200  0.29500  0.04430  1.0000
  O   O2        1.0  0.20300  0.79000  0.04620  1.0000
  O   O3        1.0  0.91500  0.48400  0.24900  1.0000
  O   O4        1.0  0.58500  0.98400  0.25100  1.0000
  O   O5        1.0  0.29700  0.29000  0.45400  1.0000
  O   O6        1.0  0.20800  0.79500  0.45600  1.0000
  O   O7        1.0  0.79200  0.20500  0.54400  1.0000
  O   O8        1.0  0.70300  0.71000  0.54600  1.0000
  O   O9        1.0  0.41500  0.01580  0.74900  1.0000
  O   O10       1.0  0.08530  0.51600  0.75100  1.0000
  O   O11       1.0  0.79700  0.21000  0.95400  1.0000
  O   O12       1.0  0.70800  0.70500  0.95600  1.0000
  Ru  Ru1       1.0  0.00000  0.50000  0.00000  1.0000
  Ru  Ru2       1.0  0.50000  0.00000  0.50000  1.0000
