data_image0
_chemical_formula_structural       Ce4Cr4S12
_chemical_formula_sum              "Ce4 Cr4 S12"
_cell_length_a       7.83181
_cell_length_b       3.81693
_cell_length_c       13.1765
_cell_angle_alpha    90
_cell_angle_beta     90
_cell_angle_gamma    90

_space_group_name_H-M_alt    "P 1"
_space_group_IT_number       1

loop_
  _space_group_symop_operation_xyz
  'x, y, z'

loop_
  _atom_site_type_symbol
  _atom_site_label
  _atom_site_symmetry_multiplicity
  _atom_site_fract_x
  _atom_site_fract_y
  _atom_site_fract_z
  _atom_site_occupancy
  Ce  Ce1       1.0  0.08920  0.25000  0.17200  1.0000
  Ce  Ce2       1.0  0.58900  0.25000  0.32800  1.0000
  Ce  Ce3       1.0  0.41100  0.75000  0.67200  1.0000
  Ce  Ce4       1.0  0.91100  0.75000  0.82800  1.0000
  Cr  Cr1       1.0  0.66100  0.75000  0.05190  1.0000
  Cr  Cr2       1.0  0.16100  0.75000  0.44800  1.0000
  Cr  Cr3       1.0  0.83900  0.25000  0.55200  1.0000
  Cr  Cr4       1.0  0.33900  0.25000  0.94800  1.0000
  S   S1        1.0  0.16200  0.75000  0.00447  1.0000
  S   S2        1.0  0.48800  0.25000  0.10500  1.0000
  S   S3        1.0  0.80400  0.75000  0.21200  1.0000
  S   S4        1.0  0.30400  0.75000  0.28800  1.0000
  S   S5        1.0  0.98800  0.25000  0.39500  1.0000
  S   S6        1.0  0.66200  0.75000  0.49600  1.0000
  S   S7        1.0  0.33800  0.25000  0.50400  1.0000
  S   S8        1.0  0.01150  0.75000  0.60500  1.0000
  S   S9        1.0  0.69600  0.25000  0.71200  1.0000
  S   S10       1.0  0.19600  0.25000  0.78800  1.0000
  S   S11       1.0  0.51200  0.75000  0.89500  1.0000
  S   S12       1.0  0.83800  0.25000  0.99600  1.0000
