data_image0
_chemical_formula_structural       As2Bi2Ca4O12
_chemical_formula_sum              "As2 Bi2 Ca4 O12"
_cell_length_a       5.55607
_cell_length_b       7.37673
_cell_length_c       7.37673
_cell_angle_alpha    73.6457
_cell_angle_beta     90
_cell_angle_gamma    90

_space_group_name_H-M_alt    "P 1"
_space_group_IT_number       1

loop_
  _space_group_symop_operation_xyz
  'x, y, z'

loop_
  _atom_site_type_symbol
  _atom_site_label
  _atom_site_symmetry_multiplicity
  _atom_site_fract_x
  _atom_site_fract_y
  _atom_site_fract_z
  _atom_site_occupancy
  As  As1       1.0  0.69500  0.18300  0.18300  1.0000
  As  As2       1.0  0.19500  0.81700  0.81700  1.0000
  Bi  Bi1       1.0  0.24900  0.40700  0.40700  1.0000
  Bi  Bi2       1.0  0.74900  0.59300  0.59300  1.0000
  Ca  Ca1       1.0  0.73800  0.69800  0.09180  1.0000
  Ca  Ca2       1.0  0.23800  0.90800  0.30200  1.0000
  Ca  Ca3       1.0  0.73800  0.09180  0.69800  1.0000
  Ca  Ca4       1.0  0.23800  0.30200  0.90800  1.0000
  O   O1        1.0  0.57200  0.04770  0.04770  1.0000
  O   O2        1.0  0.57500  0.40400  0.08580  1.0000
  O   O3        1.0  0.00344  0.18800  0.18800  1.0000
  O   O4        1.0  0.99000  0.65100  0.34200  1.0000
  O   O5        1.0  0.49000  0.65800  0.34900  1.0000
  O   O6        1.0  0.57500  0.08580  0.40400  1.0000
  O   O7        1.0  0.07530  0.91400  0.59600  1.0000
  O   O8        1.0  0.99000  0.34200  0.65100  1.0000
  O   O9        1.0  0.49000  0.34900  0.65800  1.0000
  O   O10       1.0  0.50300  0.81200  0.81200  1.0000
  O   O11       1.0  0.07530  0.59600  0.91400  1.0000
  O   O12       1.0  0.07210  0.95200  0.95200  1.0000
