data_image0
_chemical_formula_structural       Cd4Cl4S8Sb4
_chemical_formula_sum              "Cd4 Cl4 S8 Sb4"
_cell_length_a       9.63388
_cell_length_b       3.95261
_cell_length_c       12.5966
_cell_angle_alpha    90
_cell_angle_beta     90
_cell_angle_gamma    90

_space_group_name_H-M_alt    "P 1"
_space_group_IT_number       1

loop_
  _space_group_symop_operation_xyz
  'x, y, z'

loop_
  _atom_site_type_symbol
  _atom_site_label
  _atom_site_symmetry_multiplicity
  _atom_site_fract_x
  _atom_site_fract_y
  _atom_site_fract_z
  _atom_site_occupancy
  Cd  Cd1       1.0  0.49900  0.75000  0.23100  1.0000
  Cd  Cd2       1.0  0.99900  0.75000  0.26900  1.0000
  Cd  Cd3       1.0  0.00079  0.25000  0.73100  1.0000
  Cd  Cd4       1.0  0.50100  0.25000  0.76900  1.0000
  Cl  Cl1       1.0  0.57300  0.25000  0.10600  1.0000
  Cl  Cl2       1.0  0.07350  0.25000  0.39400  1.0000
  Cl  Cl3       1.0  0.92700  0.75000  0.60600  1.0000
  Cl  Cl4       1.0  0.42700  0.75000  0.89400  1.0000
  S   S1        1.0  0.94700  0.25000  0.11000  1.0000
  S   S2        1.0  0.24000  0.75000  0.16500  1.0000
  S   S3        1.0  0.74000  0.75000  0.33500  1.0000
  S   S4        1.0  0.44700  0.25000  0.39000  1.0000
  S   S5        1.0  0.55300  0.75000  0.61000  1.0000
  S   S6        1.0  0.26000  0.25000  0.66500  1.0000
  S   S7        1.0  0.76000  0.25000  0.83500  1.0000
  S   S8        1.0  0.05330  0.75000  0.89000  1.0000
  Sb  Sb1       1.0  0.18500  0.25000  0.03050  1.0000
  Sb  Sb2       1.0  0.68500  0.25000  0.46900  1.0000
  Sb  Sb3       1.0  0.31500  0.75000  0.53100  1.0000
  Sb  Sb4       1.0  0.81500  0.75000  0.96900  1.0000
