data_image0
_chemical_formula_structural       Ge10Pt6Sm4
_chemical_formula_sum              "Ge10 Pt6 Sm4"
_cell_length_a       6.31952
_cell_length_b       8.45871
_cell_length_c       8.45871
_cell_angle_alpha    105.179
_cell_angle_beta     68.0652
_cell_angle_gamma    111.935

_space_group_name_H-M_alt    "P 1"
_space_group_IT_number       1

loop_
  _space_group_symop_operation_xyz
  'x, y, z'

loop_
  _atom_site_type_symbol
  _atom_site_label
  _atom_site_symmetry_multiplicity
  _atom_site_fract_x
  _atom_site_fract_y
  _atom_site_fract_z
  _atom_site_occupancy
  Ge  Ge1       1.0  0.10500  0.26000  0.04970  1.0000
  Ge  Ge2       1.0  0.02230  0.77200  0.22800  1.0000
  Ge  Ge3       1.0  0.52200  0.77200  0.22800  1.0000
  Ge  Ge4       1.0  0.39500  0.04970  0.26000  1.0000
  Ge  Ge5       1.0  0.25000  0.50000  0.50000  1.0000
  Ge  Ge6       1.0  0.75000  0.50000  0.50000  1.0000
  Ge  Ge7       1.0  0.60500  0.95000  0.74000  1.0000
  Ge  Ge8       1.0  0.47800  0.22800  0.77200  1.0000
  Ge  Ge9       1.0  0.97800  0.22800  0.77200  1.0000
  Ge  Ge10      1.0  0.89500  0.74000  0.95000  1.0000
  Pt  Pt1       1.0  0.25000  0.00000  0.00000  1.0000
  Pt  Pt2       1.0  0.75000  0.00000  0.00000  1.0000
  Pt  Pt3       1.0  0.13900  0.52700  0.25000  1.0000
  Pt  Pt4       1.0  0.63900  0.75000  0.47300  1.0000
  Pt  Pt5       1.0  0.36100  0.25000  0.52700  1.0000
  Pt  Pt6       1.0  0.86100  0.47300  0.75000  1.0000
  Sm  Sm1       1.0  0.63100  0.40200  0.13900  1.0000
  Sm  Sm2       1.0  0.86900  0.13900  0.40200  1.0000
  Sm  Sm3       1.0  0.13100  0.86100  0.59800  1.0000
  Sm  Sm4       1.0  0.36900  0.59800  0.86100  1.0000
