data_image0
_chemical_formula_structural       Cl12Na6Sc2
_chemical_formula_sum              "Cl12 Na6 Sc2"
_cell_length_a       6.72382
_cell_length_b       7.15243
_cell_length_c       9.89795
_cell_angle_alpha    90
_cell_angle_beta     90.5208
_cell_angle_gamma    90

_space_group_name_H-M_alt    "P 1"
_space_group_IT_number       1

loop_
  _space_group_symop_operation_xyz
  'x, y, z'

loop_
  _atom_site_type_symbol
  _atom_site_label
  _atom_site_symmetry_multiplicity
  _atom_site_fract_x
  _atom_site_fract_y
  _atom_site_fract_z
  _atom_site_occupancy
  Cl  Cl1       1.0  0.69700  0.17800  0.06280  1.0000
  Cl  Cl2       1.0  0.83600  0.70400  0.07640  1.0000
  Cl  Cl3       1.0  0.13700  0.05740  0.23400  1.0000
  Cl  Cl4       1.0  0.36300  0.55700  0.26600  1.0000
  Cl  Cl5       1.0  0.66400  0.20400  0.42400  1.0000
  Cl  Cl6       1.0  0.80300  0.67800  0.43700  1.0000
  Cl  Cl7       1.0  0.19700  0.32200  0.56300  1.0000
  Cl  Cl8       1.0  0.33600  0.79600  0.57600  1.0000
  Cl  Cl9       1.0  0.63700  0.44300  0.73400  1.0000
  Cl  Cl10      1.0  0.86300  0.94300  0.76600  1.0000
  Cl  Cl11      1.0  0.16400  0.29600  0.92400  1.0000
  Cl  Cl12      1.0  0.30300  0.82200  0.93700  1.0000
  Na  Na1       1.0  0.50000  0.50000  1.00000  1.0000
  Na  Na2       1.0  0.52700  0.92000  0.24200  1.0000
  Na  Na3       1.0  0.97300  0.42000  0.25800  1.0000
  Na  Na4       1.0  1.00000  0.00000  0.50000  1.0000
  Na  Na5       1.0  0.02710  0.58000  0.74200  1.0000
  Na  Na6       1.0  0.47300  0.07980  0.75800  1.0000
  Sc  Sc1       1.0  0.00000  0.00000  0.00000  1.0000
  Sc  Sc2       1.0  0.50000  0.50000  0.50000  1.0000
