data_image0
_chemical_formula_structural       Bi2Lu2O12Sr4
_chemical_formula_sum              "Bi2 Lu2 O12 Sr4"
_cell_length_a       5.85352
_cell_length_b       5.92547
_cell_length_c       8.30837
_cell_angle_alpha    90
_cell_angle_beta     89.9872
_cell_angle_gamma    90

_space_group_name_H-M_alt    "P 1"
_space_group_IT_number       1

loop_
  _space_group_symop_operation_xyz
  'x, y, z'

loop_
  _atom_site_type_symbol
  _atom_site_label
  _atom_site_symmetry_multiplicity
  _atom_site_fract_x
  _atom_site_fract_y
  _atom_site_fract_z
  _atom_site_occupancy
  Bi  Bi1       1.0  0.00000  0.00000  0.00000  1.0000
  Bi  Bi2       1.0  0.50000  0.50000  0.50000  1.0000
  Lu  Lu1       1.0  0.50000  0.50000  1.00000  1.0000
  Lu  Lu2       1.0  1.00000  0.00000  0.50000  1.0000
  O   O1        1.0  0.71400  0.20700  0.04670  1.0000
  O   O2        1.0  0.79500  0.71400  0.04680  1.0000
  O   O3        1.0  0.08830  0.02600  0.24600  1.0000
  O   O4        1.0  0.41200  0.52600  0.25400  1.0000
  O   O5        1.0  0.70500  0.21400  0.45300  1.0000
  O   O6        1.0  0.78600  0.70700  0.45300  1.0000
  O   O7        1.0  0.21400  0.29300  0.54700  1.0000
  O   O8        1.0  0.29500  0.78600  0.54700  1.0000
  O   O9        1.0  0.58800  0.47400  0.74600  1.0000
  O   O10       1.0  0.91200  0.97400  0.75400  1.0000
  O   O11       1.0  0.20500  0.28600  0.95300  1.0000
  O   O12       1.0  0.28600  0.79300  0.95300  1.0000
  Sr  Sr1       1.0  0.99000  0.46200  0.25000  1.0000
  Sr  Sr2       1.0  0.51000  0.96200  0.25000  1.0000
  Sr  Sr3       1.0  0.49000  0.03800  0.75000  1.0000
  Sr  Sr4       1.0  0.00990  0.53800  0.75000  1.0000
