data_image0
_chemical_formula_structural       Bi4Cd4Cl4S8
_chemical_formula_sum              "Bi4 Cd4 Cl4 S8"
_cell_length_a       9.56628
_cell_length_b       4.00375
_cell_length_c       12.7011
_cell_angle_alpha    90
_cell_angle_beta     90
_cell_angle_gamma    90

_space_group_name_H-M_alt    "P 1"
_space_group_IT_number       1

loop_
  _space_group_symop_operation_xyz
  'x, y, z'

loop_
  _atom_site_type_symbol
  _atom_site_label
  _atom_site_symmetry_multiplicity
  _atom_site_fract_x
  _atom_site_fract_y
  _atom_site_fract_z
  _atom_site_occupancy
  Bi  Bi1       1.0  0.30400  0.25000  0.02550  1.0000
  Bi  Bi2       1.0  0.80400  0.25000  0.47400  1.0000
  Bi  Bi3       1.0  0.19600  0.75000  0.52600  1.0000
  Bi  Bi4       1.0  0.69600  0.75000  0.97400  1.0000
  Cd  Cd1       1.0  0.99700  0.75000  0.23700  1.0000
  Cd  Cd2       1.0  0.49700  0.75000  0.26300  1.0000
  Cd  Cd3       1.0  0.50300  0.25000  0.73700  1.0000
  Cd  Cd4       1.0  0.00327  0.25000  0.76300  1.0000
  Cl  Cl1       1.0  0.92600  0.25000  0.10500  1.0000
  Cl  Cl2       1.0  0.42600  0.25000  0.39500  1.0000
  Cl  Cl3       1.0  0.57400  0.75000  0.60500  1.0000
  Cl  Cl4       1.0  0.07400  0.75000  0.89500  1.0000
  S   S1        1.0  0.55300  0.25000  0.11200  1.0000
  S   S2        1.0  0.25300  0.75000  0.16700  1.0000
  S   S3        1.0  0.75300  0.75000  0.33300  1.0000
  S   S4        1.0  0.05330  0.25000  0.38800  1.0000
  S   S5        1.0  0.94700  0.75000  0.61200  1.0000
  S   S6        1.0  0.24700  0.25000  0.66700  1.0000
  S   S7        1.0  0.74700  0.25000  0.83300  1.0000
  S   S8        1.0  0.44700  0.75000  0.88800  1.0000
