data_image0
_chemical_formula_structural       B4K2O12Ta2
_chemical_formula_sum              "B4 K2 O12 Ta2"
_cell_length_a       7.35183
_cell_length_b       3.88302
_cell_length_c       9.19905
_cell_angle_alpha    90
_cell_angle_beta     90
_cell_angle_gamma    90

_space_group_name_H-M_alt    "P 1"
_space_group_IT_number       1

loop_
  _space_group_symop_operation_xyz
  'x, y, z'

loop_
  _atom_site_type_symbol
  _atom_site_label
  _atom_site_symmetry_multiplicity
  _atom_site_fract_x
  _atom_site_fract_y
  _atom_site_fract_z
  _atom_site_occupancy
  B   B1        1.0  0.16800  0.01210  0.04460  1.0000
  B   B2        1.0  0.83200  0.01210  0.04460  1.0000
  B   B3        1.0  0.33200  0.98800  0.54500  1.0000
  B   B4        1.0  0.66800  0.98800  0.54500  1.0000
  K   K1        1.0  0.00000  0.53900  0.35800  1.0000
  K   K2        1.0  0.50000  0.46100  0.85800  1.0000
  O   O1        1.0  0.30800  0.18000  0.10900  1.0000
  O   O2        1.0  0.69200  0.18000  0.10900  1.0000
  O   O3        1.0  0.00000  0.03090  0.11800  1.0000
  O   O4        1.0  0.50000  0.68000  0.25800  1.0000
  O   O5        1.0  0.31200  0.15300  0.41600  1.0000
  O   O6        1.0  0.68800  0.15300  0.41600  1.0000
  O   O7        1.0  0.19200  0.82000  0.60900  1.0000
  O   O8        1.0  0.80800  0.82000  0.60900  1.0000
  O   O9        1.0  0.50000  0.96900  0.61800  1.0000
  O   O10       1.0  0.00000  0.32000  0.75800  1.0000
  O   O11       1.0  0.18800  0.84700  0.91600  1.0000
  O   O12       1.0  0.81200  0.84700  0.91600  1.0000
  Ta  Ta1       1.0  0.50000  0.20200  0.25600  1.0000
  Ta  Ta2       1.0  0.00000  0.79800  0.75600  1.0000
