data_image0
_chemical_formula_structural       La4Rh6Sn10
_chemical_formula_sum              "La4 Rh6 Sn10"
_cell_length_a       6.43963
_cell_length_b       9.08505
_cell_length_c       9.08505
_cell_angle_alpha    91.563
_cell_angle_beta     110.757
_cell_angle_gamma    110.757

_space_group_name_H-M_alt    "P 1"
_space_group_IT_number       1

loop_
  _space_group_symop_operation_xyz
  'x, y, z'

loop_
  _atom_site_type_symbol
  _atom_site_label
  _atom_site_symmetry_multiplicity
  _atom_site_fract_x
  _atom_site_fract_y
  _atom_site_fract_z
  _atom_site_occupancy
  La  La1       1.0  0.22900  0.37300  0.08500  1.0000
  La  La2       1.0  0.72900  0.08500  0.37300  1.0000
  La  La3       1.0  0.27100  0.91500  0.62700  1.0000
  La  La4       1.0  0.77100  0.62700  0.91500  1.0000
  Rh  Rh1       1.0  0.39500  0.75400  0.03680  1.0000
  Rh  Rh2       1.0  0.10500  0.96300  0.24600  1.0000
  Rh  Rh3       1.0  0.25000  0.50000  0.50000  1.0000
  Rh  Rh4       1.0  0.75000  0.50000  0.50000  1.0000
  Rh  Rh5       1.0  0.89500  0.03680  0.75400  1.0000
  Rh  Rh6       1.0  0.60500  0.24600  0.96300  1.0000
  Sn  Sn1       1.0  0.25000  0.00000  0.00000  1.0000
  Sn  Sn2       1.0  0.75000  0.00000  0.00000  1.0000
  Sn  Sn3       1.0  0.83200  0.41900  0.24500  1.0000
  Sn  Sn4       1.0  0.25000  0.72100  0.27900  1.0000
  Sn  Sn5       1.0  0.75000  0.72100  0.27900  1.0000
  Sn  Sn6       1.0  0.33200  0.24500  0.41900  1.0000
  Sn  Sn7       1.0  0.66800  0.75500  0.58100  1.0000
  Sn  Sn8       1.0  0.25000  0.27900  0.72100  1.0000
  Sn  Sn9       1.0  0.75000  0.27900  0.72100  1.0000
  Sn  Sn10      1.0  0.16800  0.58100  0.75500  1.0000
