data_image0
_chemical_formula_structural       Mn2Nd4Ni2O12
_chemical_formula_sum              "Mn2 Nd4 Ni2 O12"
_cell_length_a       5.42487
_cell_length_b       5.47887
_cell_length_c       7.68542
_cell_angle_alpha    90
_cell_angle_beta     90.0475
_cell_angle_gamma    90

_space_group_name_H-M_alt    "P 1"
_space_group_IT_number       1

loop_
  _space_group_symop_operation_xyz
  'x, y, z'

loop_
  _atom_site_type_symbol
  _atom_site_label
  _atom_site_symmetry_multiplicity
  _atom_site_fract_x
  _atom_site_fract_y
  _atom_site_fract_z
  _atom_site_occupancy
  Mn  Mn1       1.0  0.50000  0.00000  0.00000  1.0000
  Mn  Mn2       1.0  0.00000  0.50000  0.50000  1.0000
  Nd  Nd1       1.0  0.99000  0.04630  0.24900  1.0000
  Nd  Nd2       1.0  0.51000  0.54600  0.25100  1.0000
  Nd  Nd3       1.0  0.49000  0.45400  0.74900  1.0000
  Nd  Nd4       1.0  0.01020  0.95400  0.75100  1.0000
  Ni  Ni1       1.0  0.00000  0.50000  0.00000  1.0000
  Ni  Ni2       1.0  0.50000  0.00000  0.50000  1.0000
  O   O1        1.0  0.78100  0.79500  0.04250  1.0000
  O   O2        1.0  0.70300  0.28200  0.04390  1.0000
  O   O3        1.0  0.41900  0.98300  0.24300  1.0000
  O   O4        1.0  0.08090  0.48300  0.25700  1.0000
  O   O5        1.0  0.79700  0.78200  0.45600  1.0000
  O   O6        1.0  0.71900  0.29500  0.45800  1.0000
  O   O7        1.0  0.28100  0.70500  0.54200  1.0000
  O   O8        1.0  0.20300  0.21800  0.54400  1.0000
  O   O9        1.0  0.91900  0.51700  0.74300  1.0000
  O   O10       1.0  0.58100  0.01720  0.75700  1.0000
  O   O11       1.0  0.29700  0.71800  0.95600  1.0000
  O   O12       1.0  0.21900  0.20500  0.95800  1.0000
