data_image0
_chemical_formula_structural       Cr4Sb12Yb4
_chemical_formula_sum              "Cr4 Sb12 Yb4"
_cell_length_a       13.126
_cell_length_b       6.15814
_cell_length_c       6.07952
_cell_angle_alpha    90
_cell_angle_beta     90
_cell_angle_gamma    90

_space_group_name_H-M_alt    "P 1"
_space_group_IT_number       1

loop_
  _space_group_symop_operation_xyz
  'x, y, z'

loop_
  _atom_site_type_symbol
  _atom_site_label
  _atom_site_symmetry_multiplicity
  _atom_site_fract_x
  _atom_site_fract_y
  _atom_site_fract_z
  _atom_site_occupancy
  Cr  Cr1       1.0  0.90400  0.25000  0.00000  1.0000
  Cr  Cr2       1.0  0.09610  0.75000  0.00000  1.0000
  Cr  Cr3       1.0  0.90400  0.25000  0.50000  1.0000
  Cr  Cr4       1.0  0.09610  0.75000  0.50000  1.0000
  Sb  Sb1       1.0  0.50200  0.25000  0.00000  1.0000
  Sb  Sb2       1.0  0.49800  0.75000  0.00000  1.0000
  Sb  Sb3       1.0  0.06440  0.10900  0.25000  1.0000
  Sb  Sb4       1.0  0.21700  0.49500  0.25000  1.0000
  Sb  Sb5       1.0  0.93600  0.60900  0.25000  1.0000
  Sb  Sb6       1.0  0.78300  0.99500  0.25000  1.0000
  Sb  Sb7       1.0  0.50200  0.25000  0.50000  1.0000
  Sb  Sb8       1.0  0.49800  0.75000  0.50000  1.0000
  Sb  Sb9       1.0  0.21700  0.00474  0.75000  1.0000
  Sb  Sb10      1.0  0.06440  0.39100  0.75000  1.0000
  Sb  Sb11      1.0  0.78300  0.50500  0.75000  1.0000
  Sb  Sb12      1.0  0.93600  0.89100  0.75000  1.0000
  Yb  Yb1       1.0  0.30900  0.00204  0.25000  1.0000
  Yb  Yb2       1.0  0.69100  0.50200  0.25000  1.0000
  Yb  Yb3       1.0  0.30900  0.49800  0.75000  1.0000
  Yb  Yb4       1.0  0.69100  0.99800  0.75000  1.0000
