data_image0
_chemical_formula_structural       C8N8Ni2Zn2
_chemical_formula_sum              "C8 N8 Ni2 Zn2"
_cell_length_a       5.18961
_cell_length_b       5.18961
_cell_length_c       13.118
_cell_angle_alpha    90
_cell_angle_beta     90
_cell_angle_gamma    90

_space_group_name_H-M_alt    "P 1"
_space_group_IT_number       1

loop_
  _space_group_symop_operation_xyz
  'x, y, z'

loop_
  _atom_site_type_symbol
  _atom_site_label
  _atom_site_symmetry_multiplicity
  _atom_site_fract_x
  _atom_site_fract_y
  _atom_site_fract_z
  _atom_site_occupancy
  C   C1        1.0  0.17600  0.17600  0.09750  1.0000
  C   C2        1.0  0.82400  0.82400  0.09750  1.0000
  C   C3        1.0  0.82400  0.17600  0.40200  1.0000
  C   C4        1.0  0.17600  0.82400  0.40200  1.0000
  C   C5        1.0  0.82400  0.17600  0.59800  1.0000
  C   C6        1.0  0.17600  0.82400  0.59800  1.0000
  C   C7        1.0  0.17600  0.17600  0.90200  1.0000
  C   C8        1.0  0.82400  0.82400  0.90200  1.0000
  N   N1        1.0  0.29000  0.29000  0.15900  1.0000
  N   N2        1.0  0.71000  0.71000  0.15900  1.0000
  N   N3        1.0  0.71000  0.29000  0.34100  1.0000
  N   N4        1.0  0.29000  0.71000  0.34100  1.0000
  N   N5        1.0  0.71000  0.29000  0.65900  1.0000
  N   N6        1.0  0.29000  0.71000  0.65900  1.0000
  N   N7        1.0  0.29000  0.29000  0.84100  1.0000
  N   N8        1.0  0.71000  0.71000  0.84100  1.0000
  Ni  Ni1       1.0  0.00000  0.00000  0.00000  1.0000
  Ni  Ni2       1.0  0.00000  0.00000  0.50000  1.0000
  Zn  Zn1       1.0  0.50000  0.50000  0.25000  1.0000
  Zn  Zn2       1.0  0.50000  0.50000  0.75000  1.0000
