data_image0
_chemical_formula_structural       Ru6Th14
_chemical_formula_sum              "Ru6 Th14"
_cell_length_a       9.96074
_cell_length_b       9.96069
_cell_length_c       6.33037
_cell_angle_alpha    90
_cell_angle_beta     90
_cell_angle_gamma    120

_space_group_name_H-M_alt    "P 1"
_space_group_IT_number       1

loop_
  _space_group_symop_operation_xyz
  'x, y, z'

loop_
  _atom_site_type_symbol
  _atom_site_label
  _atom_site_symmetry_multiplicity
  _atom_site_fract_x
  _atom_site_fract_y
  _atom_site_fract_z
  _atom_site_occupancy
  Ru  Ru1       1.0  0.81400  0.62700  0.04870  1.0000
  Ru  Ru2       1.0  0.37300  0.18600  0.04870  1.0000
  Ru  Ru3       1.0  0.81400  0.18600  0.04870  1.0000
  Ru  Ru4       1.0  0.18600  0.37300  0.54900  1.0000
  Ru  Ru5       1.0  0.18600  0.81400  0.54900  1.0000
  Ru  Ru6       1.0  0.62700  0.81400  0.54900  1.0000
  Th  Th1       1.0  0.12600  0.25200  0.00157  1.0000
  Th  Th2       1.0  0.12600  0.87400  0.00157  1.0000
  Th  Th3       1.0  0.74800  0.87400  0.00157  1.0000
  Th  Th4       1.0  0.66700  0.33300  0.29200  1.0000
  Th  Th5       1.0  0.08220  0.54100  0.30000  1.0000
  Th  Th6       1.0  0.45900  0.54100  0.30000  1.0000
  Th  Th7       1.0  0.45900  0.91800  0.30000  1.0000
  Th  Th8       1.0  0.25200  0.12600  0.50200  1.0000
  Th  Th9       1.0  0.87400  0.12600  0.50200  1.0000
  Th  Th10      1.0  0.87400  0.74800  0.50200  1.0000
  Th  Th11      1.0  0.33300  0.66700  0.79200  1.0000
  Th  Th12      1.0  0.54100  0.45900  0.80000  1.0000
  Th  Th13      1.0  0.91800  0.45900  0.80000  1.0000
  Th  Th14      1.0  0.54100  0.08220  0.80000  1.0000
