data_image0
_chemical_formula_structural       La2Mn2Na2O12W2
_chemical_formula_sum              "La2 Mn2 Na2 O12 W2"
_cell_length_a       5.56
_cell_length_b       5.60571
_cell_length_c       7.99699
_cell_angle_alpha    90
_cell_angle_beta     90.2575
_cell_angle_gamma    90

_space_group_name_H-M_alt    "P 1"
_space_group_IT_number       1

loop_
  _space_group_symop_operation_xyz
  'x, y, z'

loop_
  _atom_site_type_symbol
  _atom_site_label
  _atom_site_symmetry_multiplicity
  _atom_site_fract_x
  _atom_site_fract_y
  _atom_site_fract_z
  _atom_site_occupancy
  La  La1       1.0  0.74300  0.78500  0.50000  1.0000
  La  La2       1.0  0.25700  0.28500  0.50000  1.0000
  Mn  Mn1       1.0  0.75000  0.25000  0.24000  1.0000
  Mn  Mn2       1.0  0.25000  0.75000  0.76000  1.0000
  Na  Na1       1.0  0.75600  0.72000  0.00035  1.0000
  Na  Na2       1.0  0.24400  0.22000  0.00000  1.0000
  O   O1        1.0  0.34000  0.77400  0.01470  1.0000
  O   O2        1.0  0.07080  0.45400  0.21400  1.0000
  O   O3        1.0  0.96600  0.93200  0.21900  1.0000
  O   O4        1.0  0.52200  0.53900  0.30500  1.0000
  O   O5        1.0  0.45300  0.01090  0.30500  1.0000
  O   O6        1.0  0.16500  0.72400  0.49100  1.0000
  O   O7        1.0  0.83500  0.22400  0.50900  1.0000
  O   O8        1.0  0.54700  0.51100  0.69500  1.0000
  O   O9        1.0  0.47800  0.03920  0.69500  1.0000
  O   O10       1.0  0.03350  0.43200  0.78100  1.0000
  O   O11       1.0  0.92900  0.95400  0.78600  1.0000
  O   O12       1.0  0.66000  0.27400  0.98500  1.0000
  W   W1        1.0  0.24700  0.74500  0.23400  1.0000
  W   W2        1.0  0.75300  0.24500  0.76600  1.0000
