data_image0
_chemical_formula_structural       I12Pb4Rb4
_chemical_formula_sum              "I12 Pb4 Rb4"
_cell_length_a       10.5104
_cell_length_b       4.84384
_cell_length_c       17.7411
_cell_angle_alpha    90
_cell_angle_beta     90
_cell_angle_gamma    90

_space_group_name_H-M_alt    "P 1"
_space_group_IT_number       1

loop_
  _space_group_symop_operation_xyz
  'x, y, z'

loop_
  _atom_site_type_symbol
  _atom_site_label
  _atom_site_symmetry_multiplicity
  _atom_site_fract_x
  _atom_site_fract_y
  _atom_site_fract_z
  _atom_site_occupancy
  I   I1        1.0  0.65900  0.25000  0.00870  1.0000
  I   I2        1.0  0.97500  0.75000  0.11400  1.0000
  I   I3        1.0  0.30500  0.25000  0.21500  1.0000
  I   I4        1.0  0.80500  0.25000  0.28500  1.0000
  I   I5        1.0  0.47500  0.75000  0.38600  1.0000
  I   I6        1.0  0.15900  0.25000  0.49100  1.0000
  I   I7        1.0  0.84100  0.75000  0.50900  1.0000
  I   I8        1.0  0.52500  0.25000  0.61400  1.0000
  I   I9        1.0  0.19500  0.75000  0.71500  1.0000
  I   I10       1.0  0.69500  0.75000  0.78500  1.0000
  I   I11       1.0  0.02510  0.25000  0.88600  1.0000
  I   I12       1.0  0.34100  0.75000  0.99100  1.0000
  Pb  Pb1       1.0  0.16600  0.25000  0.05900  1.0000
  Pb  Pb2       1.0  0.66600  0.25000  0.44100  1.0000
  Pb  Pb3       1.0  0.33400  0.75000  0.55900  1.0000
  Pb  Pb4       1.0  0.83400  0.75000  0.94100  1.0000
  Rb  Rb1       1.0  0.58300  0.75000  0.17500  1.0000
  Rb  Rb2       1.0  0.08330  0.75000  0.32500  1.0000
  Rb  Rb3       1.0  0.91700  0.25000  0.67500  1.0000
  Rb  Rb4       1.0  0.41700  0.25000  0.82500  1.0000
