data_image0
_chemical_formula_structural       Al4La10Ru6
_chemical_formula_sum              "Al4 La10 Ru6"
_cell_length_a       8.6385
_cell_length_b       8.6385
_cell_length_c       8.6385
_cell_angle_alpha    109.471
_cell_angle_beta     109.471
_cell_angle_gamma    109.471

_space_group_name_H-M_alt    "P 1"
_space_group_IT_number       1

loop_
  _space_group_symop_operation_xyz
  'x, y, z'

loop_
  _atom_site_type_symbol
  _atom_site_label
  _atom_site_symmetry_multiplicity
  _atom_site_fract_x
  _atom_site_fract_y
  _atom_site_fract_z
  _atom_site_occupancy
  Al  Al1       1.0  0.41400  0.00000  0.00000  1.0000
  Al  Al2       1.0  0.50000  0.41400  0.50000  1.0000
  Al  Al3       1.0  0.08630  0.08630  0.58600  1.0000
  Al  Al4       1.0  0.00000  0.50000  0.91400  1.0000
  La  La1       1.0  0.79000  0.00000  0.00000  1.0000
  La  La2       1.0  0.25000  0.30900  0.05920  1.0000
  La  La3       1.0  0.71000  0.71000  0.21000  1.0000
  La  La4       1.0  0.19100  0.94100  0.25000  1.0000
  La  La5       1.0  0.00000  0.50000  0.29000  1.0000
  La  La6       1.0  0.75000  0.19100  0.44100  1.0000
  La  La7       1.0  0.50000  0.79000  0.50000  1.0000
  La  La8       1.0  0.94100  0.75000  0.69100  1.0000
  La  La9       1.0  0.30900  0.55900  0.75000  1.0000
  La  La10      1.0  0.55900  0.25000  0.80900  1.0000
  Ru  Ru1       1.0  0.36800  0.75000  0.11800  1.0000
  Ru  Ru2       1.0  0.61800  0.36800  0.25000  1.0000
  Ru  Ru3       1.0  0.13200  0.25000  0.38200  1.0000
  Ru  Ru4       1.0  0.25000  0.88200  0.63200  1.0000
  Ru  Ru5       1.0  0.88200  0.13200  0.75000  1.0000
  Ru  Ru6       1.0  0.75000  0.61800  0.86800  1.0000
