data_image0
_chemical_formula_structural       Ir6Th14
_chemical_formula_sum              "Ir6 Th14"
_cell_length_a       10.0878
_cell_length_b       10.0878
_cell_length_c       6.31379
_cell_angle_alpha    90
_cell_angle_beta     90
_cell_angle_gamma    120

_space_group_name_H-M_alt    "P 1"
_space_group_IT_number       1

loop_
  _space_group_symop_operation_xyz
  'x, y, z'

loop_
  _atom_site_type_symbol
  _atom_site_label
  _atom_site_symmetry_multiplicity
  _atom_site_fract_x
  _atom_site_fract_y
  _atom_site_fract_z
  _atom_site_occupancy
  Ir  Ir1       1.0  0.81300  0.62600  0.05280  1.0000
  Ir  Ir2       1.0  0.37400  0.18700  0.05280  1.0000
  Ir  Ir3       1.0  0.81300  0.18700  0.05280  1.0000
  Ir  Ir4       1.0  0.18700  0.37400  0.55300  1.0000
  Ir  Ir5       1.0  0.18700  0.81300  0.55300  1.0000
  Ir  Ir6       1.0  0.62600  0.81300  0.55300  1.0000
  Th  Th1       1.0  0.08490  0.54200  0.29200  1.0000
  Th  Th2       1.0  0.45800  0.54200  0.29200  1.0000
  Th  Th3       1.0  0.45800  0.91500  0.29200  1.0000
  Th  Th4       1.0  0.66700  0.33300  0.30700  1.0000
  Th  Th5       1.0  0.25600  0.12800  0.50000  1.0000
  Th  Th6       1.0  0.87200  0.12800  0.50000  1.0000
  Th  Th7       1.0  0.87200  0.74400  0.50000  1.0000
  Th  Th8       1.0  0.54200  0.45800  0.79200  1.0000
  Th  Th9       1.0  0.91500  0.45800  0.79200  1.0000
  Th  Th10      1.0  0.54200  0.08490  0.79200  1.0000
  Th  Th11      1.0  0.33300  0.66700  0.80700  1.0000
  Th  Th12      1.0  0.12800  0.25600  0.00000  1.0000
  Th  Th13      1.0  0.12800  0.87200  0.00000  1.0000
  Th  Th14      1.0  0.74400  0.87200  0.00000  1.0000
