data_image0
_chemical_formula_structural       Ba2LaO6Sb
_chemical_formula_sum              "Ba2 La1 O6 Sb1"
_cell_length_a       6.09705
_cell_length_b       6.09705
_cell_length_c       6.09705
_cell_angle_alpha    60.2599
_cell_angle_beta     60.2599
_cell_angle_gamma    60.2599

_space_group_name_H-M_alt    "P 1"
_space_group_IT_number       1

loop_
  _space_group_symop_operation_xyz
  'x, y, z'

loop_
  _atom_site_type_symbol
  _atom_site_label
  _atom_site_symmetry_multiplicity
  _atom_site_fract_x
  _atom_site_fract_y
  _atom_site_fract_z
  _atom_site_occupancy
  Ba  Ba1       1.0  0.25100  0.25100  0.25100  1.0000
  Ba  Ba2       1.0  0.74900  0.74900  0.74900  1.0000
  La  La1       1.0  0.00000  0.00000  0.00000  1.0000
  O   O1        1.0  0.31300  0.72900  0.22600  1.0000
  O   O2        1.0  0.77400  0.68700  0.27100  1.0000
  O   O3        1.0  0.72900  0.22600  0.31300  1.0000
  O   O4        1.0  0.27100  0.77400  0.68700  1.0000
  O   O5        1.0  0.22600  0.31300  0.72900  1.0000
  O   O6        1.0  0.68700  0.27100  0.77400  1.0000
  Sb  Sb1       1.0  0.50000  0.50000  0.50000  1.0000
