data_image0
_chemical_formula_structural       Bi4Mn2Ni2O12
_chemical_formula_sum              "Bi4 Mn2 Ni2 O12"
_cell_length_a       5.39241
_cell_length_b       5.57373
_cell_length_c       7.701
_cell_angle_alpha    90
_cell_angle_beta     89.8519
_cell_angle_gamma    90

_space_group_name_H-M_alt    "P 1"
_space_group_IT_number       1

loop_
  _space_group_symop_operation_xyz
  'x, y, z'

loop_
  _atom_site_type_symbol
  _atom_site_label
  _atom_site_symmetry_multiplicity
  _atom_site_fract_x
  _atom_site_fract_y
  _atom_site_fract_z
  _atom_site_occupancy
  Bi  Bi1       1.0  0.49100  0.55300  0.24900  1.0000
  Bi  Bi2       1.0  0.00920  0.05300  0.25100  1.0000
  Bi  Bi3       1.0  0.99100  0.94700  0.74900  1.0000
  Bi  Bi4       1.0  0.50900  0.44700  0.75100  1.0000
  Mn  Mn1       1.0  0.00000  0.50000  0.00000  1.0000
  Mn  Mn2       1.0  0.50000  0.00000  0.50000  1.0000
  Ni  Ni1       1.0  0.50000  0.00000  1.00000  1.0000
  Ni  Ni2       1.0  0.00000  0.50000  0.50000  1.0000
  O   O1        1.0  0.29000  0.30300  0.04070  1.0000
  O   O2        1.0  0.19300  0.78700  0.04330  1.0000
  O   O3        1.0  0.91400  0.47700  0.24300  1.0000
  O   O4        1.0  0.58600  0.97700  0.25700  1.0000
  O   O5        1.0  0.30700  0.28700  0.45700  1.0000
  O   O6        1.0  0.21000  0.80300  0.45900  1.0000
  O   O7        1.0  0.79000  0.19700  0.54100  1.0000
  O   O8        1.0  0.69300  0.71300  0.54300  1.0000
  O   O9        1.0  0.41400  0.02260  0.74300  1.0000
  O   O10       1.0  0.08610  0.52300  0.75700  1.0000
  O   O11       1.0  0.80700  0.21300  0.95700  1.0000
  O   O12       1.0  0.71000  0.69700  0.95900  1.0000
