data_image0
_chemical_formula_structural       Na2O12Os2Pr4
_chemical_formula_sum              "Na2 O12 Os2 Pr4"
_cell_length_a       5.53557
_cell_length_b       5.95628
_cell_length_c       7.9586
_cell_angle_alpha    90
_cell_angle_beta     91.0242
_cell_angle_gamma    90

_space_group_name_H-M_alt    "P 1"
_space_group_IT_number       1

loop_
  _space_group_symop_operation_xyz
  'x, y, z'

loop_
  _atom_site_type_symbol
  _atom_site_label
  _atom_site_symmetry_multiplicity
  _atom_site_fract_x
  _atom_site_fract_y
  _atom_site_fract_z
  _atom_site_occupancy
  Na  Na1       1.0  0.00000  0.00000  0.00000  1.0000
  Na  Na2       1.0  0.50000  0.50000  0.50000  1.0000
  O   O1        1.0  0.20600  0.32400  0.05030  1.0000
  O   O2        1.0  0.33300  0.78200  0.06570  1.0000
  O   O3        1.0  0.61600  0.45300  0.23300  1.0000
  O   O4        1.0  0.88400  0.95300  0.26700  1.0000
  O   O5        1.0  0.16700  0.28200  0.43400  1.0000
  O   O6        1.0  0.29400  0.82400  0.45000  1.0000
  O   O7        1.0  0.70600  0.17600  0.55000  1.0000
  O   O8        1.0  0.83300  0.71800  0.56600  1.0000
  O   O9        1.0  0.11600  0.04660  0.73300  1.0000
  O   O10       1.0  0.38400  0.54700  0.76700  1.0000
  O   O11       1.0  0.66700  0.21800  0.93400  1.0000
  O   O12       1.0  0.79400  0.67600  0.95000  1.0000
  Os  Os1       1.0  0.50000  0.50000  0.00000  1.0000
  Os  Os2       1.0  1.00000  0.00000  0.50000  1.0000
  Pr  Pr1       1.0  0.02120  0.57100  0.24700  1.0000
  Pr  Pr2       1.0  0.47900  0.07130  0.25300  1.0000
  Pr  Pr3       1.0  0.52100  0.92900  0.74700  1.0000
  Pr  Pr4       1.0  0.97900  0.42900  0.75300  1.0000
