data_image0
_chemical_formula_structural       Mn2Na2Nd2O12W2
_chemical_formula_sum              "Mn2 Na2 Nd2 O12 W2"
_cell_length_a       5.49848
_cell_length_b       5.59795
_cell_length_c       7.96523
_cell_angle_alpha    90
_cell_angle_beta     90.2909
_cell_angle_gamma    90

_space_group_name_H-M_alt    "P 1"
_space_group_IT_number       1

loop_
  _space_group_symop_operation_xyz
  'x, y, z'

loop_
  _atom_site_type_symbol
  _atom_site_label
  _atom_site_symmetry_multiplicity
  _atom_site_fract_x
  _atom_site_fract_y
  _atom_site_fract_z
  _atom_site_occupancy
  Mn  Mn1       1.0  0.75100  0.24700  0.24100  1.0000
  Mn  Mn2       1.0  0.24900  0.74700  0.75900  1.0000
  Na  Na1       1.0  0.24800  0.21100  0.00058  1.0000
  Na  Na2       1.0  0.75200  0.71100  0.99900  1.0000
  Nd  Nd1       1.0  0.73800  0.79300  0.49900  1.0000
  Nd  Nd2       1.0  0.26200  0.29300  0.50100  1.0000
  O   O1        1.0  0.33600  0.77400  0.01580  1.0000
  O   O2        1.0  0.07950  0.44300  0.21300  1.0000
  O   O3        1.0  0.95300  0.91700  0.22000  1.0000
  O   O4        1.0  0.52600  0.54000  0.30900  1.0000
  O   O5        1.0  0.44500  0.01160  0.31000  1.0000
  O   O6        1.0  0.15600  0.71500  0.49200  1.0000
  O   O7        1.0  0.84400  0.21500  0.50800  1.0000
  O   O8        1.0  0.55500  0.51200  0.69000  1.0000
  O   O9        1.0  0.47400  0.04050  0.69100  1.0000
  O   O10       1.0  0.04690  0.41700  0.78000  1.0000
  O   O11       1.0  0.92100  0.94300  0.78700  1.0000
  O   O12       1.0  0.66400  0.27400  0.98400  1.0000
  W   W1        1.0  0.24300  0.74100  0.23600  1.0000
  W   W2        1.0  0.75700  0.24100  0.76400  1.0000
