data_image0
_chemical_formula_structural       Bi4Br4Cd4Se8
_chemical_formula_sum              "Bi4 Br4 Cd4 Se8"
_cell_length_a       10.1027
_cell_length_b       4.16903
_cell_length_c       13.3469
_cell_angle_alpha    90
_cell_angle_beta     90
_cell_angle_gamma    90

_space_group_name_H-M_alt    "P 1"
_space_group_IT_number       1

loop_
  _space_group_symop_operation_xyz
  'x, y, z'

loop_
  _atom_site_type_symbol
  _atom_site_label
  _atom_site_symmetry_multiplicity
  _atom_site_fract_x
  _atom_site_fract_y
  _atom_site_fract_z
  _atom_site_occupancy
  Bi  Bi1       1.0  0.69000  0.25000  0.02760  1.0000
  Bi  Bi2       1.0  0.19000  0.25000  0.47200  1.0000
  Bi  Bi3       1.0  0.81000  0.75000  0.52800  1.0000
  Bi  Bi4       1.0  0.31000  0.75000  0.97200  1.0000
  Br  Br1       1.0  0.07570  0.25000  0.10400  1.0000
  Br  Br2       1.0  0.57600  0.25000  0.39600  1.0000
  Br  Br3       1.0  0.42400  0.75000  0.60400  1.0000
  Br  Br4       1.0  0.92400  0.75000  0.89600  1.0000
  Cd  Cd1       1.0  0.00602  0.75000  0.23600  1.0000
  Cd  Cd2       1.0  0.50600  0.75000  0.26400  1.0000
  Cd  Cd3       1.0  0.49400  0.25000  0.73600  1.0000
  Cd  Cd4       1.0  0.99400  0.25000  0.76400  1.0000
  Se  Se1       1.0  0.44400  0.25000  0.11400  1.0000
  Se  Se2       1.0  0.74800  0.75000  0.16800  1.0000
  Se  Se3       1.0  0.24800  0.75000  0.33200  1.0000
  Se  Se4       1.0  0.94400  0.25000  0.38600  1.0000
  Se  Se5       1.0  0.05640  0.75000  0.61400  1.0000
  Se  Se6       1.0  0.75200  0.25000  0.66800  1.0000
  Se  Se7       1.0  0.25200  0.25000  0.83200  1.0000
  Se  Se8       1.0  0.55600  0.75000  0.88600  1.0000
