data_image0
_chemical_formula_structural       C12Os8
_chemical_formula_sum              "C12 Os8"
_cell_length_a       5.01173
_cell_length_b       5.01173
_cell_length_c       7.92551
_cell_angle_alpha    90
_cell_angle_beta     90
_cell_angle_gamma    90

_space_group_name_H-M_alt    "P 1"
_space_group_IT_number       1

loop_
  _space_group_symop_operation_xyz
  'x, y, z'

loop_
  _atom_site_type_symbol
  _atom_site_label
  _atom_site_symmetry_multiplicity
  _atom_site_fract_x
  _atom_site_fract_y
  _atom_site_fract_z
  _atom_site_occupancy
  C   C1        1.0  0.66100  0.23100  0.08060  1.0000
  C   C2        1.0  0.33900  0.76900  0.08060  1.0000
  C   C3        1.0  0.16900  0.16900  0.25000  1.0000
  C   C4        1.0  0.83100  0.83100  0.25000  1.0000
  C   C5        1.0  0.76900  0.33900  0.41900  1.0000
  C   C6        1.0  0.23100  0.66100  0.41900  1.0000
  C   C7        1.0  0.33900  0.23100  0.58100  1.0000
  C   C8        1.0  0.66100  0.76900  0.58100  1.0000
  C   C9        1.0  0.83100  0.16900  0.75000  1.0000
  C   C10       1.0  0.16900  0.83100  0.75000  1.0000
  C   C11       1.0  0.23100  0.33900  0.91900  1.0000
  C   C12       1.0  0.76900  0.66100  0.91900  1.0000
  Os  Os1       1.0  0.00000  0.00000  0.00000  1.0000
  Os  Os2       1.0  0.00000  0.50000  0.10500  1.0000
  Os  Os3       1.0  0.50000  0.50000  0.25000  1.0000
  Os  Os4       1.0  0.50000  0.00000  0.39500  1.0000
  Os  Os5       1.0  0.00000  0.00000  0.50000  1.0000
  Os  Os6       1.0  0.00000  0.50000  0.60500  1.0000
  Os  Os7       1.0  0.50000  0.50000  0.75000  1.0000
  Os  Os8       1.0  0.50000  0.00000  0.89500  1.0000
