data_image0
_chemical_formula_structural       La4Li2O12Re2
_chemical_formula_sum              "La4 Li2 O12 Re2"
_cell_length_a       5.55199
_cell_length_b       5.67375
_cell_length_c       7.84511
_cell_angle_alpha    90
_cell_angle_beta     90.4565
_cell_angle_gamma    90

_space_group_name_H-M_alt    "P 1"
_space_group_IT_number       1

loop_
  _space_group_symop_operation_xyz
  'x, y, z'

loop_
  _atom_site_type_symbol
  _atom_site_label
  _atom_site_symmetry_multiplicity
  _atom_site_fract_x
  _atom_site_fract_y
  _atom_site_fract_z
  _atom_site_occupancy
  La  La1       1.0  0.51000  0.55100  0.24800  1.0000
  La  La2       1.0  0.99000  0.05110  0.25200  1.0000
  La  La3       1.0  0.01010  0.94900  0.74800  1.0000
  La  La4       1.0  0.49000  0.44900  0.75200  1.0000
  Li  Li1       1.0  0.50000  0.00000  0.00000  1.0000
  Li  Li2       1.0  0.00000  0.50000  0.50000  1.0000
  O   O1        1.0  0.71100  0.30300  0.04320  1.0000
  O   O2        1.0  0.80600  0.78400  0.04690  1.0000
  O   O3        1.0  0.08570  0.47900  0.24500  1.0000
  O   O4        1.0  0.41400  0.97900  0.25500  1.0000
  O   O5        1.0  0.69400  0.28400  0.45300  1.0000
  O   O6        1.0  0.78900  0.80300  0.45700  1.0000
  O   O7        1.0  0.21100  0.19700  0.54300  1.0000
  O   O8        1.0  0.30600  0.71600  0.54700  1.0000
  O   O9        1.0  0.58600  0.02120  0.74500  1.0000
  O   O10       1.0  0.91400  0.52100  0.75500  1.0000
  O   O11       1.0  0.19400  0.21600  0.95300  1.0000
  O   O12       1.0  0.28900  0.69700  0.95700  1.0000
  Re  Re1       1.0  0.00000  0.50000  0.00000  1.0000
  Re  Re2       1.0  0.50000  0.00000  0.50000  1.0000
