data_image0
_chemical_formula_structural       Ho6Mn6O18
_chemical_formula_sum              "Ho6 Mn6 O18"
_cell_length_a       6.06979
_cell_length_b       6.06968
_cell_length_c       11.429
_cell_angle_alpha    90.0001
_cell_angle_beta     90
_cell_angle_gamma    120.024

_space_group_name_H-M_alt    "P 1"
_space_group_IT_number       1

loop_
  _space_group_symop_operation_xyz
  'x, y, z'

loop_
  _atom_site_type_symbol
  _atom_site_label
  _atom_site_symmetry_multiplicity
  _atom_site_fract_x
  _atom_site_fract_y
  _atom_site_fract_z
  _atom_site_occupancy
  Ho  Ho1       1.0  0.00002  0.00001  0.77600  1.0000
  Ho  Ho2       1.0  0.00000  0.00000  0.27600  1.0000
  Ho  Ho3       1.0  0.66700  0.33300  0.23000  1.0000
  Ho  Ho4       1.0  0.33300  0.66700  0.73000  1.0000
  Ho  Ho5       1.0  0.66700  0.33300  0.73000  1.0000
  Ho  Ho6       1.0  0.33300  0.66700  0.23000  1.0000
  Mn  Mn1       1.0  0.00001  0.66700  0.49900  1.0000
  Mn  Mn2       1.0  0.33300  0.33300  0.49900  1.0000
  Mn  Mn3       1.0  0.66700  0.66700  0.99900  1.0000
  Mn  Mn4       1.0  0.00000  0.33300  0.99900  1.0000
  Mn  Mn5       1.0  0.66700  0.00000  0.49900  1.0000
  Mn  Mn6       1.0  0.33300  0.00000  0.99900  1.0000
  O   O1        1.0  0.00006  0.69600  0.66300  1.0000
  O   O2        1.0  0.30400  0.30400  0.66400  1.0000
  O   O3        1.0  0.69600  0.69600  0.16400  1.0000
  O   O4        1.0  0.00000  0.30300  0.16300  1.0000
  O   O5        1.0  0.69700  0.00005  0.66300  1.0000
  O   O6        1.0  0.30400  0.00000  0.16400  1.0000
  O   O7        1.0  0.00000  0.36200  0.83500  1.0000
  O   O8        1.0  0.63700  0.63700  0.83500  1.0000
  O   O9        1.0  0.36300  0.36300  0.33500  1.0000
  O   O10       1.0  0.00004  0.63800  0.33500  1.0000
  O   O11       1.0  0.36200  0.00000  0.83500  1.0000
  O   O12       1.0  0.63800  0.00004  0.33500  1.0000
  O   O13       1.0  0.00011  0.00009  0.97500  1.0000
  O   O14       1.0  0.00000  0.00000  0.47500  1.0000
  O   O15       1.0  0.66700  0.33300  0.01990  1.0000
  O   O16       1.0  0.33300  0.66700  0.52000  1.0000
  O   O17       1.0  0.66700  0.33300  0.52000  1.0000
  O   O18       1.0  0.33300  0.66700  0.01990  1.0000
