data_image0
_chemical_formula_structural       Dy3I12K5
_chemical_formula_sum              "Dy3 I12 K5"
_cell_length_a       14.8332
_cell_length_b       14.8332
_cell_length_c       4.42739
_cell_angle_alpha    90
_cell_angle_beta     90
_cell_angle_gamma    120.001

_space_group_name_H-M_alt    "P 1"
_space_group_IT_number       1

loop_
  _space_group_symop_operation_xyz
  'x, y, z'

loop_
  _atom_site_type_symbol
  _atom_site_label
  _atom_site_symmetry_multiplicity
  _atom_site_fract_x
  _atom_site_fract_y
  _atom_site_fract_z
  _atom_site_occupancy
  Dy  Dy1       1.0  0.32400  0.99999  0.00000  1.0000
  Dy  Dy2       1.0  0.99999  0.32400  0.00000  1.0000
  Dy  Dy3       1.0  0.67600  0.67600  0.00000  1.0000
  I   I1        1.0  0.76100  0.20500  0.00000  1.0000
  I   I2        1.0  0.44400  0.23900  0.00000  1.0000
  I   I3        1.0  0.23900  0.44400  0.00000  1.0000
  I   I4        1.0  0.79500  0.55600  0.00000  1.0000
  I   I5        1.0  0.20500  0.76100  0.00000  1.0000
  I   I6        1.0  0.55600  0.79500  0.00000  1.0000
  I   I7        1.0  0.17600  0.99999  0.50000  1.0000
  I   I8        1.0  0.46900  0.00001  0.50000  1.0000
  I   I9        1.0  0.99999  0.17600  0.50000  1.0000
  I   I10       1.0  0.00001  0.46900  0.50000  1.0000
  I   I11       1.0  0.53100  0.53100  0.50000  1.0000
  I   I12       1.0  0.82400  0.82400  0.50000  1.0000
  K   K1        1.0  0.71800  0.99999  0.50000  1.0000
  K   K2        1.0  0.28200  0.28200  0.50000  1.0000
  K   K3        1.0  0.66700  0.33300  0.50000  1.0000
  K   K4        1.0  0.33300  0.66700  0.50000  1.0000
  K   K5        1.0  0.99999  0.71800  0.50000  1.0000
