data_image0
_chemical_formula_structural       Rh6Th14
_chemical_formula_sum              "Rh6 Th14"
_cell_length_a       10.0366
_cell_length_b       10.0367
_cell_length_c       6.29443
_cell_angle_alpha    90
_cell_angle_beta     90
_cell_angle_gamma    120

_space_group_name_H-M_alt    "P 1"
_space_group_IT_number       1

loop_
  _space_group_symop_operation_xyz
  'x, y, z'

loop_
  _atom_site_type_symbol
  _atom_site_label
  _atom_site_symmetry_multiplicity
  _atom_site_fract_x
  _atom_site_fract_y
  _atom_site_fract_z
  _atom_site_occupancy
  Rh  Rh1       1.0  0.81400  0.62900  0.05120  1.0000
  Rh  Rh2       1.0  0.37100  0.18600  0.05120  1.0000
  Rh  Rh3       1.0  0.81400  0.18600  0.05120  1.0000
  Rh  Rh4       1.0  0.18600  0.37100  0.55100  1.0000
  Rh  Rh5       1.0  0.18600  0.81400  0.55100  1.0000
  Rh  Rh6       1.0  0.62900  0.81400  0.55100  1.0000
  Th  Th1       1.0  0.08620  0.54300  0.29000  1.0000
  Th  Th2       1.0  0.45700  0.54300  0.29000  1.0000
  Th  Th3       1.0  0.45700  0.91400  0.29000  1.0000
  Th  Th4       1.0  0.66700  0.33300  0.31900  1.0000
  Th  Th5       1.0  0.25600  0.12800  0.49900  1.0000
  Th  Th6       1.0  0.87200  0.12800  0.49900  1.0000
  Th  Th7       1.0  0.87200  0.74400  0.49900  1.0000
  Th  Th8       1.0  0.54300  0.45700  0.79000  1.0000
  Th  Th9       1.0  0.91400  0.45700  0.79000  1.0000
  Th  Th10      1.0  0.54300  0.08620  0.79000  1.0000
  Th  Th11      1.0  0.33300  0.66700  0.81900  1.0000
  Th  Th12      1.0  0.12800  0.25600  0.99900  1.0000
  Th  Th13      1.0  0.12800  0.87200  0.99900  1.0000
  Th  Th14      1.0  0.74400  0.87200  0.99900  1.0000
