data_image0
_chemical_formula_structural       K2Nb2Nd4O12
_chemical_formula_sum              "K2 Nb2 Nd4 O12"
_cell_length_a       5.69427
_cell_length_b       6.89041
_cell_length_c       8.73522
_cell_angle_alpha    104.438
_cell_angle_beta     90
_cell_angle_gamma    114.406

_space_group_name_H-M_alt    "P 1"
_space_group_IT_number       1

loop_
  _space_group_symop_operation_xyz
  'x, y, z'

loop_
  _atom_site_type_symbol
  _atom_site_label
  _atom_site_symmetry_multiplicity
  _atom_site_fract_x
  _atom_site_fract_y
  _atom_site_fract_z
  _atom_site_occupancy
  K   K1        1.0  0.11600  0.23100  0.47900  1.0000
  K   K2        1.0  0.88400  0.76900  0.52100  1.0000
  Nb  Nb1       1.0  0.34200  0.68300  0.29900  1.0000
  Nb  Nb2       1.0  0.65800  0.31700  0.70100  1.0000
  Nd  Nd1       1.0  0.87100  0.74100  0.07040  1.0000
  Nd  Nd2       1.0  0.58900  0.17800  0.20300  1.0000
  Nd  Nd3       1.0  0.41100  0.82200  0.79700  1.0000
  Nd  Nd4       1.0  0.12900  0.25900  0.93000  1.0000
  O   O1        1.0  0.25000  0.00000  0.00000  1.0000
  O   O2        1.0  0.75000  0.00000  0.00000  1.0000
  O   O3        1.0  0.47000  0.47000  0.16600  1.0000
  O   O4        1.0  0.99900  0.47000  0.16600  1.0000
  O   O5        1.0  0.21700  0.90700  0.29400  1.0000
  O   O6        1.0  0.68900  0.90700  0.29400  1.0000
  O   O7        1.0  0.67500  0.35100  0.49600  1.0000
  O   O8        1.0  0.32500  0.64900  0.50400  1.0000
  O   O9        1.0  0.31100  0.09320  0.70600  1.0000
  O   O10       1.0  0.78300  0.09320  0.70600  1.0000
  O   O11       1.0  0.00082  0.53000  0.83400  1.0000
  O   O12       1.0  0.53000  0.53000  0.83400  1.0000
