data_image0
_chemical_formula_structural       K2La4Nb2O12
_chemical_formula_sum              "K2 La4 Nb2 O12"
_cell_length_a       5.76866
_cell_length_b       6.97742
_cell_length_c       8.85268
_cell_angle_alpha    104.518
_cell_angle_beta     90
_cell_angle_gamma    114.417

_space_group_name_H-M_alt    "P 1"
_space_group_IT_number       1

loop_
  _space_group_symop_operation_xyz
  'x, y, z'

loop_
  _atom_site_type_symbol
  _atom_site_label
  _atom_site_symmetry_multiplicity
  _atom_site_fract_x
  _atom_site_fract_y
  _atom_site_fract_z
  _atom_site_occupancy
  K   K1        1.0  0.11500  0.23000  0.48100  1.0000
  K   K2        1.0  0.88500  0.77000  0.51900  1.0000
  La  La1       1.0  0.87000  0.74000  0.07190  1.0000
  La  La2       1.0  0.59000  0.17900  0.20700  1.0000
  La  La3       1.0  0.41000  0.82100  0.79300  1.0000
  La  La4       1.0  0.13000  0.26000  0.92800  1.0000
  Nb  Nb1       1.0  0.34100  0.68200  0.29800  1.0000
  Nb  Nb2       1.0  0.65900  0.31800  0.70200  1.0000
  O   O1        1.0  0.25200  0.00000  0.00000  1.0000
  O   O2        1.0  0.74800  0.00000  0.00000  1.0000
  O   O3        1.0  0.00249  0.47200  0.16800  1.0000
  O   O4        1.0  0.46900  0.47200  0.16800  1.0000
  O   O5        1.0  0.21900  0.90500  0.29500  1.0000
  O   O6        1.0  0.68600  0.90500  0.29500  1.0000
  O   O7        1.0  0.32200  0.64500  0.49900  1.0000
  O   O8        1.0  0.67800  0.35500  0.50100  1.0000
  O   O9        1.0  0.31400  0.09490  0.70500  1.0000
  O   O10       1.0  0.78100  0.09490  0.70500  1.0000
  O   O11       1.0  0.53100  0.52800  0.83200  1.0000
  O   O12       1.0  0.99800  0.52800  0.83200  1.0000
