data_image0
_chemical_formula_structural       Nb2O12Sr4Y2
_chemical_formula_sum              "Nb2 O12 Sr4 Y2"
_cell_length_a       5.80582
_cell_length_b       5.89618
_cell_length_c       8.25589
_cell_angle_alpha    90
_cell_angle_beta     90.2284
_cell_angle_gamma    90

_space_group_name_H-M_alt    "P 1"
_space_group_IT_number       1

loop_
  _space_group_symop_operation_xyz
  'x, y, z'

loop_
  _atom_site_type_symbol
  _atom_site_label
  _atom_site_symmetry_multiplicity
  _atom_site_fract_x
  _atom_site_fract_y
  _atom_site_fract_z
  _atom_site_occupancy
  Nb  Nb1       1.0  0.50000  0.50000  0.00000  1.0000
  Nb  Nb2       1.0  1.00000  0.00000  0.50000  1.0000
  O   O1        1.0  0.77800  0.69500  0.04360  1.0000
  O   O2        1.0  0.69200  0.22100  0.04740  1.0000
  O   O3        1.0  0.41400  0.52700  0.23600  1.0000
  O   O4        1.0  0.08620  0.02650  0.26400  1.0000
  O   O5        1.0  0.80800  0.72100  0.45300  1.0000
  O   O6        1.0  0.72200  0.19500  0.45600  1.0000
  O   O7        1.0  0.27800  0.80500  0.54400  1.0000
  O   O8        1.0  0.19200  0.27900  0.54700  1.0000
  O   O9        1.0  0.91400  0.97300  0.73600  1.0000
  O   O10       1.0  0.58600  0.47300  0.76400  1.0000
  O   O11       1.0  0.30800  0.77900  0.95300  1.0000
  O   O12       1.0  0.22200  0.30500  0.95600  1.0000
  Sr  Sr1       1.0  0.99100  0.46000  0.25000  1.0000
  Sr  Sr2       1.0  0.50900  0.96000  0.25000  1.0000
  Sr  Sr3       1.0  0.49100  0.04030  0.75000  1.0000
  Sr  Sr4       1.0  0.00910  0.54000  0.75000  1.0000
  Y   Y1        1.0  0.00000  0.00000  0.00000  1.0000
  Y   Y2        1.0  0.50000  0.50000  0.50000  1.0000
