data_image0
_chemical_formula_structural       Mn2Ni2O12Sm4
_chemical_formula_sum              "Mn2 Ni2 O12 Sm4"
_cell_length_a       5.33504
_cell_length_b       5.51485
_cell_length_c       7.60029
_cell_angle_alpha    90
_cell_angle_beta     89.8845
_cell_angle_gamma    90

_space_group_name_H-M_alt    "P 1"
_space_group_IT_number       1

loop_
  _space_group_symop_operation_xyz
  'x, y, z'

loop_
  _atom_site_type_symbol
  _atom_site_label
  _atom_site_symmetry_multiplicity
  _atom_site_fract_x
  _atom_site_fract_y
  _atom_site_fract_z
  _atom_site_occupancy
  Mn  Mn1       1.0  0.50000  0.00000  0.00000  1.0000
  Mn  Mn2       1.0  1.00000  0.50000  0.50000  1.0000
  Ni  Ni1       1.0  0.00000  0.50000  0.00000  1.0000
  Ni  Ni2       1.0  0.50000  0.00000  0.50000  1.0000
  O   O1        1.0  0.78900  0.80200  0.04540  1.0000
  O   O2        1.0  0.69600  0.28700  0.04820  1.0000
  O   O3        1.0  0.41100  0.97600  0.24400  1.0000
  O   O4        1.0  0.08910  0.47600  0.25600  1.0000
  O   O5        1.0  0.80400  0.78700  0.45200  1.0000
  O   O6        1.0  0.71100  0.30200  0.45500  1.0000
  O   O7        1.0  0.28900  0.69800  0.54500  1.0000
  O   O8        1.0  0.19600  0.21300  0.54800  1.0000
  O   O9        1.0  0.91100  0.52400  0.74400  1.0000
  O   O10       1.0  0.58900  0.02350  0.75600  1.0000
  O   O11       1.0  0.30400  0.71300  0.95200  1.0000
  O   O12       1.0  0.21100  0.19800  0.95500  1.0000
  Sm  Sm1       1.0  0.98600  0.05750  0.24900  1.0000
  Sm  Sm2       1.0  0.51400  0.55700  0.25100  1.0000
  Sm  Sm3       1.0  0.48600  0.44300  0.74900  1.0000
  Sm  Sm4       1.0  0.01390  0.94300  0.75100  1.0000
