data_image0
_chemical_formula_structural       B18Li2
_chemical_formula_sum              "B18 Li2"
_cell_length_a       5.72399
_cell_length_b       5.72399
_cell_length_c       4.99943
_cell_angle_alpha    90
_cell_angle_beta     90
_cell_angle_gamma    120

_space_group_name_H-M_alt    "P 1"
_space_group_IT_number       1

loop_
  _space_group_symop_operation_xyz
  'x, y, z'

loop_
  _atom_site_type_symbol
  _atom_site_label
  _atom_site_symmetry_multiplicity
  _atom_site_fract_x
  _atom_site_fract_y
  _atom_site_fract_z
  _atom_site_occupancy
  B   B1        1.0  0.47300  0.16900  0.02690  1.0000
  B   B2        1.0  0.83100  0.30400  0.02690  1.0000
  B   B3        1.0  0.16900  0.47300  0.02690  1.0000
  B   B4        1.0  0.69600  0.52700  0.02690  1.0000
  B   B5        1.0  0.52700  0.69600  0.02690  1.0000
  B   B6        1.0  0.30400  0.83100  0.02690  1.0000
  B   B7        1.0  0.62800  0.00000  0.18800  1.0000
  B   B8        1.0  0.37200  0.37200  0.18800  1.0000
  B   B9        1.0  1.00000  0.62800  0.18800  1.0000
  B   B10       1.0  0.69600  0.16900  0.52700  1.0000
  B   B11       1.0  0.47300  0.30400  0.52700  1.0000
  B   B12       1.0  0.30400  0.47300  0.52700  1.0000
  B   B13       1.0  0.83100  0.52700  0.52700  1.0000
  B   B14       1.0  0.16900  0.69600  0.52700  1.0000
  B   B15       1.0  0.52700  0.83100  0.52700  1.0000
  B   B16       1.0  0.37200  0.00000  0.68800  1.0000
  B   B17       1.0  0.00000  0.37200  0.68800  1.0000
  B   B18       1.0  0.62800  0.62800  0.68800  1.0000
  Li  Li1       1.0  0.00000  0.00000  0.41800  1.0000
  Li  Li2       1.0  0.00000  0.00000  0.91800  1.0000
