data_image0
_chemical_formula_structural       Pt12Tl8
_chemical_formula_sum              "Pt12 Tl8"
_cell_length_a       5.70757
_cell_length_b       5.70757
_cell_length_c       14.0183
_cell_angle_alpha    90.0001
_cell_angle_beta     89.9999
_cell_angle_gamma    120

_space_group_name_H-M_alt    "P 1"
_space_group_IT_number       1

loop_
  _space_group_symop_operation_xyz
  'x, y, z'

loop_
  _atom_site_type_symbol
  _atom_site_label
  _atom_site_symmetry_multiplicity
  _atom_site_fract_x
  _atom_site_fract_y
  _atom_site_fract_z
  _atom_site_occupancy
  Pt  Pt1       1.0  0.16600  0.83400  0.08570  1.0000
  Pt  Pt2       1.0  0.66700  0.83400  0.08570  1.0000
  Pt  Pt3       1.0  0.16600  0.33300  0.08570  1.0000
  Pt  Pt4       1.0  0.16600  0.83400  0.41400  1.0000
  Pt  Pt5       1.0  0.66700  0.83400  0.41400  1.0000
  Pt  Pt6       1.0  0.16600  0.33300  0.41400  1.0000
  Pt  Pt7       1.0  0.83400  0.66700  0.58600  1.0000
  Pt  Pt8       1.0  0.33300  0.16600  0.58600  1.0000
  Pt  Pt9       1.0  0.83400  0.16600  0.58600  1.0000
  Pt  Pt10      1.0  0.83400  0.66700  0.91400  1.0000
  Pt  Pt11      1.0  0.33300  0.16600  0.91400  1.0000
  Pt  Pt12      1.0  0.83400  0.16600  0.91400  1.0000
  Tl  Tl1       1.0  0.66700  0.33300  0.09560  1.0000
  Tl  Tl2       1.0  0.00001  0.00000  0.25000  1.0000
  Tl  Tl3       1.0  0.33300  0.66700  0.25000  1.0000
  Tl  Tl4       1.0  0.66700  0.33300  0.40400  1.0000
  Tl  Tl5       1.0  0.33300  0.66700  0.59600  1.0000
  Tl  Tl6       1.0  0.99999  1.00000  0.75000  1.0000
  Tl  Tl7       1.0  0.66700  0.33300  0.75000  1.0000
  Tl  Tl8       1.0  0.33300  0.66700  0.90400  1.0000
