data_image0
_chemical_formula_structural       Mn2Na2O12Tb2W2
_chemical_formula_sum              "Mn2 Na2 O12 Tb2 W2"
_cell_length_a       5.39841
_cell_length_b       5.5834
_cell_length_c       7.89658
_cell_angle_alpha    90
_cell_angle_beta     90.228
_cell_angle_gamma    90

_space_group_name_H-M_alt    "P 1"
_space_group_IT_number       1

loop_
  _space_group_symop_operation_xyz
  'x, y, z'

loop_
  _atom_site_type_symbol
  _atom_site_label
  _atom_site_symmetry_multiplicity
  _atom_site_fract_x
  _atom_site_fract_y
  _atom_site_fract_z
  _atom_site_occupancy
  Mn  Mn1       1.0  0.75100  0.23500  0.24300  1.0000
  Mn  Mn2       1.0  0.24900  0.73500  0.75700  1.0000
  Na  Na1       1.0  0.24900  0.19000  0.00065  1.0000
  Na  Na2       1.0  0.75100  0.69000  0.99900  1.0000
  O   O1        1.0  0.33400  0.76400  0.01780  1.0000
  O   O2        1.0  0.08940  0.41900  0.21400  1.0000
  O   O3        1.0  0.93900  0.89300  0.22200  1.0000
  O   O4        1.0  0.53200  0.53300  0.31900  1.0000
  O   O5        1.0  0.43400  0.00098  0.31900  1.0000
  O   O6        1.0  0.13800  0.68700  0.49400  1.0000
  O   O7        1.0  0.86200  0.18700  0.50600  1.0000
  O   O8        1.0  0.56600  0.50100  0.68100  1.0000
  O   O9        1.0  0.46800  0.03260  0.68100  1.0000
  O   O10       1.0  0.06070  0.39300  0.77800  1.0000
  O   O11       1.0  0.91100  0.91900  0.78600  1.0000
  O   O12       1.0  0.66600  0.26400  0.98200  1.0000
  Tb  Tb1       1.0  0.73400  0.79000  0.49900  1.0000
  Tb  Tb2       1.0  0.26600  0.29000  0.50100  1.0000
  W   W1        1.0  0.23800  0.72500  0.24000  1.0000
  W   W2        1.0  0.76200  0.22500  0.76000  1.0000
