data_image0
_chemical_formula_structural       Pt11Zr9
_chemical_formula_sum              "Pt11 Zr9"
_cell_length_a       6.85799
_cell_length_b       8.13008
_cell_length_c       8.13008
_cell_angle_alpha    100.247
_cell_angle_beta     65.0538
_cell_angle_gamma    114.946

_space_group_name_H-M_alt    "P 1"
_space_group_IT_number       1

loop_
  _space_group_symop_operation_xyz
  'x, y, z'

loop_
  _atom_site_type_symbol
  _atom_site_label
  _atom_site_symmetry_multiplicity
  _atom_site_fract_x
  _atom_site_fract_y
  _atom_site_fract_z
  _atom_site_occupancy
  Pt  Pt1       1.0  0.50000  0.00000  0.00000  1.0000
  Pt  Pt2       1.0  0.32300  0.34000  0.11300  1.0000
  Pt  Pt3       1.0  0.90400  0.34000  0.11300  1.0000
  Pt  Pt4       1.0  0.56400  0.88700  0.34000  1.0000
  Pt  Pt5       1.0  0.98300  0.88700  0.34000  1.0000
  Pt  Pt6       1.0  0.25000  0.50000  0.50000  1.0000
  Pt  Pt7       1.0  0.75000  0.50000  0.50000  1.0000
  Pt  Pt8       1.0  0.01710  0.11300  0.66000  1.0000
  Pt  Pt9       1.0  0.43600  0.11300  0.66000  1.0000
  Pt  Pt10      1.0  0.09570  0.66000  0.88700  1.0000
  Pt  Pt11      1.0  0.67700  0.66000  0.88700  1.0000
  Zr  Zr1       1.0  0.00000  0.00000  0.00000  1.0000
  Zr  Zr2       1.0  0.24600  0.66400  0.17100  1.0000
  Zr  Zr3       1.0  0.69200  0.59600  0.21200  1.0000
  Zr  Zr4       1.0  0.41700  0.17100  0.33600  1.0000
  Zr  Zr5       1.0  0.90400  0.21200  0.40400  1.0000
  Zr  Zr6       1.0  0.09580  0.78800  0.59600  1.0000
  Zr  Zr7       1.0  0.58300  0.82900  0.66400  1.0000
  Zr  Zr8       1.0  0.30800  0.40400  0.78800  1.0000
  Zr  Zr9       1.0  0.75400  0.33600  0.82900  1.0000
