data_image0
_chemical_formula_structural       La4Na2O12Ta2
_chemical_formula_sum              "La4 Na2 O12 Ta2"
_cell_length_a       5.6696
_cell_length_b       5.95628
_cell_length_c       8.11902
_cell_angle_alpha    90
_cell_angle_beta     90.8184
_cell_angle_gamma    90

_space_group_name_H-M_alt    "P 1"
_space_group_IT_number       1

loop_
  _space_group_symop_operation_xyz
  'x, y, z'

loop_
  _atom_site_type_symbol
  _atom_site_label
  _atom_site_symmetry_multiplicity
  _atom_site_fract_x
  _atom_site_fract_y
  _atom_site_fract_z
  _atom_site_occupancy
  La  La1       1.0  0.01550  0.55900  0.24600  1.0000
  La  La2       1.0  0.48400  0.05940  0.25400  1.0000
  La  La3       1.0  0.51600  0.94100  0.74600  1.0000
  La  La4       1.0  0.98400  0.44100  0.75400  1.0000
  Na  Na1       1.0  0.00000  0.00000  0.00000  1.0000
  Na  Na2       1.0  0.50000  0.50000  0.50000  1.0000
  O   O1        1.0  0.21100  0.32500  0.05160  1.0000
  O   O2        1.0  0.33100  0.78100  0.06840  1.0000
  O   O3        1.0  0.61600  0.44800  0.23100  1.0000
  O   O4        1.0  0.88400  0.94800  0.26900  1.0000
  O   O5        1.0  0.16900  0.28100  0.43200  1.0000
  O   O6        1.0  0.28900  0.82500  0.44800  1.0000
  O   O7        1.0  0.71100  0.17500  0.55200  1.0000
  O   O8        1.0  0.83100  0.71900  0.56800  1.0000
  O   O9        1.0  0.11600  0.05160  0.73100  1.0000
  O   O10       1.0  0.38400  0.55200  0.76900  1.0000
  O   O11       1.0  0.66900  0.21900  0.93200  1.0000
  O   O12       1.0  0.78900  0.67500  0.94800  1.0000
  Ta  Ta1       1.0  0.50000  0.50000  0.00000  1.0000
  Ta  Ta2       1.0  1.00000  0.00000  0.50000  1.0000
