data_image0
_chemical_formula_structural       Ga2Ho6O12
_chemical_formula_sum              "Ga2 Ho6 O12"
_cell_length_a       5.37287
_cell_length_b       7.04646
_cell_length_c       7.04646
_cell_angle_alpha    102.751
_cell_angle_beta     90
_cell_angle_gamma    90

_space_group_name_H-M_alt    "P 1"
_space_group_IT_number       1

loop_
  _space_group_symop_operation_xyz
  'x, y, z'

loop_
  _atom_site_type_symbol
  _atom_site_label
  _atom_site_symmetry_multiplicity
  _atom_site_fract_x
  _atom_site_fract_y
  _atom_site_fract_z
  _atom_site_occupancy
  Ga  Ga1       1.0  0.00593  0.80600  0.19400  1.0000
  Ga  Ga2       1.0  0.50600  0.19400  0.80600  1.0000
  Ho  Ho1       1.0  0.97600  0.29800  0.08750  1.0000
  Ho  Ho2       1.0  0.47600  0.08750  0.29800  1.0000
  Ho  Ho3       1.0  0.42700  0.60200  0.39800  1.0000
  Ho  Ho4       1.0  0.92700  0.39800  0.60200  1.0000
  Ho  Ho5       1.0  0.97600  0.91300  0.70200  1.0000
  Ho  Ho6       1.0  0.47600  0.70200  0.91300  1.0000
  O   O1        1.0  0.15300  0.96200  0.03790  1.0000
  O   O2        1.0  0.18700  0.57600  0.10500  1.0000
  O   O3        1.0  0.66700  0.78300  0.21700  1.0000
  O   O4        1.0  0.70200  0.35700  0.32200  1.0000
  O   O5        1.0  0.20200  0.32200  0.35700  1.0000
  O   O6        1.0  0.18700  0.89500  0.42400  1.0000
  O   O7        1.0  0.68700  0.10500  0.57600  1.0000
  O   O8        1.0  0.70200  0.67800  0.64300  1.0000
  O   O9        1.0  0.20200  0.64300  0.67800  1.0000
  O   O10       1.0  0.16700  0.21700  0.78300  1.0000
  O   O11       1.0  0.68700  0.42400  0.89500  1.0000
  O   O12       1.0  0.65300  0.03790  0.96200  1.0000
