data_image0
_chemical_formula_structural       Ca8Cd4Sb8
_chemical_formula_sum              "Ca8 Cd4 Sb8"
_cell_length_a       7.27349
_cell_length_b       4.64188
_cell_length_c       17.5908
_cell_angle_alpha    90
_cell_angle_beta     90
_cell_angle_gamma    90

_space_group_name_H-M_alt    "P 1"
_space_group_IT_number       1

loop_
  _space_group_symop_operation_xyz
  'x, y, z'

loop_
  _atom_site_type_symbol
  _atom_site_label
  _atom_site_symmetry_multiplicity
  _atom_site_fract_x
  _atom_site_fract_y
  _atom_site_fract_z
  _atom_site_occupancy
  Ca  Ca1       1.0  0.72400  0.25000  0.05380  1.0000
  Ca  Ca2       1.0  0.03710  0.25000  0.22800  1.0000
  Ca  Ca3       1.0  0.53700  0.25000  0.27200  1.0000
  Ca  Ca4       1.0  0.22400  0.25000  0.44600  1.0000
  Ca  Ca5       1.0  0.77600  0.75000  0.55400  1.0000
  Ca  Ca6       1.0  0.46300  0.75000  0.72800  1.0000
  Ca  Ca7       1.0  0.96300  0.75000  0.77200  1.0000
  Ca  Ca8       1.0  0.27600  0.75000  0.94600  1.0000
  Cd  Cd1       1.0  0.36200  0.75000  0.15000  1.0000
  Cd  Cd2       1.0  0.86200  0.75000  0.35000  1.0000
  Cd  Cd3       1.0  0.13800  0.25000  0.65000  1.0000
  Cd  Cd4       1.0  0.63800  0.25000  0.85000  1.0000
  Sb  Sb1       1.0  0.23800  0.25000  0.06970  1.0000
  Sb  Sb2       1.0  0.75900  0.75000  0.18300  1.0000
  Sb  Sb3       1.0  0.25900  0.75000  0.31700  1.0000
  Sb  Sb4       1.0  0.73800  0.25000  0.43000  1.0000
  Sb  Sb5       1.0  0.26200  0.75000  0.57000  1.0000
  Sb  Sb6       1.0  0.74100  0.25000  0.68300  1.0000
  Sb  Sb7       1.0  0.24100  0.25000  0.81700  1.0000
  Sb  Sb8       1.0  0.76200  0.75000  0.93000  1.0000
