data_image0
_chemical_formula_structural       Al4Pr10Ru6
_chemical_formula_sum              "Al4 Pr10 Ru6"
_cell_length_a       8.61452
_cell_length_b       8.61452
_cell_length_c       8.61452
_cell_angle_alpha    109.471
_cell_angle_beta     109.471
_cell_angle_gamma    109.471

_space_group_name_H-M_alt    "P 1"
_space_group_IT_number       1

loop_
  _space_group_symop_operation_xyz
  'x, y, z'

loop_
  _atom_site_type_symbol
  _atom_site_label
  _atom_site_symmetry_multiplicity
  _atom_site_fract_x
  _atom_site_fract_y
  _atom_site_fract_z
  _atom_site_occupancy
  Al  Al1       1.0  0.00000  0.59000  0.00000  1.0000
  Al  Al2       1.0  0.50000  0.00000  0.08990  1.0000
  Al  Al3       1.0  0.91000  0.91000  0.41000  1.0000
  Al  Al4       1.0  0.59000  0.50000  0.50000  1.0000
  Pr  Pr1       1.0  0.00000  0.21400  0.00000  1.0000
  Pr  Pr2       1.0  0.75000  0.43500  0.18500  1.0000
  Pr  Pr3       1.0  0.43500  0.68500  0.25000  1.0000
  Pr  Pr4       1.0  0.25000  0.06520  0.31500  1.0000
  Pr  Pr5       1.0  0.21400  0.50000  0.50000  1.0000
  Pr  Pr6       1.0  0.81500  0.25000  0.56500  1.0000
  Pr  Pr7       1.0  0.50000  0.00000  0.71400  1.0000
  Pr  Pr8       1.0  0.06520  0.81500  0.75000  1.0000
  Pr  Pr9       1.0  0.28600  0.28600  0.78600  1.0000
  Pr  Pr10      1.0  0.68500  0.75000  0.93500  1.0000
  Ru  Ru1       1.0  0.38200  0.25000  0.13200  1.0000
  Ru  Ru2       1.0  0.86800  0.11800  0.25000  1.0000
  Ru  Ru3       1.0  0.11800  0.75000  0.36800  1.0000
  Ru  Ru4       1.0  0.75000  0.86800  0.61800  1.0000
  Ru  Ru5       1.0  0.63200  0.38200  0.75000  1.0000
  Ru  Ru6       1.0  0.25000  0.63200  0.88200  1.0000
