data_image0
_chemical_formula_structural       Rh6Sn10Y4
_chemical_formula_sum              "Rh6 Sn10 Y4"
_cell_length_a       4.43709
_cell_length_b       7.22837
_cell_length_c       13.4418
_cell_angle_alpha    90
_cell_angle_beta     80.5
_cell_angle_gamma    90

_space_group_name_H-M_alt    "P 1"
_space_group_IT_number       1

loop_
  _space_group_symop_operation_xyz
  'x, y, z'

loop_
  _atom_site_type_symbol
  _atom_site_label
  _atom_site_symmetry_multiplicity
  _atom_site_fract_x
  _atom_site_fract_y
  _atom_site_fract_z
  _atom_site_occupancy
  Rh  Rh1       1.0  0.95000  0.01750  0.09980  1.0000
  Rh  Rh2       1.0  0.39400  0.48400  0.21200  1.0000
  Rh  Rh3       1.0  0.77800  0.76500  0.44500  1.0000
  Rh  Rh4       1.0  0.22200  0.26500  0.55500  1.0000
  Rh  Rh5       1.0  0.60600  0.98400  0.78800  1.0000
  Rh  Rh6       1.0  0.04990  0.51800  0.90000  1.0000
  Sn  Sn1       1.0  0.95200  0.40100  0.09530  1.0000
  Sn  Sn2       1.0  0.40300  0.11000  0.19400  1.0000
  Sn  Sn3       1.0  0.88000  0.73400  0.24000  1.0000
  Sn  Sn4       1.0  0.29500  0.54900  0.41000  1.0000
  Sn  Sn5       1.0  0.29000  0.97800  0.41900  1.0000
  Sn  Sn6       1.0  0.71000  0.47800  0.58100  1.0000
  Sn  Sn7       1.0  0.70500  0.04860  0.59000  1.0000
  Sn  Sn8       1.0  0.12000  0.23400  0.76000  1.0000
  Sn  Sn9       1.0  0.59700  0.61000  0.80600  1.0000
  Sn  Sn10      1.0  0.04770  0.90100  0.90500  1.0000
  Y   Y1        1.0  0.47600  0.73800  0.04730  1.0000
  Y   Y2        1.0  0.82800  0.25700  0.34400  1.0000
  Y   Y3        1.0  0.17200  0.75700  0.65600  1.0000
  Y   Y4        1.0  0.52400  0.23800  0.95300  1.0000
