data_image0
_chemical_formula_structural       Mn2O12Sr4W2
_chemical_formula_sum              "Mn2 O12 Sr4 W2"
_cell_length_a       5.69182
_cell_length_b       5.67841
_cell_length_c       8.00104
_cell_angle_alpha    90
_cell_angle_beta     90.1628
_cell_angle_gamma    90

_space_group_name_H-M_alt    "P 1"
_space_group_IT_number       1

loop_
  _space_group_symop_operation_xyz
  'x, y, z'

loop_
  _atom_site_type_symbol
  _atom_site_label
  _atom_site_symmetry_multiplicity
  _atom_site_fract_x
  _atom_site_fract_y
  _atom_site_fract_z
  _atom_site_occupancy
  Mn  Mn1       1.0  0.50000  0.50000  0.00000  1.0000
  Mn  Mn2       1.0  0.00000  0.00000  0.50000  1.0000
  O   O1        1.0  0.26100  0.78700  0.03650  1.0000
  O   O2        1.0  0.21000  0.26400  0.03880  1.0000
  O   O3        1.0  0.92900  0.98800  0.23600  1.0000
  O   O4        1.0  0.57100  0.48800  0.26400  1.0000
  O   O5        1.0  0.29000  0.76400  0.46100  1.0000
  O   O6        1.0  0.23900  0.28700  0.46300  1.0000
  O   O7        1.0  0.76100  0.71300  0.53700  1.0000
  O   O8        1.0  0.71000  0.23600  0.53900  1.0000
  O   O9        1.0  0.42900  0.51200  0.73600  1.0000
  O   O10       1.0  0.07120  0.01200  0.76400  1.0000
  O   O11       1.0  0.79000  0.73600  0.96100  1.0000
  O   O12       1.0  0.73900  0.21300  0.96300  1.0000
  Sr  Sr1       1.0  0.49400  0.02390  0.24900  1.0000
  Sr  Sr2       1.0  0.00627  0.52400  0.25100  1.0000
  Sr  Sr3       1.0  0.99400  0.47600  0.74900  1.0000
  Sr  Sr4       1.0  0.50600  0.97600  0.75100  1.0000
  W   W1        1.0  0.00000  0.00000  0.00000  1.0000
  W   W2        1.0  0.50000  0.50000  0.50000  1.0000
