data_image0
_chemical_formula_structural       La4Na2O12Os2
_chemical_formula_sum              "La4 Na2 O12 Os2"
_cell_length_a       5.59531
_cell_length_b       5.94078
_cell_length_c       8.02168
_cell_angle_alpha    90
_cell_angle_beta     90.6186
_cell_angle_gamma    90

_space_group_name_H-M_alt    "P 1"
_space_group_IT_number       1

loop_
  _space_group_symop_operation_xyz
  'x, y, z'

loop_
  _atom_site_type_symbol
  _atom_site_label
  _atom_site_symmetry_multiplicity
  _atom_site_fract_x
  _atom_site_fract_y
  _atom_site_fract_z
  _atom_site_occupancy
  La  La1       1.0  0.01680  0.56500  0.24800  1.0000
  La  La2       1.0  0.48300  0.06500  0.25200  1.0000
  La  La3       1.0  0.51700  0.93500  0.74800  1.0000
  La  La4       1.0  0.98300  0.43500  0.75200  1.0000
  Na  Na1       1.0  0.00000  0.00000  0.00000  1.0000
  Na  Na2       1.0  0.50000  0.50000  0.50000  1.0000
  O   O1        1.0  0.20900  0.32400  0.05030  1.0000
  O   O2        1.0  0.33200  0.78200  0.06230  1.0000
  O   O3        1.0  0.61100  0.45700  0.23300  1.0000
  O   O4        1.0  0.88900  0.95700  0.26700  1.0000
  O   O5        1.0  0.16800  0.28200  0.43800  1.0000
  O   O6        1.0  0.29100  0.82400  0.45000  1.0000
  O   O7        1.0  0.70900  0.17600  0.55000  1.0000
  O   O8        1.0  0.83200  0.71800  0.56200  1.0000
  O   O9        1.0  0.11100  0.04310  0.73300  1.0000
  O   O10       1.0  0.38900  0.54300  0.76700  1.0000
  O   O11       1.0  0.66800  0.21800  0.93800  1.0000
  O   O12       1.0  0.79100  0.67600  0.95000  1.0000
  Os  Os1       1.0  0.50000  0.50000  1.00000  1.0000
  Os  Os2       1.0  0.00000  0.00000  0.50000  1.0000
