data_image0
_chemical_formula_structural       Br12Cs4Eu4
_chemical_formula_sum              "Br12 Cs4 Eu4"
_cell_length_a       8.16199
_cell_length_b       8.24192
_cell_length_c       11.6935
_cell_angle_alpha    90
_cell_angle_beta     90
_cell_angle_gamma    90

_space_group_name_H-M_alt    "P 1"
_space_group_IT_number       1

loop_
  _space_group_symop_operation_xyz
  'x, y, z'

loop_
  _atom_site_type_symbol
  _atom_site_label
  _atom_site_symmetry_multiplicity
  _atom_site_fract_x
  _atom_site_fract_y
  _atom_site_fract_z
  _atom_site_occupancy
  Br  Br1       1.0  0.79400  0.20700  0.02810  1.0000
  Br  Br2       1.0  0.70600  0.70700  0.02810  1.0000
  Br  Br3       1.0  0.44500  0.00859  0.25000  1.0000
  Br  Br4       1.0  0.05490  0.50900  0.25000  1.0000
  Br  Br5       1.0  0.79400  0.20700  0.47200  1.0000
  Br  Br6       1.0  0.70600  0.70700  0.47200  1.0000
  Br  Br7       1.0  0.29400  0.29300  0.52800  1.0000
  Br  Br8       1.0  0.20600  0.79300  0.52800  1.0000
  Br  Br9       1.0  0.94500  0.49100  0.75000  1.0000
  Br  Br10      1.0  0.55500  0.99100  0.75000  1.0000
  Br  Br11      1.0  0.29400  0.29300  0.97200  1.0000
  Br  Br12      1.0  0.20600  0.79300  0.97200  1.0000
  Cs  Cs1       1.0  0.50700  0.46400  0.25000  1.0000
  Cs  Cs2       1.0  0.99300  0.96400  0.25000  1.0000
  Cs  Cs3       1.0  0.00692  0.03650  0.75000  1.0000
  Cs  Cs4       1.0  0.49300  0.53600  0.75000  1.0000
  Eu  Eu1       1.0  0.50000  0.00000  0.00000  1.0000
  Eu  Eu2       1.0  0.00000  0.50000  0.00000  1.0000
  Eu  Eu3       1.0  0.50000  0.00000  0.50000  1.0000
  Eu  Eu4       1.0  0.00000  0.50000  0.50000  1.0000
