data_image0
_chemical_formula_structural       Ba4O12Ru3Tb
_chemical_formula_sum              "Ba4 O12 Ru3 Tb1"
_cell_length_a       5.87052
_cell_length_b       5.87052
_cell_length_c       10.3146
_cell_angle_alpha    106.533
_cell_angle_beta     73.4667
_cell_angle_gamma    120

_space_group_name_H-M_alt    "P 1"
_space_group_IT_number       1

loop_
  _space_group_symop_operation_xyz
  'x, y, z'

loop_
  _atom_site_type_symbol
  _atom_site_label
  _atom_site_symmetry_multiplicity
  _atom_site_fract_x
  _atom_site_fract_y
  _atom_site_fract_z
  _atom_site_occupancy
  Ba  Ba1       1.0  0.28600  0.71400  0.14300  1.0000
  Ba  Ba2       1.0  0.87000  0.13000  0.38900  1.0000
  Ba  Ba3       1.0  0.13000  0.87000  0.61100  1.0000
  Ba  Ba4       1.0  0.71400  0.28600  0.85700  1.0000
  O   O1        1.0  0.78000  0.69100  0.13000  1.0000
  O   O2        1.0  0.30900  0.22000  0.13000  1.0000
  O   O3        1.0  0.78000  0.22000  0.13000  1.0000
  O   O4        1.0  0.38400  0.61600  0.37400  1.0000
  O   O5        1.0  0.85700  0.61600  0.37400  1.0000
  O   O6        1.0  0.38400  0.14300  0.37400  1.0000
  O   O7        1.0  0.61600  0.85700  0.62600  1.0000
  O   O8        1.0  0.14300  0.38400  0.62600  1.0000
  O   O9        1.0  0.61600  0.38400  0.62600  1.0000
  O   O10       1.0  0.22000  0.78000  0.87000  1.0000
  O   O11       1.0  0.69100  0.78000  0.87000  1.0000
  O   O12       1.0  0.22000  0.30900  0.87000  1.0000
  Ru  Ru1       1.0  0.58600  0.41400  0.24100  1.0000
  Ru  Ru2       1.0  0.50000  0.50000  0.50000  1.0000
  Ru  Ru3       1.0  0.41400  0.58600  0.75900  1.0000
  Tb  Tb1       1.0  0.00000  0.00000  0.00000  1.0000
