data_image0
_chemical_formula_structural       Ce10O2Pb6
_chemical_formula_sum              "Ce10 O2 Pb6"
_cell_length_a       8.80531
_cell_length_b       8.80531
_cell_length_c       9.68337
_cell_angle_alpha    117.043
_cell_angle_beta     117.043
_cell_angle_gamma    90

_space_group_name_H-M_alt    "P 1"
_space_group_IT_number       1

loop_
  _space_group_symop_operation_xyz
  'x, y, z'

loop_
  _atom_site_type_symbol
  _atom_site_label
  _atom_site_symmetry_multiplicity
  _atom_site_fract_x
  _atom_site_fract_y
  _atom_site_fract_z
  _atom_site_occupancy
  Ce  Ce1       1.0  0.00000  0.00000  0.00000  1.0000
  Ce  Ce2       1.0  0.50000  0.50000  0.00000  1.0000
  Ce  Ce3       1.0  0.80300  0.30300  0.30200  1.0000
  Ce  Ce4       1.0  0.30300  0.49900  0.30200  1.0000
  Ce  Ce5       1.0  0.99900  0.80300  0.30200  1.0000
  Ce  Ce6       1.0  0.49900  0.99900  0.30200  1.0000
  Ce  Ce7       1.0  0.50100  0.00102  0.69800  1.0000
  Ce  Ce8       1.0  0.00102  0.19700  0.69800  1.0000
  Ce  Ce9       1.0  0.69700  0.50100  0.69800  1.0000
  Ce  Ce10      1.0  0.19700  0.69700  0.69800  1.0000
  O   O1        1.0  0.75000  0.25000  0.50000  1.0000
  O   O2        1.0  0.25000  0.75000  0.50000  1.0000
  Pb  Pb1       1.0  0.35800  0.14200  0.00000  1.0000
  Pb  Pb2       1.0  0.85800  0.35800  0.00000  1.0000
  Pb  Pb3       1.0  0.14200  0.64200  0.00000  1.0000
  Pb  Pb4       1.0  0.64200  0.85800  0.00000  1.0000
  Pb  Pb5       1.0  0.25000  0.25000  0.50000  1.0000
  Pb  Pb6       1.0  0.75000  0.75000  0.50000  1.0000
