data_image0
_chemical_formula_structural       Ho2O12Ru2Sr4
_chemical_formula_sum              "Ho2 O12 Ru2 Sr4"
_cell_length_a       5.76027
_cell_length_b       5.79095
_cell_length_c       8.1504
_cell_angle_alpha    90
_cell_angle_beta     90.3162
_cell_angle_gamma    90

_space_group_name_H-M_alt    "P 1"
_space_group_IT_number       1

loop_
  _space_group_symop_operation_xyz
  'x, y, z'

loop_
  _atom_site_type_symbol
  _atom_site_label
  _atom_site_symmetry_multiplicity
  _atom_site_fract_x
  _atom_site_fract_y
  _atom_site_fract_z
  _atom_site_occupancy
  Ho  Ho1       1.0  0.00000  0.50000  0.00000  1.0000
  Ho  Ho2       1.0  0.50000  0.00000  0.50000  1.0000
  O   O1        1.0  0.77100  0.20100  0.03860  1.0000
  O   O2        1.0  0.69900  0.72800  0.04030  1.0000
  O   O3        1.0  0.42500  0.01760  0.23500  1.0000
  O   O4        1.0  0.07510  0.51800  0.26500  1.0000
  O   O5        1.0  0.80100  0.22800  0.46000  1.0000
  O   O6        1.0  0.72900  0.70100  0.46100  1.0000
  O   O7        1.0  0.27100  0.29900  0.53900  1.0000
  O   O8        1.0  0.19900  0.77200  0.54000  1.0000
  O   O9        1.0  0.92500  0.48200  0.73500  1.0000
  O   O10       1.0  0.57500  0.98200  0.76500  1.0000
  O   O11       1.0  0.30100  0.27200  0.96000  1.0000
  O   O12       1.0  0.22900  0.79900  0.96100  1.0000
  Ru  Ru1       1.0  0.50000  0.00000  0.00000  1.0000
  Ru  Ru2       1.0  1.00000  0.50000  0.50000  1.0000
  Sr  Sr1       1.0  0.50700  0.46700  0.24900  1.0000
  Sr  Sr2       1.0  0.99300  0.96700  0.25100  1.0000
  Sr  Sr3       1.0  0.00729  0.03320  0.74900  1.0000
  Sr  Sr4       1.0  0.49300  0.53300  0.75100  1.0000
