data_image0
_chemical_formula_structural       La14Ni4Zn2
_chemical_formula_sum              "La14 Ni4 Zn2"
_cell_length_a       12.364
_cell_length_b       12.364
_cell_length_c       3.80988
_cell_angle_alpha    90
_cell_angle_beta     90
_cell_angle_gamma    90

_space_group_name_H-M_alt    "P 1"
_space_group_IT_number       1

loop_
  _space_group_symop_operation_xyz
  'x, y, z'

loop_
  _atom_site_type_symbol
  _atom_site_label
  _atom_site_symmetry_multiplicity
  _atom_site_fract_x
  _atom_site_fract_y
  _atom_site_fract_z
  _atom_site_occupancy
  La  La1       1.0  0.68100  0.18100  0.00000  1.0000
  La  La2       1.0  0.18100  0.31900  0.00000  1.0000
  La  La3       1.0  0.81900  0.68100  0.00000  1.0000
  La  La4       1.0  0.31900  0.81900  0.00000  1.0000
  La  La5       1.0  0.50000  0.00000  0.50000  1.0000
  La  La6       1.0  0.20600  0.06030  0.50000  1.0000
  La  La7       1.0  0.94000  0.20600  0.50000  1.0000
  La  La8       1.0  0.44000  0.29400  0.50000  1.0000
  La  La9       1.0  0.70600  0.44000  0.50000  1.0000
  La  La10      1.0  0.00000  0.50000  0.50000  1.0000
  La  La11      1.0  0.29400  0.56000  0.50000  1.0000
  La  La12      1.0  0.56000  0.70600  0.50000  1.0000
  La  La13      1.0  0.06030  0.79400  0.50000  1.0000
  La  La14      1.0  0.79400  0.94000  0.50000  1.0000
  Ni  Ni1       1.0  0.37200  0.12800  0.00000  1.0000
  Ni  Ni2       1.0  0.87200  0.37200  0.00000  1.0000
  Ni  Ni3       1.0  0.12800  0.62800  0.00000  1.0000
  Ni  Ni4       1.0  0.62800  0.87200  0.00000  1.0000
  Zn  Zn1       1.0  0.00000  0.00000  0.00000  1.0000
  Zn  Zn2       1.0  0.50000  0.50000  0.00000  1.0000
