data_image0
_chemical_formula_structural       La4Mn2O12V2
_chemical_formula_sum              "La4 Mn2 O12 V2"
_cell_length_a       5.59445
_cell_length_b       5.6042
_cell_length_c       7.92319
_cell_angle_alpha    90
_cell_angle_beta     89.7161
_cell_angle_gamma    90

_space_group_name_H-M_alt    "P 1"
_space_group_IT_number       1

loop_
  _space_group_symop_operation_xyz
  'x, y, z'

loop_
  _atom_site_type_symbol
  _atom_site_label
  _atom_site_symmetry_multiplicity
  _atom_site_fract_x
  _atom_site_fract_y
  _atom_site_fract_z
  _atom_site_occupancy
  La  La1       1.0  0.99300  0.04310  0.25000  1.0000
  La  La2       1.0  0.50700  0.54300  0.25000  1.0000
  La  La3       1.0  0.49300  0.45700  0.75000  1.0000
  La  La4       1.0  0.00717  0.95700  0.75000  1.0000
  Mn  Mn1       1.0  0.50000  0.00000  1.00000  1.0000
  Mn  Mn2       1.0  1.00000  0.50000  0.50000  1.0000
  O   O1        1.0  0.72000  0.30500  0.04320  1.0000
  O   O2        1.0  0.80300  0.78300  0.05060  1.0000
  O   O3        1.0  0.08990  0.48000  0.24000  1.0000
  O   O4        1.0  0.41000  0.98000  0.26000  1.0000
  O   O5        1.0  0.69700  0.28300  0.44900  1.0000
  O   O6        1.0  0.78000  0.80500  0.45700  1.0000
  O   O7        1.0  0.22000  0.19500  0.54300  1.0000
  O   O8        1.0  0.30300  0.71700  0.55100  1.0000
  O   O9        1.0  0.59000  0.02050  0.74000  1.0000
  O   O10       1.0  0.91000  0.52000  0.76000  1.0000
  O   O11       1.0  0.19700  0.21700  0.94900  1.0000
  O   O12       1.0  0.28000  0.69500  0.95700  1.0000
  V   V1        1.0  0.00000  0.50000  0.00000  1.0000
  V   V2        1.0  0.50000  0.00000  0.50000  1.0000
