data_image0
_chemical_formula_structural       Ca4O12Se4
_chemical_formula_sum              "Ca4 O12 Se4"
_cell_length_a       6.32239
_cell_length_b       6.76698
_cell_length_c       6.66968
_cell_angle_alpha    90
_cell_angle_beta     102.631
_cell_angle_gamma    90

_space_group_name_H-M_alt    "P 1"
_space_group_IT_number       1

loop_
  _space_group_symop_operation_xyz
  'x, y, z'

loop_
  _atom_site_type_symbol
  _atom_site_label
  _atom_site_symmetry_multiplicity
  _atom_site_fract_x
  _atom_site_fract_y
  _atom_site_fract_z
  _atom_site_occupancy
  Ca  Ca1       1.0  0.27300  0.12800  0.12700  1.0000
  Ca  Ca2       1.0  0.22700  0.62800  0.37300  1.0000
  Ca  Ca3       1.0  0.77300  0.37200  0.62700  1.0000
  Ca  Ca4       1.0  0.72700  0.87200  0.87300  1.0000
  O   O1        1.0  0.10300  0.81400  0.02240  1.0000
  O   O2        1.0  0.28700  0.47000  0.07180  1.0000
  O   O3        1.0  0.58700  0.91600  0.18400  1.0000
  O   O4        1.0  0.91300  0.41600  0.31600  1.0000
  O   O5        1.0  0.21300  0.97000  0.42800  1.0000
  O   O6        1.0  0.39700  0.31400  0.47800  1.0000
  O   O7        1.0  0.60300  0.68600  0.52200  1.0000
  O   O8        1.0  0.78700  0.02960  0.57200  1.0000
  O   O9        1.0  0.08690  0.58400  0.68400  1.0000
  O   O10       1.0  0.41300  0.08370  0.81600  1.0000
  O   O11       1.0  0.71300  0.53000  0.92800  1.0000
  O   O12       1.0  0.89700  0.18600  0.97800  1.0000
  Se  Se1       1.0  0.73700  0.33500  0.09680  1.0000
  Se  Se2       1.0  0.76300  0.83500  0.40300  1.0000
  Se  Se3       1.0  0.23700  0.16500  0.59700  1.0000
  Se  Se4       1.0  0.26300  0.66500  0.90300  1.0000
