data_image0
_chemical_formula_structural       C8N8Pt2Zn2
_chemical_formula_sum              "C8 N8 Pt2 Zn2"
_cell_length_a       5.29621
_cell_length_b       5.29616
_cell_length_c       13.6537
_cell_angle_alpha    90
_cell_angle_beta     90
_cell_angle_gamma    90

_space_group_name_H-M_alt    "P 1"
_space_group_IT_number       1

loop_
  _space_group_symop_operation_xyz
  'x, y, z'

loop_
  _atom_site_type_symbol
  _atom_site_label
  _atom_site_symmetry_multiplicity
  _atom_site_fract_x
  _atom_site_fract_y
  _atom_site_fract_z
  _atom_site_occupancy
  C   C1        1.0  0.18600  0.18600  0.10200  1.0000
  C   C2        1.0  0.81400  0.81400  0.10200  1.0000
  C   C3        1.0  0.81400  0.18600  0.39800  1.0000
  C   C4        1.0  0.18600  0.81400  0.39800  1.0000
  C   C5        1.0  0.81400  0.18600  0.60200  1.0000
  C   C6        1.0  0.18600  0.81400  0.60200  1.0000
  C   C7        1.0  0.18600  0.18600  0.89800  1.0000
  C   C8        1.0  0.81400  0.81400  0.89800  1.0000
  N   N1        1.0  0.29400  0.29400  0.16300  1.0000
  N   N2        1.0  0.70600  0.70600  0.16300  1.0000
  N   N3        1.0  0.70600  0.29400  0.33700  1.0000
  N   N4        1.0  0.29400  0.70600  0.33700  1.0000
  N   N5        1.0  0.70600  0.29400  0.66300  1.0000
  N   N6        1.0  0.29400  0.70600  0.66300  1.0000
  N   N7        1.0  0.29400  0.29400  0.83700  1.0000
  N   N8        1.0  0.70600  0.70600  0.83700  1.0000
  Pt  Pt1       1.0  0.00000  0.00000  0.00000  1.0000
  Pt  Pt2       1.0  0.00000  0.00000  0.50000  1.0000
  Zn  Zn1       1.0  0.50000  0.50000  0.25000  1.0000
  Zn  Zn2       1.0  0.50000  0.50000  0.75000  1.0000
