data_image0
_chemical_formula_structural       Cl16Ge4
_chemical_formula_sum              "Cl16 Ge4"
_cell_length_a       9.78832
_cell_length_b       6.51856
_cell_length_c       9.86834
_cell_angle_alpha    90
_cell_angle_beta     103.109
_cell_angle_gamma    90

_space_group_name_H-M_alt    "P 1"
_space_group_IT_number       1

loop_
  _space_group_symop_operation_xyz
  'x, y, z'

loop_
  _atom_site_type_symbol
  _atom_site_label
  _atom_site_symmetry_multiplicity
  _atom_site_fract_x
  _atom_site_fract_y
  _atom_site_fract_z
  _atom_site_occupancy
  Cl  Cl1       1.0  0.69800  0.92100  0.03360  1.0000
  Cl  Cl2       1.0  0.19200  0.61800  0.08480  1.0000
  Cl  Cl3       1.0  0.57000  0.43100  0.18900  1.0000
  Cl  Cl4       1.0  0.08200  0.08160  0.19800  1.0000
  Cl  Cl5       1.0  0.91800  0.58200  0.30200  1.0000
  Cl  Cl6       1.0  0.43000  0.93100  0.31100  1.0000
  Cl  Cl7       1.0  0.80800  0.11800  0.41500  1.0000
  Cl  Cl8       1.0  0.30200  0.42100  0.46600  1.0000
  Cl  Cl9       1.0  0.69800  0.57900  0.53400  1.0000
  Cl  Cl10      1.0  0.19200  0.88200  0.58500  1.0000
  Cl  Cl11      1.0  0.57000  0.06950  0.68900  1.0000
  Cl  Cl12      1.0  0.08200  0.41800  0.69800  1.0000
  Cl  Cl13      1.0  0.91800  0.91800  0.80200  1.0000
  Cl  Cl14      1.0  0.43000  0.56900  0.81100  1.0000
  Cl  Cl15      1.0  0.80800  0.38200  0.91500  1.0000
  Cl  Cl16      1.0  0.30200  0.07930  0.96600  1.0000
  Ge  Ge1       1.0  0.25200  0.92700  0.14000  1.0000
  Ge  Ge2       1.0  0.74800  0.42700  0.36000  1.0000
  Ge  Ge3       1.0  0.25200  0.57300  0.64000  1.0000
  Ge  Ge4       1.0  0.74800  0.07350  0.86000  1.0000
