data_image0
_chemical_formula_structural       In2Na10S8
_chemical_formula_sum              "In2 Na10 S8"
_cell_length_a       6.78736
_cell_length_b       8.8423
_cell_length_c       7.81943
_cell_angle_alpha    90
_cell_angle_beta     90.7584
_cell_angle_gamma    90

_space_group_name_H-M_alt    "P 1"
_space_group_IT_number       1

loop_
  _space_group_symop_operation_xyz
  'x, y, z'

loop_
  _atom_site_type_symbol
  _atom_site_label
  _atom_site_symmetry_multiplicity
  _atom_site_fract_x
  _atom_site_fract_y
  _atom_site_fract_z
  _atom_site_occupancy
  In  In1       1.0  0.64200  0.25000  0.17600  1.0000
  In  In2       1.0  0.35800  0.75000  0.82400  1.0000
  Na  Na1       1.0  0.00000  0.00000  0.00000  1.0000
  Na  Na2       1.0  0.00000  0.50000  0.00000  1.0000
  Na  Na3       1.0  0.67100  0.75000  0.16100  1.0000
  Na  Na4       1.0  0.34400  0.52000  0.33400  1.0000
  Na  Na5       1.0  0.34400  0.98000  0.33400  1.0000
  Na  Na6       1.0  0.02480  0.25000  0.47400  1.0000
  Na  Na7       1.0  0.97500  0.75000  0.52600  1.0000
  Na  Na8       1.0  0.65600  0.01990  0.66600  1.0000
  Na  Na9       1.0  0.65600  0.48000  0.66600  1.0000
  Na  Na10      1.0  0.32900  0.25000  0.83900  1.0000
  S   S1        1.0  0.23600  0.75000  0.12400  1.0000
  S   S2        1.0  0.27300  0.25000  0.18000  1.0000
  S   S3        1.0  0.76900  0.01850  0.32800  1.0000
  S   S4        1.0  0.76900  0.48100  0.32800  1.0000
  S   S5        1.0  0.23100  0.51900  0.67200  1.0000
  S   S6        1.0  0.23100  0.98100  0.67200  1.0000
  S   S7        1.0  0.72700  0.75000  0.82000  1.0000
  S   S8        1.0  0.76400  0.25000  0.87600  1.0000
