data_image0
_chemical_formula_structural       N12Nb8
_chemical_formula_sum              "N12 Nb8"
_cell_length_a       8.16532
_cell_length_b       8.27853
_cell_length_c       3.00767
_cell_angle_alpha    90
_cell_angle_beta     90
_cell_angle_gamma    90

_space_group_name_H-M_alt    "P 1"
_space_group_IT_number       1

loop_
  _space_group_symop_operation_xyz
  'x, y, z'

loop_
  _atom_site_type_symbol
  _atom_site_label
  _atom_site_symmetry_multiplicity
  _atom_site_fract_x
  _atom_site_fract_y
  _atom_site_fract_z
  _atom_site_occupancy
  N   N1        1.0  0.87400  0.04590  0.25000  1.0000
  N   N2        1.0  0.20200  0.22100  0.25000  1.0000
  N   N3        1.0  0.95200  0.37900  0.25000  1.0000
  N   N4        1.0  0.62600  0.54600  0.25000  1.0000
  N   N5        1.0  0.29800  0.72100  0.25000  1.0000
  N   N6        1.0  0.54800  0.87900  0.25000  1.0000
  N   N7        1.0  0.45200  0.12100  0.75000  1.0000
  N   N8        1.0  0.70200  0.27900  0.75000  1.0000
  N   N9        1.0  0.37400  0.45400  0.75000  1.0000
  N   N10       1.0  0.04800  0.62100  0.75000  1.0000
  N   N11       1.0  0.79800  0.77900  0.75000  1.0000
  N   N12       1.0  0.12600  0.95400  0.75000  1.0000
  Nb  Nb1       1.0  0.50400  0.30500  0.25000  1.0000
  Nb  Nb2       1.0  0.18700  0.47800  0.25000  1.0000
  Nb  Nb3       1.0  0.99600  0.80500  0.25000  1.0000
  Nb  Nb4       1.0  0.31300  0.97800  0.25000  1.0000
  Nb  Nb5       1.0  0.68700  0.02210  0.75000  1.0000
  Nb  Nb6       1.0  0.00404  0.19500  0.75000  1.0000
  Nb  Nb7       1.0  0.81300  0.52200  0.75000  1.0000
  Nb  Nb8       1.0  0.49600  0.69500  0.75000  1.0000
