data_image0
_chemical_formula_structural       In4S12Sb4
_chemical_formula_sum              "In4 S12 Sb4"
_cell_length_a       9.48275
_cell_length_b       3.87905
_cell_length_c       13.3454
_cell_angle_alpha    90
_cell_angle_beta     90
_cell_angle_gamma    90

_space_group_name_H-M_alt    "P 1"
_space_group_IT_number       1

loop_
  _space_group_symop_operation_xyz
  'x, y, z'

loop_
  _atom_site_type_symbol
  _atom_site_label
  _atom_site_symmetry_multiplicity
  _atom_site_fract_x
  _atom_site_fract_y
  _atom_site_fract_z
  _atom_site_occupancy
  In  In1       1.0  0.15000  0.25000  0.04430  1.0000
  In  In2       1.0  0.65000  0.25000  0.45600  1.0000
  In  In3       1.0  0.35000  0.75000  0.54400  1.0000
  In  In4       1.0  0.85000  0.75000  0.95600  1.0000
  S   S1        1.0  0.65900  0.25000  0.02010  1.0000
  S   S2        1.0  0.00045  0.75000  0.11700  1.0000
  S   S3        1.0  0.31300  0.25000  0.20400  1.0000
  S   S4        1.0  0.81300  0.25000  0.29600  1.0000
  S   S5        1.0  0.50000  0.75000  0.38300  1.0000
  S   S6        1.0  0.15900  0.25000  0.48000  1.0000
  S   S7        1.0  0.84100  0.75000  0.52000  1.0000
  S   S8        1.0  0.50000  0.25000  0.61700  1.0000
  S   S9        1.0  0.18700  0.75000  0.70400  1.0000
  S   S10       1.0  0.68700  0.75000  0.79600  1.0000
  S   S11       1.0  0.00000  0.25000  0.88300  1.0000
  S   S12       1.0  0.34100  0.75000  0.98000  1.0000
  Sb  Sb1       1.0  0.47400  0.75000  0.14500  1.0000
  Sb  Sb2       1.0  0.97400  0.75000  0.35500  1.0000
  Sb  Sb3       1.0  0.02610  0.25000  0.64500  1.0000
  Sb  Sb4       1.0  0.52600  0.25000  0.85500  1.0000
