data_image0
_chemical_formula_structural       Au6In10Yb4
_chemical_formula_sum              "Au6 In10 Yb4"
_cell_length_a       4.55997
_cell_length_b       7.5149
_cell_length_c       13.7735
_cell_angle_alpha    90
_cell_angle_beta     80.4718
_cell_angle_gamma    90

_space_group_name_H-M_alt    "P 1"
_space_group_IT_number       1

loop_
  _space_group_symop_operation_xyz
  'x, y, z'

loop_
  _atom_site_type_symbol
  _atom_site_label
  _atom_site_symmetry_multiplicity
  _atom_site_fract_x
  _atom_site_fract_y
  _atom_site_fract_z
  _atom_site_occupancy
  Au  Au1       1.0  0.95800  0.49500  0.08490  1.0000
  Au  Au2       1.0  0.38900  0.96900  0.22100  1.0000
  Au  Au3       1.0  0.77200  0.28500  0.45700  1.0000
  Au  Au4       1.0  0.22800  0.78500  0.54300  1.0000
  Au  Au5       1.0  0.61100  0.46900  0.77900  1.0000
  Au  Au6       1.0  0.04240  0.99500  0.91500  1.0000
  In  In1       1.0  0.94600  0.87900  0.10900  1.0000
  In  In2       1.0  0.40100  0.58000  0.19800  1.0000
  In  In3       1.0  0.87800  0.23600  0.24400  1.0000
  In  In4       1.0  0.29500  0.49100  0.40900  1.0000
  In  In5       1.0  0.29200  0.07920  0.41600  1.0000
  In  In6       1.0  0.70800  0.57900  0.58400  1.0000
  In  In7       1.0  0.70500  0.99100  0.59100  1.0000
  In  In8       1.0  0.12200  0.73600  0.75600  1.0000
  In  In9       1.0  0.59900  0.08000  0.80200  1.0000
  In  In10      1.0  0.05440  0.37900  0.89100  1.0000
  Yb  Yb1       1.0  0.47900  0.21100  0.04180  1.0000
  Yb  Yb2       1.0  0.82300  0.78800  0.35300  1.0000
  Yb  Yb3       1.0  0.17700  0.28800  0.64700  1.0000
  Yb  Yb4       1.0  0.52100  0.71100  0.95800  1.0000
