data_image0
_chemical_formula_structural       As8Ba4Ga8
_chemical_formula_sum              "As8 Ba4 Ga8"
_cell_length_a       7.57579
_cell_length_b       10.0049
_cell_length_c       7.72772
_cell_angle_alpha    90
_cell_angle_beta     115.427
_cell_angle_gamma    90

_space_group_name_H-M_alt    "P 1"
_space_group_IT_number       1

loop_
  _space_group_symop_operation_xyz
  'x, y, z'

loop_
  _atom_site_type_symbol
  _atom_site_label
  _atom_site_symmetry_multiplicity
  _atom_site_fract_x
  _atom_site_fract_y
  _atom_site_fract_z
  _atom_site_occupancy
  As  As1       1.0  0.21400  0.11100  0.03160  1.0000
  As  As2       1.0  0.73200  0.31900  0.04810  1.0000
  As  As3       1.0  0.26800  0.81900  0.45200  1.0000
  As  As4       1.0  0.78600  0.61100  0.46800  1.0000
  As  As5       1.0  0.21400  0.38900  0.53200  1.0000
  As  As6       1.0  0.73200  0.18100  0.54800  1.0000
  As  As7       1.0  0.26800  0.68100  0.95200  1.0000
  As  As8       1.0  0.78600  0.88900  0.96800  1.0000
  Ba  Ba1       1.0  0.41400  0.39900  0.22000  1.0000
  Ba  Ba2       1.0  0.58600  0.89900  0.28000  1.0000
  Ba  Ba3       1.0  0.41400  0.10100  0.72000  1.0000
  Ba  Ba4       1.0  0.58600  0.60100  0.78000  1.0000
  Ga  Ga1       1.0  0.05590  0.71000  0.13000  1.0000
  Ga  Ga2       1.0  0.06200  0.01350  0.24100  1.0000
  Ga  Ga3       1.0  0.93800  0.51300  0.25900  1.0000
  Ga  Ga4       1.0  0.94400  0.21000  0.37000  1.0000
  Ga  Ga5       1.0  0.05590  0.79000  0.63000  1.0000
  Ga  Ga6       1.0  0.06200  0.48700  0.74100  1.0000
  Ga  Ga7       1.0  0.93800  0.98700  0.75900  1.0000
  Ga  Ga8       1.0  0.94400  0.29000  0.87000  1.0000
