data_image0
_chemical_formula_structural       Lu2O12Ru2Sr4
_chemical_formula_sum              "Lu2 O12 Ru2 Sr4"
_cell_length_a       5.72587
_cell_length_b       5.72789
_cell_length_c       8.08243
_cell_angle_alpha    90
_cell_angle_beta     90.1909
_cell_angle_gamma    90

_space_group_name_H-M_alt    "P 1"
_space_group_IT_number       1

loop_
  _space_group_symop_operation_xyz
  'x, y, z'

loop_
  _atom_site_type_symbol
  _atom_site_label
  _atom_site_symmetry_multiplicity
  _atom_site_fract_x
  _atom_site_fract_y
  _atom_site_fract_z
  _atom_site_occupancy
  Lu  Lu1       1.0  0.50000  0.00000  1.00000  1.0000
  Lu  Lu2       1.0  1.00000  0.50000  0.50000  1.0000
  O   O1        1.0  0.27000  0.29300  0.03610  1.0000
  O   O2        1.0  0.20500  0.77200  0.03630  1.0000
  O   O3        1.0  0.93100  0.48700  0.23800  1.0000
  O   O4        1.0  0.56900  0.98700  0.26200  1.0000
  O   O5        1.0  0.29500  0.27200  0.46400  1.0000
  O   O6        1.0  0.23000  0.79300  0.46400  1.0000
  O   O7        1.0  0.77000  0.20700  0.53600  1.0000
  O   O8        1.0  0.70500  0.72800  0.53600  1.0000
  O   O9        1.0  0.43100  0.01330  0.73800  1.0000
  O   O10       1.0  0.06940  0.51300  0.76200  1.0000
  O   O11       1.0  0.79500  0.22800  0.96400  1.0000
  O   O12       1.0  0.73000  0.70700  0.96400  1.0000
  Ru  Ru1       1.0  0.00000  0.50000  0.00000  1.0000
  Ru  Ru2       1.0  0.50000  0.00000  0.50000  1.0000
  Sr  Sr1       1.0  0.00567  0.02840  0.25000  1.0000
  Sr  Sr2       1.0  0.49400  0.52800  0.25000  1.0000
  Sr  Sr3       1.0  0.50600  0.47200  0.75000  1.0000
  Sr  Sr4       1.0  0.99400  0.97200  0.75000  1.0000
