data_image0
_chemical_formula_structural       Al2Rb12Sb6
_chemical_formula_sum              "Al2 Rb12 Sb6"
_cell_length_a       10.8046
_cell_length_b       6.32041
_cell_length_c       12.5128
_cell_angle_alpha    90
_cell_angle_beta     100.826
_cell_angle_gamma    90

_space_group_name_H-M_alt    "P 1"
_space_group_IT_number       1

loop_
  _space_group_symop_operation_xyz
  'x, y, z'

loop_
  _atom_site_type_symbol
  _atom_site_label
  _atom_site_symmetry_multiplicity
  _atom_site_fract_x
  _atom_site_fract_y
  _atom_site_fract_z
  _atom_site_occupancy
  Al  Al1       1.0  0.67800  0.25000  0.28000  1.0000
  Al  Al2       1.0  0.32200  0.75000  0.72000  1.0000
  Rb  Rb1       1.0  0.13400  0.25000  0.01990  1.0000
  Rb  Rb2       1.0  0.54100  0.75000  0.07760  1.0000
  Rb  Rb3       1.0  0.25300  0.75000  0.21900  1.0000
  Rb  Rb4       1.0  0.87900  0.75000  0.32600  1.0000
  Rb  Rb5       1.0  0.09310  0.25000  0.36700  1.0000
  Rb  Rb6       1.0  0.55500  0.75000  0.45300  1.0000
  Rb  Rb7       1.0  0.44500  0.25000  0.54700  1.0000
  Rb  Rb8       1.0  0.90700  0.75000  0.63300  1.0000
  Rb  Rb9       1.0  0.12100  0.25000  0.67400  1.0000
  Rb  Rb10      1.0  0.74700  0.25000  0.78100  1.0000
  Rb  Rb11      1.0  0.45900  0.25000  0.92200  1.0000
  Rb  Rb12      1.0  0.86600  0.75000  0.98000  1.0000
  Sb  Sb1       1.0  0.82200  0.25000  0.12500  1.0000
  Sb  Sb2       1.0  0.43000  0.25000  0.22700  1.0000
  Sb  Sb3       1.0  0.78800  0.25000  0.48800  1.0000
  Sb  Sb4       1.0  0.21200  0.75000  0.51200  1.0000
  Sb  Sb5       1.0  0.57000  0.75000  0.77300  1.0000
  Sb  Sb6       1.0  0.17800  0.75000  0.87500  1.0000
