data_image0
_chemical_formula_structural       La4Li2Mo2O12
_chemical_formula_sum              "La4 Li2 Mo2 O12"
_cell_length_a       5.57022
_cell_length_b       5.66422
_cell_length_c       7.8615
_cell_angle_alpha    90
_cell_angle_beta     90.2639
_cell_angle_gamma    90

_space_group_name_H-M_alt    "P 1"
_space_group_IT_number       1

loop_
  _space_group_symop_operation_xyz
  'x, y, z'

loop_
  _atom_site_type_symbol
  _atom_site_label
  _atom_site_symmetry_multiplicity
  _atom_site_fract_x
  _atom_site_fract_y
  _atom_site_fract_z
  _atom_site_occupancy
  La  La1       1.0  0.00923  0.44600  0.24800  1.0000
  La  La2       1.0  0.49100  0.94600  0.25200  1.0000
  La  La3       1.0  0.50900  0.05360  0.74800  1.0000
  La  La4       1.0  0.99100  0.55400  0.75200  1.0000
  Li  Li1       1.0  0.00000  0.00000  0.00000  1.0000
  Li  Li2       1.0  0.50000  0.50000  0.50000  1.0000
  Mo  Mo1       1.0  0.50000  0.50000  0.00000  1.0000
  Mo  Mo2       1.0  0.00000  0.00000  0.50000  1.0000
  O   O1        1.0  0.21000  0.69400  0.04290  1.0000
  O   O2        1.0  0.30700  0.21500  0.04910  1.0000
  O   O3        1.0  0.58800  0.51900  0.24400  1.0000
  O   O4        1.0  0.91200  0.01900  0.25600  1.0000
  O   O5        1.0  0.19300  0.71500  0.45100  1.0000
  O   O6        1.0  0.29000  0.19400  0.45700  1.0000
  O   O7        1.0  0.71000  0.80600  0.54300  1.0000
  O   O8        1.0  0.80700  0.28500  0.54900  1.0000
  O   O9        1.0  0.08790  0.98100  0.74400  1.0000
  O   O10       1.0  0.41200  0.48100  0.75600  1.0000
  O   O11       1.0  0.69300  0.78500  0.95100  1.0000
  O   O12       1.0  0.79000  0.30600  0.95700  1.0000
