data_image0
_chemical_formula_structural       C8N8Se4
_chemical_formula_sum              "C8 N8 Se4"
_cell_length_a       5.62731
_cell_length_b       5.62731
_cell_length_c       12.8669
_cell_angle_alpha    90
_cell_angle_beta     90
_cell_angle_gamma    77.6343

_space_group_name_H-M_alt    "P 1"
_space_group_IT_number       1

loop_
  _space_group_symop_operation_xyz
  'x, y, z'

loop_
  _atom_site_type_symbol
  _atom_site_label
  _atom_site_symmetry_multiplicity
  _atom_site_fract_x
  _atom_site_fract_y
  _atom_site_fract_z
  _atom_site_occupancy
  C   C1        1.0  0.15700  0.53900  0.12400  1.0000
  C   C2        1.0  0.46100  0.84300  0.12400  1.0000
  C   C3        1.0  0.65700  0.03930  0.37600  1.0000
  C   C4        1.0  0.96100  0.34300  0.37600  1.0000
  C   C5        1.0  0.03930  0.65700  0.62400  1.0000
  C   C6        1.0  0.34300  0.96100  0.62400  1.0000
  C   C7        1.0  0.53900  0.15700  0.87600  1.0000
  C   C8        1.0  0.84300  0.46100  0.87600  1.0000
  N   N1        1.0  0.16200  0.33100  0.12000  1.0000
  N   N2        1.0  0.66900  0.83800  0.12000  1.0000
  N   N3        1.0  0.16900  0.33800  0.38000  1.0000
  N   N4        1.0  0.66200  0.83100  0.38000  1.0000
  N   N5        1.0  0.33800  0.16900  0.62000  1.0000
  N   N6        1.0  0.83100  0.66200  0.62000  1.0000
  N   N7        1.0  0.33100  0.16200  0.88000  1.0000
  N   N8        1.0  0.83800  0.66900  0.88000  1.0000
  Se  Se1       1.0  0.12300  0.87700  0.12600  1.0000
  Se  Se2       1.0  0.62300  0.37700  0.37400  1.0000
  Se  Se3       1.0  0.37700  0.62300  0.62600  1.0000
  Se  Se4       1.0  0.87700  0.12300  0.87400  1.0000
