data_image0
_chemical_formula_structural       BCl12Sc7
_chemical_formula_sum              "B1 Cl12 Sc7"
_cell_length_a       8.15901
_cell_length_b       8.15901
_cell_length_c       8.15901
_cell_angle_alpha    107.487
_cell_angle_beta     107.487
_cell_angle_gamma    107.487

_space_group_name_H-M_alt    "P 1"
_space_group_IT_number       1

loop_
  _space_group_symop_operation_xyz
  'x, y, z'

loop_
  _atom_site_type_symbol
  _atom_site_label
  _atom_site_symmetry_multiplicity
  _atom_site_fract_x
  _atom_site_fract_y
  _atom_site_fract_z
  _atom_site_occupancy
  B   B1        1.0  0.00000  0.00000  0.00000  1.0000
  Cl  Cl1       1.0  0.68600  0.22400  0.07550  1.0000
  Cl  Cl2       1.0  0.38400  0.46300  0.15800  1.0000
  Cl  Cl3       1.0  0.07550  0.68600  0.22400  1.0000
  Cl  Cl4       1.0  0.77600  0.92500  0.31400  1.0000
  Cl  Cl5       1.0  0.46300  0.15800  0.38400  1.0000
  Cl  Cl6       1.0  0.15800  0.38400  0.46300  1.0000
  Cl  Cl7       1.0  0.84200  0.61600  0.53700  1.0000
  Cl  Cl8       1.0  0.53700  0.84200  0.61600  1.0000
  Cl  Cl9       1.0  0.22400  0.07550  0.68600  1.0000
  Cl  Cl10      1.0  0.92500  0.31400  0.77600  1.0000
  Cl  Cl11      1.0  0.61600  0.53700  0.84200  1.0000
  Cl  Cl12      1.0  0.31400  0.77600  0.92500  1.0000
  Sc  Sc1       1.0  0.31200  0.10400  0.02980  1.0000
  Sc  Sc2       1.0  0.02980  0.31200  0.10400  1.0000
  Sc  Sc3       1.0  0.10400  0.02980  0.31200  1.0000
  Sc  Sc4       1.0  0.50000  0.50000  0.50000  1.0000
  Sc  Sc5       1.0  0.89600  0.97000  0.68800  1.0000
  Sc  Sc6       1.0  0.97000  0.68800  0.89600  1.0000
  Sc  Sc7       1.0  0.68800  0.89600  0.97000  1.0000
