data_image0
_chemical_formula_structural       Ge4I12Tl4
_chemical_formula_sum              "Ge4 I12 Tl4"
_cell_length_a       10.3408
_cell_length_b       4.44739
_cell_length_c       16.5672
_cell_angle_alpha    90
_cell_angle_beta     90
_cell_angle_gamma    90

_space_group_name_H-M_alt    "P 1"
_space_group_IT_number       1

loop_
  _space_group_symop_operation_xyz
  'x, y, z'

loop_
  _atom_site_type_symbol
  _atom_site_label
  _atom_site_symmetry_multiplicity
  _atom_site_fract_x
  _atom_site_fract_y
  _atom_site_fract_z
  _atom_site_occupancy
  Ge  Ge1       1.0  0.16400  0.25000  0.05800  1.0000
  Ge  Ge2       1.0  0.66400  0.25000  0.44200  1.0000
  Ge  Ge3       1.0  0.33600  0.75000  0.55800  1.0000
  Ge  Ge4       1.0  0.83600  0.75000  0.94200  1.0000
  I   I1        1.0  0.66400  0.25000  0.00853  1.0000
  I   I2        1.0  0.98400  0.75000  0.11200  1.0000
  I   I3        1.0  0.29300  0.25000  0.21200  1.0000
  I   I4        1.0  0.79300  0.25000  0.28800  1.0000
  I   I5        1.0  0.48400  0.75000  0.38800  1.0000
  I   I6        1.0  0.16400  0.25000  0.49100  1.0000
  I   I7        1.0  0.83600  0.75000  0.50900  1.0000
  I   I8        1.0  0.51600  0.25000  0.61200  1.0000
  I   I9        1.0  0.20700  0.75000  0.71200  1.0000
  I   I10       1.0  0.70700  0.75000  0.78800  1.0000
  I   I11       1.0  0.01650  0.25000  0.88800  1.0000
  I   I12       1.0  0.33600  0.75000  0.99100  1.0000
  Tl  Tl1       1.0  0.56600  0.75000  0.17400  1.0000
  Tl  Tl2       1.0  0.06570  0.75000  0.32600  1.0000
  Tl  Tl3       1.0  0.93400  0.25000  0.67400  1.0000
  Tl  Tl4       1.0  0.43400  0.25000  0.82600  1.0000
