data_image0
_chemical_formula_structural       C4Ca2O12Sr2
_chemical_formula_sum              "C4 Ca2 O12 Sr2"
_cell_length_a       5.2313
_cell_length_b       6.38843
_cell_length_c       7.2307
_cell_angle_alpha    90
_cell_angle_beta     90
_cell_angle_gamma    90

_space_group_name_H-M_alt    "P 1"
_space_group_IT_number       1

loop_
  _space_group_symop_operation_xyz
  'x, y, z'

loop_
  _atom_site_type_symbol
  _atom_site_label
  _atom_site_symmetry_multiplicity
  _atom_site_fract_x
  _atom_site_fract_y
  _atom_site_fract_z
  _atom_site_occupancy
  C   C1        1.0  0.50000  0.96200  0.07770  1.0000
  C   C2        1.0  0.00000  0.58800  0.33800  1.0000
  C   C3        1.0  0.50000  0.03780  0.57800  1.0000
  C   C4        1.0  0.00000  0.41200  0.83800  1.0000
  Ca  Ca1       1.0  0.50000  0.51900  0.04770  1.0000
  Ca  Ca2       1.0  0.50000  0.48100  0.54800  1.0000
  O   O1        1.0  0.28600  0.86200  0.05280  1.0000
  O   O2        1.0  0.71400  0.86200  0.05280  1.0000
  O   O3        1.0  0.50000  0.15300  0.13600  1.0000
  O   O4        1.0  0.21300  0.49300  0.29500  1.0000
  O   O5        1.0  0.78700  0.49300  0.29500  1.0000
  O   O6        1.0  0.00000  0.76100  0.42500  1.0000
  O   O7        1.0  0.28600  0.13800  0.55300  1.0000
  O   O8        1.0  0.71400  0.13800  0.55300  1.0000
  O   O9        1.0  0.50000  0.84700  0.63600  1.0000
  O   O10       1.0  0.21300  0.50700  0.79500  1.0000
  O   O11       1.0  0.78700  0.50700  0.79500  1.0000
  O   O12       1.0  0.00000  0.23900  0.92500  1.0000
  Sr  Sr1       1.0  0.00000  0.11300  0.25600  1.0000
  Sr  Sr2       1.0  0.00000  0.88700  0.75600  1.0000
