data_image0
_chemical_formula_structural       Cd2F14Tl2Zr2
_chemical_formula_sum              "Cd2 F14 Tl2 Zr2"
_cell_length_a       6.40256
_cell_length_b       6.40256
_cell_length_c       8.40452
_cell_angle_alpha    90
_cell_angle_beta     90
_cell_angle_gamma    63.6608

_space_group_name_H-M_alt    "P 1"
_space_group_IT_number       1

loop_
  _space_group_symop_operation_xyz
  'x, y, z'

loop_
  _atom_site_type_symbol
  _atom_site_label
  _atom_site_symmetry_multiplicity
  _atom_site_fract_x
  _atom_site_fract_y
  _atom_site_fract_z
  _atom_site_occupancy
  Cd  Cd1       1.0  0.19500  0.19500  0.25000  1.0000
  Cd  Cd2       1.0  0.80500  0.80500  0.75000  1.0000
  F   F1        1.0  0.79700  0.79700  0.01090  1.0000
  F   F2        1.0  0.56600  0.16300  0.25000  1.0000
  F   F3        1.0  0.82500  0.46900  0.25000  1.0000
  F   F4        1.0  0.16300  0.56600  0.25000  1.0000
  F   F5        1.0  0.46900  0.82500  0.25000  1.0000
  F   F6        1.0  0.99400  0.99400  0.25000  1.0000
  F   F7        1.0  0.79700  0.79700  0.48900  1.0000
  F   F8        1.0  0.20300  0.20300  0.51100  1.0000
  F   F9        1.0  0.00624  0.00624  0.75000  1.0000
  F   F10       1.0  0.53100  0.17500  0.75000  1.0000
  F   F11       1.0  0.83700  0.43400  0.75000  1.0000
  F   F12       1.0  0.17500  0.53100  0.75000  1.0000
  F   F13       1.0  0.43400  0.83700  0.75000  1.0000
  F   F14       1.0  0.20300  0.20300  0.98900  1.0000
  Tl  Tl1       1.0  0.50000  0.50000  0.00000  1.0000
  Tl  Tl2       1.0  0.50000  0.50000  0.50000  1.0000
  Zr  Zr1       1.0  0.80700  0.80700  0.25000  1.0000
  Zr  Zr2       1.0  0.19300  0.19300  0.75000  1.0000
