data_image0
_chemical_formula_structural       In2Nb2O12Sr4
_chemical_formula_sum              "In2 Nb2 O12 Sr4"
_cell_length_a       5.74297
_cell_length_b       5.78218
_cell_length_c       8.12907
_cell_angle_alpha    90
_cell_angle_beta     90.0702
_cell_angle_gamma    90

_space_group_name_H-M_alt    "P 1"
_space_group_IT_number       1

loop_
  _space_group_symop_operation_xyz
  'x, y, z'

loop_
  _atom_site_type_symbol
  _atom_site_label
  _atom_site_symmetry_multiplicity
  _atom_site_fract_x
  _atom_site_fract_y
  _atom_site_fract_z
  _atom_site_occupancy
  In  In1       1.0  0.00000  0.00000  0.00000  1.0000
  In  In2       1.0  0.50000  0.50000  0.50000  1.0000
  Nb  Nb1       1.0  0.50000  0.50000  0.00000  1.0000
  Nb  Nb2       1.0  0.00000  0.00000  0.50000  1.0000
  O   O1        1.0  0.77700  0.70500  0.03900  1.0000
  O   O2        1.0  0.70300  0.22200  0.04150  1.0000
  O   O3        1.0  0.42300  0.51900  0.24000  1.0000
  O   O4        1.0  0.07670  0.01880  0.26000  1.0000
  O   O5        1.0  0.79700  0.72200  0.45900  1.0000
  O   O6        1.0  0.72300  0.20500  0.46100  1.0000
  O   O7        1.0  0.27700  0.79500  0.53900  1.0000
  O   O8        1.0  0.20300  0.27800  0.54100  1.0000
  O   O9        1.0  0.92300  0.98100  0.74000  1.0000
  O   O10       1.0  0.57700  0.48100  0.76000  1.0000
  O   O11       1.0  0.29700  0.77800  0.95900  1.0000
  O   O12       1.0  0.22300  0.29500  0.96100  1.0000
  Sr  Sr1       1.0  0.99300  0.46600  0.25000  1.0000
  Sr  Sr2       1.0  0.50700  0.96600  0.25000  1.0000
  Sr  Sr3       1.0  0.49300  0.03370  0.75000  1.0000
  Sr  Sr4       1.0  0.00740  0.53400  0.75000  1.0000
