data_image0
_chemical_formula_structural       Ga14Ni6
_chemical_formula_sum              "Ga14 Ni6"
_cell_length_a       7.31909
_cell_length_b       7.31909
_cell_length_c       7.31909
_cell_angle_alpha    109.471
_cell_angle_beta     109.471
_cell_angle_gamma    109.471

_space_group_name_H-M_alt    "P 1"
_space_group_IT_number       1

loop_
  _space_group_symop_operation_xyz
  'x, y, z'

loop_
  _atom_site_type_symbol
  _atom_site_label
  _atom_site_symmetry_multiplicity
  _atom_site_fract_x
  _atom_site_fract_y
  _atom_site_fract_z
  _atom_site_occupancy
  Ga  Ga1       1.0  0.32300  0.00000  0.00000  1.0000
  Ga  Ga2       1.0  0.67700  0.00000  0.00000  1.0000
  Ga  Ga3       1.0  0.00000  0.32300  0.00000  1.0000
  Ga  Ga4       1.0  0.00000  0.67700  0.00000  1.0000
  Ga  Ga5       1.0  0.75000  0.50000  0.25000  1.0000
  Ga  Ga6       1.0  0.50000  0.75000  0.25000  1.0000
  Ga  Ga7       1.0  0.00000  0.00000  0.32300  1.0000
  Ga  Ga8       1.0  0.32300  0.32300  0.32300  1.0000
  Ga  Ga9       1.0  0.75000  0.25000  0.50000  1.0000
  Ga  Ga10      1.0  0.25000  0.75000  0.50000  1.0000
  Ga  Ga11      1.0  0.00000  0.00000  0.67700  1.0000
  Ga  Ga12      1.0  0.67700  0.67700  0.67700  1.0000
  Ga  Ga13      1.0  0.50000  0.25000  0.75000  1.0000
  Ga  Ga14      1.0  0.25000  0.50000  0.75000  1.0000
  Ni  Ni1       1.0  0.35000  0.35000  0.00000  1.0000
  Ni  Ni2       1.0  0.65000  0.65000  0.00000  1.0000
  Ni  Ni3       1.0  0.35000  0.00000  0.35000  1.0000
  Ni  Ni4       1.0  0.00000  0.35000  0.35000  1.0000
  Ni  Ni5       1.0  0.65000  0.00000  0.65000  1.0000
  Ni  Ni6       1.0  0.00000  0.65000  0.65000  1.0000
