data_image0
_chemical_formula_structural       Fe2Mn4O12Sb2
_chemical_formula_sum              "Fe2 Mn4 O12 Sb2"
_cell_length_a       5.24194
_cell_length_b       5.41321
_cell_length_c       7.64382
_cell_angle_alpha    90
_cell_angle_beta     89.7075
_cell_angle_gamma    90

_space_group_name_H-M_alt    "P 1"
_space_group_IT_number       1

loop_
  _space_group_symop_operation_xyz
  'x, y, z'

loop_
  _atom_site_type_symbol
  _atom_site_label
  _atom_site_symmetry_multiplicity
  _atom_site_fract_x
  _atom_site_fract_y
  _atom_site_fract_z
  _atom_site_occupancy
  Fe  Fe1       1.0  0.50000  0.00000  0.00000  1.0000
  Fe  Fe2       1.0  0.00000  0.50000  0.50000  1.0000
  Mn  Mn1       1.0  0.48600  0.55400  0.24800  1.0000
  Mn  Mn2       1.0  0.01420  0.05380  0.25200  1.0000
  Mn  Mn3       1.0  0.98600  0.94600  0.74800  1.0000
  Mn  Mn4       1.0  0.51400  0.44600  0.75200  1.0000
  O   O1        1.0  0.31200  0.30800  0.06160  1.0000
  O   O2        1.0  0.18700  0.80600  0.06680  1.0000
  O   O3        1.0  0.87700  0.44400  0.24700  1.0000
  O   O4        1.0  0.62300  0.94400  0.25300  1.0000
  O   O5        1.0  0.31300  0.30600  0.43300  1.0000
  O   O6        1.0  0.18800  0.80800  0.43800  1.0000
  O   O7        1.0  0.81200  0.19200  0.56200  1.0000
  O   O8        1.0  0.68700  0.69400  0.56700  1.0000
  O   O9        1.0  0.37700  0.05580  0.74700  1.0000
  O   O10       1.0  0.12300  0.55600  0.75300  1.0000
  O   O11       1.0  0.81300  0.19400  0.93300  1.0000
  O   O12       1.0  0.68800  0.69200  0.93800  1.0000
  Sb  Sb1       1.0  0.00000  0.50000  0.00000  1.0000
  Sb  Sb2       1.0  0.50000  0.00000  0.50000  1.0000
