data_image0
_chemical_formula_structural       Cs4Ga4S12
_chemical_formula_sum              "Cs4 Ga4 S12"
_cell_length_a       7.64795
_cell_length_b       12.6164
_cell_length_c       6.51227
_cell_angle_alpha    90
_cell_angle_beta     107.841
_cell_angle_gamma    90

_space_group_name_H-M_alt    "P 1"
_space_group_IT_number       1

loop_
  _space_group_symop_operation_xyz
  'x, y, z'

loop_
  _atom_site_type_symbol
  _atom_site_label
  _atom_site_symmetry_multiplicity
  _atom_site_fract_x
  _atom_site_fract_y
  _atom_site_fract_z
  _atom_site_occupancy
  Cs  Cs1       1.0  0.74600  0.41600  0.21500  1.0000
  Cs  Cs2       1.0  0.25400  0.91600  0.28500  1.0000
  Cs  Cs3       1.0  0.74600  0.08380  0.71500  1.0000
  Cs  Cs4       1.0  0.25400  0.58400  0.78500  1.0000
  Ga  Ga1       1.0  0.18900  0.27100  0.14100  1.0000
  Ga  Ga2       1.0  0.81100  0.77100  0.35900  1.0000
  Ga  Ga3       1.0  0.18900  0.22900  0.64100  1.0000
  Ga  Ga4       1.0  0.81100  0.72900  0.85900  1.0000
  S   S1        1.0  0.44300  0.17200  0.13100  1.0000
  S   S2        1.0  0.69400  0.91600  0.14400  1.0000
  S   S3        1.0  0.98300  0.67400  0.19400  1.0000
  S   S4        1.0  0.01700  0.17400  0.30600  1.0000
  S   S5        1.0  0.30600  0.41600  0.35600  1.0000
  S   S6        1.0  0.55700  0.67200  0.36900  1.0000
  S   S7        1.0  0.44300  0.32800  0.63100  1.0000
  S   S8        1.0  0.69400  0.58400  0.64400  1.0000
  S   S9        1.0  0.98300  0.82600  0.69400  1.0000
  S   S10       1.0  0.01700  0.32600  0.80600  1.0000
  S   S11       1.0  0.30600  0.08370  0.85600  1.0000
  S   S12       1.0  0.55700  0.82800  0.86900  1.0000
