data_image0
_chemical_formula_structural       Cd2F14Rb2Zr2
_chemical_formula_sum              "Cd2 F14 Rb2 Zr2"
_cell_length_a       6.38826
_cell_length_b       6.38826
_cell_length_c       8.40292
_cell_angle_alpha    90
_cell_angle_beta     90
_cell_angle_gamma    63.7121

_space_group_name_H-M_alt    "P 1"
_space_group_IT_number       1

loop_
  _space_group_symop_operation_xyz
  'x, y, z'

loop_
  _atom_site_type_symbol
  _atom_site_label
  _atom_site_symmetry_multiplicity
  _atom_site_fract_x
  _atom_site_fract_y
  _atom_site_fract_z
  _atom_site_occupancy
  Cd  Cd1       1.0  0.19400  0.19400  0.25000  1.0000
  Cd  Cd2       1.0  0.80600  0.80600  0.75000  1.0000
  F   F1        1.0  0.79100  0.79100  0.01080  1.0000
  F   F2        1.0  0.56600  0.16100  0.25000  1.0000
  F   F3        1.0  0.82300  0.46700  0.25000  1.0000
  F   F4        1.0  0.16100  0.56600  0.25000  1.0000
  F   F5        1.0  0.46700  0.82300  0.25000  1.0000
  F   F6        1.0  0.99300  0.99300  0.25000  1.0000
  F   F7        1.0  0.79100  0.79100  0.48900  1.0000
  F   F8        1.0  0.20900  0.20900  0.51100  1.0000
  F   F9        1.0  0.00719  0.00719  0.75000  1.0000
  F   F10       1.0  0.53300  0.17700  0.75000  1.0000
  F   F11       1.0  0.83900  0.43400  0.75000  1.0000
  F   F12       1.0  0.17700  0.53300  0.75000  1.0000
  F   F13       1.0  0.43400  0.83900  0.75000  1.0000
  F   F14       1.0  0.20900  0.20900  0.98900  1.0000
  Rb  Rb1       1.0  0.50000  0.50000  0.00000  1.0000
  Rb  Rb2       1.0  0.50000  0.50000  0.50000  1.0000
  Zr  Zr1       1.0  0.80600  0.80600  0.25000  1.0000
  Zr  Zr2       1.0  0.19400  0.19400  0.75000  1.0000
