data_image0
_chemical_formula_structural       Na8O8Zn4
_chemical_formula_sum              "Na8 O8 Zn4"
_cell_length_a       7.69051
_cell_length_b       5.96873
_cell_length_c       5.70516
_cell_angle_alpha    90
_cell_angle_beta     95.0797
_cell_angle_gamma    90

_space_group_name_H-M_alt    "P 1"
_space_group_IT_number       1

loop_
  _space_group_symop_operation_xyz
  'x, y, z'

loop_
  _atom_site_type_symbol
  _atom_site_label
  _atom_site_symmetry_multiplicity
  _atom_site_fract_x
  _atom_site_fract_y
  _atom_site_fract_z
  _atom_site_occupancy
  Na  Na1       1.0  0.02890  0.25900  0.00883  1.0000
  Na  Na2       1.0  0.67800  0.14600  0.07010  1.0000
  Na  Na3       1.0  0.32200  0.64600  0.43000  1.0000
  Na  Na4       1.0  0.97100  0.75900  0.49100  1.0000
  Na  Na5       1.0  0.02890  0.24100  0.50900  1.0000
  Na  Na6       1.0  0.67800  0.35400  0.57000  1.0000
  Na  Na7       1.0  0.32200  0.85400  0.93000  1.0000
  Na  Na8       1.0  0.97100  0.74100  0.99100  1.0000
  O   O1        1.0  0.43600  0.38000  0.20100  1.0000
  O   O2        1.0  0.85400  0.46300  0.25000  1.0000
  O   O3        1.0  0.14600  0.96300  0.25000  1.0000
  O   O4        1.0  0.56400  0.88000  0.29900  1.0000
  O   O5        1.0  0.43600  0.12000  0.70100  1.0000
  O   O6        1.0  0.85400  0.03710  0.75000  1.0000
  O   O7        1.0  0.14600  0.53700  0.75000  1.0000
  O   O8        1.0  0.56400  0.62000  0.79900  1.0000
  Zn  Zn1       1.0  0.63700  0.60700  0.14500  1.0000
  Zn  Zn2       1.0  0.36300  0.10700  0.35500  1.0000
  Zn  Zn3       1.0  0.63700  0.89300  0.64500  1.0000
  Zn  Zn4       1.0  0.36300  0.39300  0.85500  1.0000
