data_image0
_chemical_formula_structural       Cl3O10Se2Tb5
_chemical_formula_sum              "Cl3 O10 Se2 Tb5"
_cell_length_a       5.45227
_cell_length_b       6.66285
_cell_length_c       9.722
_cell_angle_alpha    90.2307
_cell_angle_beta     90
_cell_angle_gamma    114.152

_space_group_name_H-M_alt    "P 1"
_space_group_IT_number       1

loop_
  _space_group_symop_operation_xyz
  'x, y, z'

loop_
  _atom_site_type_symbol
  _atom_site_label
  _atom_site_symmetry_multiplicity
  _atom_site_fract_x
  _atom_site_fract_y
  _atom_site_fract_z
  _atom_site_occupancy
  Cl  Cl1       1.0  0.33700  0.67400  0.35400  1.0000
  Cl  Cl2       1.0  0.00000  1.00000  0.50000  1.0000
  Cl  Cl3       1.0  0.66300  0.32600  0.64600  1.0000
  O   O1        1.0  0.10100  0.71000  0.06030  1.0000
  O   O2        1.0  0.61000  0.71000  0.06030  1.0000
  O   O3        1.0  0.31600  0.11200  0.20600  1.0000
  O   O4        1.0  0.79600  0.11200  0.20600  1.0000
  O   O5        1.0  0.72500  0.45100  0.29700  1.0000
  O   O6        1.0  0.27500  0.54900  0.70300  1.0000
  O   O7        1.0  0.20400  0.88800  0.79400  1.0000
  O   O8        1.0  0.68400  0.88800  0.79400  1.0000
  O   O9        1.0  0.39000  0.29000  0.94000  1.0000
  O   O10       1.0  0.89900  0.29000  0.94000  1.0000
  Se  Se1       1.0  0.58900  0.17800  0.32300  1.0000
  Se  Se2       1.0  0.41100  0.82200  0.67700  1.0000
  Tb  Tb1       1.0  0.50000  0.00000  0.00000  1.0000
  Tb  Tb2       1.0  0.21100  0.42300  0.10600  1.0000
  Tb  Tb3       1.0  0.90000  0.80000  0.23800  1.0000
  Tb  Tb4       1.0  0.10000  0.20000  0.76200  1.0000
  Tb  Tb5       1.0  0.78900  0.57700  0.89400  1.0000
