data_image0
_chemical_formula_structural       Cd2O12Sr4U2
_chemical_formula_sum              "Cd2 O12 Sr4 U2"
_cell_length_a       5.9441
_cell_length_b       6.03414
_cell_length_c       8.40279
_cell_angle_alpha    90
_cell_angle_beta     90.4328
_cell_angle_gamma    90

_space_group_name_H-M_alt    "P 1"
_space_group_IT_number       1

loop_
  _space_group_symop_operation_xyz
  'x, y, z'

loop_
  _atom_site_type_symbol
  _atom_site_label
  _atom_site_symmetry_multiplicity
  _atom_site_fract_x
  _atom_site_fract_y
  _atom_site_fract_z
  _atom_site_occupancy
  Cd  Cd1       1.0  0.50000  0.00000  0.00000  1.0000
  Cd  Cd2       1.0  0.00000  0.50000  0.50000  1.0000
  O   O1        1.0  0.71300  0.31000  0.04920  1.0000
  O   O2        1.0  0.81300  0.78300  0.06110  1.0000
  O   O3        1.0  0.10600  0.45800  0.23700  1.0000
  O   O4        1.0  0.39400  0.95800  0.26300  1.0000
  O   O5        1.0  0.68700  0.28300  0.43900  1.0000
  O   O6        1.0  0.78700  0.81000  0.45100  1.0000
  O   O7        1.0  0.21300  0.19000  0.54900  1.0000
  O   O8        1.0  0.31300  0.71700  0.56100  1.0000
  O   O9        1.0  0.60600  0.04240  0.73700  1.0000
  O   O10       1.0  0.89400  0.54200  0.76300  1.0000
  O   O11       1.0  0.18700  0.21700  0.93900  1.0000
  O   O12       1.0  0.28700  0.69000  0.95100  1.0000
  Sr  Sr1       1.0  0.51300  0.54900  0.24600  1.0000
  Sr  Sr2       1.0  0.98700  0.04860  0.25400  1.0000
  Sr  Sr3       1.0  0.01310  0.95100  0.74600  1.0000
  Sr  Sr4       1.0  0.48700  0.45100  0.75400  1.0000
  U   U1        1.0  0.00000  0.50000  0.00000  1.0000
  U   U2        1.0  0.50000  0.00000  0.50000  1.0000
