data_image0
_chemical_formula_structural       Cl16Ti4
_chemical_formula_sum              "Cl16 Ti4"
_cell_length_a       9.73192
_cell_length_b       6.51595
_cell_length_c       9.7445
_cell_angle_alpha    90
_cell_angle_beta     102.197
_cell_angle_gamma    90

_space_group_name_H-M_alt    "P 1"
_space_group_IT_number       1

loop_
  _space_group_symop_operation_xyz
  'x, y, z'

loop_
  _atom_site_type_symbol
  _atom_site_label
  _atom_site_symmetry_multiplicity
  _atom_site_fract_x
  _atom_site_fract_y
  _atom_site_fract_z
  _atom_site_occupancy
  Cl  Cl1       1.0  0.69300  0.08030  0.04540  1.0000
  Cl  Cl2       1.0  0.19000  0.39300  0.07630  1.0000
  Cl  Cl3       1.0  0.56800  0.57500  0.19100  1.0000
  Cl  Cl4       1.0  0.07650  0.91600  0.19600  1.0000
  Cl  Cl5       1.0  0.92300  0.41600  0.30400  1.0000
  Cl  Cl6       1.0  0.43200  0.07480  0.30900  1.0000
  Cl  Cl7       1.0  0.81000  0.89300  0.42400  1.0000
  Cl  Cl8       1.0  0.30700  0.58000  0.45500  1.0000
  Cl  Cl9       1.0  0.69300  0.42000  0.54500  1.0000
  Cl  Cl10      1.0  0.19000  0.10700  0.57600  1.0000
  Cl  Cl11      1.0  0.56800  0.92500  0.69100  1.0000
  Cl  Cl12      1.0  0.07650  0.58400  0.69600  1.0000
  Cl  Cl13      1.0  0.92300  0.08390  0.80400  1.0000
  Cl  Cl14      1.0  0.43200  0.42500  0.80900  1.0000
  Cl  Cl15      1.0  0.81000  0.60700  0.92400  1.0000
  Cl  Cl16      1.0  0.30700  0.92000  0.95500  1.0000
  Ti  Ti1       1.0  0.25100  0.07680  0.13300  1.0000
  Ti  Ti2       1.0  0.74900  0.57700  0.36700  1.0000
  Ti  Ti3       1.0  0.25100  0.42300  0.63300  1.0000
  Ti  Ti4       1.0  0.74900  0.92300  0.86700  1.0000
