data_image0
_chemical_formula_structural       Bi16I4
_chemical_formula_sum              "Bi16 I4"
_cell_length_a       4.40705
_cell_length_b       13.2198
_cell_length_c       13.38
_cell_angle_alpha    104.315
_cell_angle_beta     90
_cell_angle_gamma    99.595

_space_group_name_H-M_alt    "P 1"
_space_group_IT_number       1

loop_
  _space_group_symop_operation_xyz
  'x, y, z'

loop_
  _atom_site_type_symbol
  _atom_site_label
  _atom_site_symmetry_multiplicity
  _atom_site_fract_x
  _atom_site_fract_y
  _atom_site_fract_z
  _atom_site_occupancy
  Bi  Bi1       1.0  0.92100  0.84100  0.11800  1.0000
  Bi  Bi2       1.0  0.11400  0.22900  0.11900  1.0000
  Bi  Bi3       1.0  0.34100  0.68100  0.12900  1.0000
  Bi  Bi4       1.0  0.53500  0.06940  0.13100  1.0000
  Bi  Bi5       1.0  0.37200  0.74300  0.36500  1.0000
  Bi  Bi6       1.0  0.56500  0.13000  0.37000  1.0000
  Bi  Bi7       1.0  0.79000  0.58000  0.37200  1.0000
  Bi  Bi8       1.0  0.98600  0.97100  0.38000  1.0000
  Bi  Bi9       1.0  0.01440  0.02870  0.62000  1.0000
  Bi  Bi10      1.0  0.21000  0.42000  0.62800  1.0000
  Bi  Bi11      1.0  0.43500  0.87000  0.63000  1.0000
  Bi  Bi12      1.0  0.62800  0.25700  0.63500  1.0000
  Bi  Bi13      1.0  0.46500  0.93100  0.86900  1.0000
  Bi  Bi14      1.0  0.65900  0.31900  0.87100  1.0000
  Bi  Bi15      1.0  0.88600  0.77100  0.88100  1.0000
  Bi  Bi16      1.0  0.07930  0.15900  0.88200  1.0000
  I   I1        1.0  0.73100  0.46100  0.13600  1.0000
  I   I2        1.0  0.18100  0.36100  0.38800  1.0000
  I   I3        1.0  0.81900  0.63900  0.61200  1.0000
  I   I4        1.0  0.26900  0.53900  0.86400  1.0000
