data_image0
_chemical_formula_structural       C14Ir6
_chemical_formula_sum              "C14 Ir6"
_cell_length_a       6.20817
_cell_length_b       6.20817
_cell_length_c       6.20817
_cell_angle_alpha    109.471
_cell_angle_beta     109.471
_cell_angle_gamma    109.471

_space_group_name_H-M_alt    "P 1"
_space_group_IT_number       1

loop_
  _space_group_symop_operation_xyz
  'x, y, z'

loop_
  _atom_site_type_symbol
  _atom_site_label
  _atom_site_symmetry_multiplicity
  _atom_site_fract_x
  _atom_site_fract_y
  _atom_site_fract_z
  _atom_site_occupancy
  C   C1        1.0  0.38000  0.00000  0.00000  1.0000
  C   C2        1.0  0.62000  0.00000  0.00000  1.0000
  C   C3        1.0  0.00000  0.38000  0.00000  1.0000
  C   C4        1.0  0.00000  0.62000  0.00000  1.0000
  C   C5        1.0  0.75000  0.50000  0.25000  1.0000
  C   C6        1.0  0.50000  0.75000  0.25000  1.0000
  C   C7        1.0  0.00000  0.00000  0.38000  1.0000
  C   C8        1.0  0.38000  0.38000  0.38000  1.0000
  C   C9        1.0  0.75000  0.25000  0.50000  1.0000
  C   C10       1.0  0.25000  0.75000  0.50000  1.0000
  C   C11       1.0  0.00000  0.00000  0.62000  1.0000
  C   C12       1.0  0.62000  0.62000  0.62000  1.0000
  C   C13       1.0  0.50000  0.25000  0.75000  1.0000
  C   C14       1.0  0.25000  0.50000  0.75000  1.0000
  Ir  Ir1       1.0  0.32600  0.32600  0.00000  1.0000
  Ir  Ir2       1.0  0.67400  0.67400  0.00000  1.0000
  Ir  Ir3       1.0  0.32600  0.00000  0.32600  1.0000
  Ir  Ir4       1.0  0.00000  0.32600  0.32600  1.0000
  Ir  Ir5       1.0  0.67400  0.00000  0.67400  1.0000
  Ir  Ir6       1.0  0.00000  0.67400  0.67400  1.0000
