data_image0
_chemical_formula_structural       Cl4Cs12O4
_chemical_formula_sum              "Cl4 Cs12 O4"
_cell_length_a       9.54005
_cell_length_b       4.46533
_cell_length_c       16.4217
_cell_angle_alpha    90
_cell_angle_beta     90
_cell_angle_gamma    90

_space_group_name_H-M_alt    "P 1"
_space_group_IT_number       1

loop_
  _space_group_symop_operation_xyz
  'x, y, z'

loop_
  _atom_site_type_symbol
  _atom_site_label
  _atom_site_symmetry_multiplicity
  _atom_site_fract_x
  _atom_site_fract_y
  _atom_site_fract_z
  _atom_site_occupancy
  Cl  Cl1       1.0  0.07780  0.75000  0.17200  1.0000
  Cl  Cl2       1.0  0.57800  0.75000  0.32800  1.0000
  Cl  Cl3       1.0  0.42200  0.25000  0.67200  1.0000
  Cl  Cl4       1.0  0.92200  0.25000  0.82800  1.0000
  Cs  Cs1       1.0  0.17200  0.25000  0.00144  1.0000
  Cs  Cs2       1.0  0.47300  0.75000  0.09900  1.0000
  Cs  Cs3       1.0  0.78900  0.25000  0.20900  1.0000
  Cs  Cs4       1.0  0.28900  0.25000  0.29100  1.0000
  Cs  Cs5       1.0  0.97300  0.75000  0.40100  1.0000
  Cs  Cs6       1.0  0.67200  0.25000  0.49900  1.0000
  Cs  Cs7       1.0  0.32800  0.75000  0.50100  1.0000
  Cs  Cs8       1.0  0.02680  0.25000  0.59900  1.0000
  Cs  Cs9       1.0  0.71100  0.75000  0.70900  1.0000
  Cs  Cs10      1.0  0.21100  0.75000  0.79100  1.0000
  Cs  Cs11      1.0  0.52700  0.25000  0.90100  1.0000
  Cs  Cs12      1.0  0.82800  0.75000  0.99900  1.0000
  O   O1        1.0  0.66600  0.25000  0.06150  1.0000
  O   O2        1.0  0.16600  0.25000  0.43900  1.0000
  O   O3        1.0  0.83400  0.75000  0.56100  1.0000
  O   O4        1.0  0.33400  0.75000  0.93900  1.0000
