data_image0
_chemical_formula_structural       Bi2P4S12Tl2
_chemical_formula_sum              "Bi2 P4 S12 Tl2"
_cell_length_a       6.68725
_cell_length_b       7.49937
_cell_length_c       9.9425
_cell_angle_alpha    90
_cell_angle_beta     91.4096
_cell_angle_gamma    90

_space_group_name_H-M_alt    "P 1"
_space_group_IT_number       1

loop_
  _space_group_symop_operation_xyz
  'x, y, z'

loop_
  _atom_site_type_symbol
  _atom_site_label
  _atom_site_symmetry_multiplicity
  _atom_site_fract_x
  _atom_site_fract_y
  _atom_site_fract_z
  _atom_site_occupancy
  Bi  Bi1       1.0  0.28800  0.40000  0.48400  1.0000
  Bi  Bi2       1.0  0.71200  0.90000  0.51600  1.0000
  P   P1        1.0  0.30100  0.63800  0.20100  1.0000
  P   P2        1.0  0.18900  0.86400  0.32900  1.0000
  P   P3        1.0  0.81100  0.36400  0.67100  1.0000
  P   P4        1.0  0.69900  0.13800  0.79900  1.0000
  S   S1        1.0  0.33100  0.72000  0.01350  1.0000
  S   S2        1.0  0.08940  0.44600  0.23000  1.0000
  S   S3        1.0  0.92800  0.95200  0.24900  1.0000
  S   S4        1.0  0.55400  0.55900  0.30900  1.0000
  S   S5        1.0  0.41200  0.05320  0.32900  1.0000
  S   S6        1.0  0.84800  0.24900  0.48400  1.0000
  S   S7        1.0  0.15200  0.74900  0.51600  1.0000
  S   S8        1.0  0.58800  0.55300  0.67100  1.0000
  S   S9        1.0  0.44600  0.05890  0.69100  1.0000
  S   S10       1.0  0.07190  0.45200  0.75100  1.0000
  S   S11       1.0  0.91100  0.94600  0.77000  1.0000
  S   S12       1.0  0.66900  0.22000  0.98600  1.0000
  Tl  Tl1       1.0  0.19600  0.14900  0.00023  1.0000
  Tl  Tl2       1.0  0.80400  0.64900  1.00000  1.0000
