data_image0
_chemical_formula_structural       B6ClK3O10
_chemical_formula_sum              "B6 Cl1 K3 O10"
_cell_length_a       6.4957
_cell_length_b       6.4957
_cell_length_c       6.4957
_cell_angle_alpha    101.49
_cell_angle_beta     101.49
_cell_angle_gamma    101.49

_space_group_name_H-M_alt    "P 1"
_space_group_IT_number       1

loop_
  _space_group_symop_operation_xyz
  'x, y, z'

loop_
  _atom_site_type_symbol
  _atom_site_label
  _atom_site_symmetry_multiplicity
  _atom_site_fract_x
  _atom_site_fract_y
  _atom_site_fract_z
  _atom_site_occupancy
  B   B1        1.0  0.51900  0.06350  0.06350  1.0000
  B   B2        1.0  0.06350  0.51900  0.06350  1.0000
  B   B3        1.0  0.18900  0.92700  0.18900  1.0000
  B   B4        1.0  0.92700  0.18900  0.18900  1.0000
  B   B5        1.0  0.06350  0.06350  0.51900  1.0000
  B   B6        1.0  0.18900  0.18900  0.92700  1.0000
  Cl  Cl1       1.0  0.56100  0.56100  0.56100  1.0000
  K   K1        1.0  0.61700  0.61700  0.07840  1.0000
  K   K2        1.0  0.61700  0.07840  0.61700  1.0000
  K   K3        1.0  0.07840  0.61700  0.61700  1.0000
  O   O1        1.0  0.04900  0.72400  0.04900  1.0000
  O   O2        1.0  0.72400  0.04900  0.04900  1.0000
  O   O3        1.0  0.11400  0.11400  0.11400  1.0000
  O   O4        1.0  0.41600  0.94400  0.18200  1.0000
  O   O5        1.0  0.94400  0.41600  0.18200  1.0000
  O   O6        1.0  0.94400  0.18200  0.41600  1.0000
  O   O7        1.0  0.18200  0.94400  0.41600  1.0000
  O   O8        1.0  0.04900  0.04900  0.72400  1.0000
  O   O9        1.0  0.18200  0.41600  0.94400  1.0000
  O   O10       1.0  0.41600  0.18200  0.94400  1.0000
