data_image0
_chemical_formula_structural       P6Pd14
_chemical_formula_sum              "P6 Pd14"
_cell_length_a       7.15226
_cell_length_b       7.37608
_cell_length_c       7.37608
_cell_angle_alpha    110.078
_cell_angle_beta     108.858
_cell_angle_gamma    108.858

_space_group_name_H-M_alt    "P 1"
_space_group_IT_number       1

loop_
  _space_group_symop_operation_xyz
  'x, y, z'

loop_
  _atom_site_type_symbol
  _atom_site_label
  _atom_site_symmetry_multiplicity
  _atom_site_fract_x
  _atom_site_fract_y
  _atom_site_fract_z
  _atom_site_occupancy
  P   P1        1.0  0.30100  0.80000  0.17700  1.0000
  P   P2        1.0  0.50100  0.37700  0.20000  1.0000
  P   P3        1.0  0.92200  0.17100  0.37600  1.0000
  P   P4        1.0  0.12400  0.82300  0.62300  1.0000
  P   P5        1.0  0.54600  0.62400  0.79400  1.0000
  P   P6        1.0  0.75200  0.20600  0.82900  1.0000
  Pd  Pd1       1.0  0.22400  0.00000  0.00000  1.0000
  Pd  Pd2       1.0  0.82900  0.00000  0.00000  1.0000
  Pd  Pd3       1.0  0.18100  0.43300  0.07460  1.0000
  Pd  Pd4       1.0  0.61700  0.73900  0.17600  1.0000
  Pd  Pd5       1.0  0.87800  0.43700  0.26100  1.0000
  Pd  Pd6       1.0  0.10700  0.92500  0.35800  1.0000
  Pd  Pd7       1.0  0.29800  0.35300  0.42600  1.0000
  Pd  Pd8       1.0  0.61100  0.17500  0.44600  1.0000
  Pd  Pd9       1.0  0.44100  0.82400  0.56300  1.0000
  Pd  Pd10      1.0  0.74900  0.64200  0.56700  1.0000
  Pd  Pd11      1.0  0.94500  0.07340  0.64700  1.0000
  Pd  Pd12      1.0  0.16500  0.55400  0.72900  1.0000
  Pd  Pd13      1.0  0.43600  0.27100  0.82500  1.0000
  Pd  Pd14      1.0  0.87200  0.57400  0.92700  1.0000
