data_image0
_chemical_formula_structural       Cu11In9
_chemical_formula_sum              "Cu11 In9"
_cell_length_a       12.9543
_cell_length_b       4.38014
_cell_length_c       7.4436
_cell_angle_alpha    90
_cell_angle_beta     54.3117
_cell_angle_gamma    90

_space_group_name_H-M_alt    "P 1"
_space_group_IT_number       1

loop_
  _space_group_symop_operation_xyz
  'x, y, z'

loop_
  _atom_site_type_symbol
  _atom_site_label
  _atom_site_symmetry_multiplicity
  _atom_site_fract_x
  _atom_site_fract_y
  _atom_site_fract_z
  _atom_site_occupancy
  Cu  Cu1       1.0  0.50000  0.50000  0.00000  1.0000
  Cu  Cu2       1.0  0.00000  0.00000  0.00000  1.0000
  Cu  Cu3       1.0  0.75000  0.00000  0.27900  1.0000
  Cu  Cu4       1.0  0.23700  0.50000  0.29000  1.0000
  Cu  Cu5       1.0  0.38100  0.50000  0.44700  1.0000
  Cu  Cu6       1.0  0.88600  0.00000  0.45600  1.0000
  Cu  Cu7       1.0  0.00000  0.50000  0.50000  1.0000
  Cu  Cu8       1.0  0.11400  0.00000  0.54400  1.0000
  Cu  Cu9       1.0  0.61900  0.50000  0.55300  1.0000
  Cu  Cu10      1.0  0.76300  0.50000  0.71000  1.0000
  Cu  Cu11      1.0  0.25000  0.00000  0.72100  1.0000
  In  In1       1.0  0.65900  0.50000  0.14400  1.0000
  In  In2       1.0  0.14100  0.00000  0.16500  1.0000
  In  In3       1.0  0.37600  0.00000  0.23800  1.0000
  In  In4       1.0  0.88800  0.50000  0.25200  1.0000
  In  In5       1.0  0.50000  0.00000  0.50000  1.0000
  In  In6       1.0  0.11200  0.50000  0.74800  1.0000
  In  In7       1.0  0.62400  0.00000  0.76200  1.0000
  In  In8       1.0  0.85900  0.00000  0.83500  1.0000
  In  In9       1.0  0.34100  0.50000  0.85600  1.0000
