data_image0
_chemical_formula_structural       Mn6O12Te2
_chemical_formula_sum              "Mn6 O12 Te2"
_cell_length_a       6.2385
_cell_length_b       6.2385
_cell_length_c       6.2385
_cell_angle_alpha    90.741
_cell_angle_beta     90.741
_cell_angle_gamma    90.741

_space_group_name_H-M_alt    "P 1"
_space_group_IT_number       1

loop_
  _space_group_symop_operation_xyz
  'x, y, z'

loop_
  _atom_site_type_symbol
  _atom_site_label
  _atom_site_symmetry_multiplicity
  _atom_site_fract_x
  _atom_site_fract_y
  _atom_site_fract_z
  _atom_site_occupancy
  Mn  Mn1       1.0  0.56300  0.74900  0.05380  1.0000
  Mn  Mn2       1.0  0.94600  0.43700  0.25100  1.0000
  Mn  Mn3       1.0  0.25100  0.94600  0.43700  1.0000
  Mn  Mn4       1.0  0.74900  0.05380  0.56300  1.0000
  Mn  Mn5       1.0  0.05380  0.56300  0.74900  1.0000
  Mn  Mn6       1.0  0.43700  0.25100  0.94600  1.0000
  O   O1        1.0  0.91500  0.70300  0.04530  1.0000
  O   O2        1.0  0.29700  0.95500  0.08550  1.0000
  O   O3        1.0  0.57200  0.43000  0.20400  1.0000
  O   O4        1.0  0.95500  0.08550  0.29700  1.0000
  O   O5        1.0  0.57000  0.79600  0.42800  1.0000
  O   O6        1.0  0.20400  0.57200  0.43000  1.0000
  O   O7        1.0  0.79600  0.42800  0.57000  1.0000
  O   O8        1.0  0.43000  0.20400  0.57200  1.0000
  O   O9        1.0  0.04530  0.91500  0.70300  1.0000
  O   O10       1.0  0.42800  0.57000  0.79600  1.0000
  O   O11       1.0  0.70300  0.04530  0.91500  1.0000
  O   O12       1.0  0.08550  0.29700  0.95500  1.0000
  Te  Te1       1.0  0.00000  0.00000  0.00000  1.0000
  Te  Te2       1.0  0.50000  0.50000  0.50000  1.0000
