data_image0
_chemical_formula_structural       C4La2Li2O12
_chemical_formula_sum              "C4 La2 Li2 O12"
_cell_length_a       6.39234
_cell_length_b       6.39234
_cell_length_c       6.82563
_cell_angle_alpha    116.641
_cell_angle_beta     63.3586
_cell_angle_gamma    104.56

_space_group_name_H-M_alt    "P 1"
_space_group_IT_number       1

loop_
  _space_group_symop_operation_xyz
  'x, y, z'

loop_
  _atom_site_type_symbol
  _atom_site_label
  _atom_site_symmetry_multiplicity
  _atom_site_fract_x
  _atom_site_fract_y
  _atom_site_fract_z
  _atom_site_occupancy
  C   C1        1.0  0.32600  0.79000  0.12900  1.0000
  C   C2        1.0  0.79000  0.32600  0.37100  1.0000
  C   C3        1.0  0.21000  0.67400  0.62900  1.0000
  C   C4        1.0  0.67400  0.21000  0.87100  1.0000
  La  La1       1.0  0.80600  0.80600  0.25000  1.0000
  La  La2       1.0  0.19400  0.19400  0.75000  1.0000
  Li  Li1       1.0  0.25100  0.25100  0.25000  1.0000
  Li  Li2       1.0  0.74900  0.74900  0.75000  1.0000
  O   O1        1.0  0.21100  0.61600  0.01950  1.0000
  O   O2        1.0  0.54800  0.79400  0.06090  1.0000
  O   O3        1.0  0.96600  0.20500  0.19300  1.0000
  O   O4        1.0  0.20500  0.96600  0.30700  1.0000
  O   O5        1.0  0.79400  0.54800  0.43900  1.0000
  O   O6        1.0  0.61600  0.21100  0.48000  1.0000
  O   O7        1.0  0.38400  0.78900  0.52000  1.0000
  O   O8        1.0  0.20600  0.45200  0.56100  1.0000
  O   O9        1.0  0.79500  0.03410  0.69300  1.0000
  O   O10       1.0  0.03410  0.79500  0.80700  1.0000
  O   O11       1.0  0.45200  0.20600  0.93900  1.0000
  O   O12       1.0  0.78900  0.38400  0.98000  1.0000
