data_image0
_chemical_formula_structural       La4O12Ti2Zn2
_chemical_formula_sum              "La4 O12 Ti2 Zn2"
_cell_length_a       7.88692
_cell_length_b       5.62224
_cell_length_c       5.56839
_cell_angle_alpha    90
_cell_angle_beta     90.0694
_cell_angle_gamma    90

_space_group_name_H-M_alt    "P 1"
_space_group_IT_number       1

loop_
  _space_group_symop_operation_xyz
  'x, y, z'

loop_
  _atom_site_type_symbol
  _atom_site_label
  _atom_site_symmetry_multiplicity
  _atom_site_fract_x
  _atom_site_fract_y
  _atom_site_fract_z
  _atom_site_occupancy
  La  La1       1.0  0.75100  0.95900  0.00845  1.0000
  La  La2       1.0  0.74900  0.45900  0.49200  1.0000
  La  La3       1.0  0.25100  0.54100  0.50800  1.0000
  La  La4       1.0  0.24900  0.04110  0.99200  1.0000
  O   O1        1.0  0.25800  0.47700  0.08720  1.0000
  O   O2        1.0  0.54800  0.21600  0.19900  1.0000
  O   O3        1.0  0.95500  0.20100  0.21800  1.0000
  O   O4        1.0  0.54500  0.70100  0.28200  1.0000
  O   O5        1.0  0.95200  0.71600  0.30100  1.0000
  O   O6        1.0  0.24200  0.97700  0.41300  1.0000
  O   O7        1.0  0.75800  0.02270  0.58700  1.0000
  O   O8        1.0  0.04760  0.28400  0.69900  1.0000
  O   O9        1.0  0.45500  0.29900  0.71800  1.0000
  O   O10       1.0  0.04490  0.79900  0.78200  1.0000
  O   O11       1.0  0.45200  0.78400  0.80100  1.0000
  O   O12       1.0  0.74200  0.52300  0.91300  1.0000
  Ti  Ti1       1.0  0.50000  0.50000  0.00000  1.0000
  Ti  Ti2       1.0  0.00000  0.00000  0.50000  1.0000
  Zn  Zn1       1.0  0.00000  0.50000  0.00000  1.0000
  Zn  Zn2       1.0  0.50000  0.00000  0.50000  1.0000
