data_image0
_chemical_formula_structural       B6O12Tb2
_chemical_formula_sum              "B6 O12 Tb2"
_cell_length_a       6.13539
_cell_length_b       6.24306
_cell_length_c       6.24306
_cell_angle_alpha    100.326
_cell_angle_beta     116.742
_cell_angle_gamma    63.2584

_space_group_name_H-M_alt    "P 1"
_space_group_IT_number       1

loop_
  _space_group_symop_operation_xyz
  'x, y, z'

loop_
  _atom_site_type_symbol
  _atom_site_label
  _atom_site_symmetry_multiplicity
  _atom_site_fract_x
  _atom_site_fract_y
  _atom_site_fract_z
  _atom_site_occupancy
  B   B1        1.0  0.90700  0.66300  0.21200  1.0000
  B   B2        1.0  0.25000  0.22100  0.22100  1.0000
  B   B3        1.0  0.40700  0.78800  0.33700  1.0000
  B   B4        1.0  0.59300  0.21200  0.66300  1.0000
  B   B5        1.0  0.75000  0.77900  0.77900  1.0000
  B   B6        1.0  0.09310  0.33700  0.78800  1.0000
  O   O1        1.0  0.29700  0.21400  0.00600  1.0000
  O   O2        1.0  0.49000  0.60600  0.20400  1.0000
  O   O3        1.0  0.20300  0.00600  0.21400  1.0000
  O   O4        1.0  0.00135  0.41500  0.21400  1.0000
  O   O5        1.0  0.99000  0.79600  0.39400  1.0000
  O   O6        1.0  0.49900  0.21400  0.41500  1.0000
  O   O7        1.0  0.50100  0.78600  0.58500  1.0000
  O   O8        1.0  0.01000  0.20400  0.60600  1.0000
  O   O9        1.0  0.99900  0.58500  0.78600  1.0000
  O   O10       1.0  0.79700  0.99400  0.78600  1.0000
  O   O11       1.0  0.51000  0.39400  0.79600  1.0000
  O   O12       1.0  0.70300  0.78600  0.99400  1.0000
  Tb  Tb1       1.0  0.75000  0.20200  0.20200  1.0000
  Tb  Tb2       1.0  0.25000  0.79800  0.79800  1.0000
