data_image0
_chemical_formula_structural       Ce10Ni2Pb6
_chemical_formula_sum              "Ce10 Ni2 Pb6"
_cell_length_a       9.76034
_cell_length_b       9.76034
_cell_length_c       7.17743
_cell_angle_alpha    90.0136
_cell_angle_beta     90.0136
_cell_angle_gamma    119.992

_space_group_name_H-M_alt    "P 1"
_space_group_IT_number       1

loop_
  _space_group_symop_operation_xyz
  'x, y, z'

loop_
  _atom_site_type_symbol
  _atom_site_label
  _atom_site_symmetry_multiplicity
  _atom_site_fract_x
  _atom_site_fract_y
  _atom_site_fract_z
  _atom_site_occupancy
  Ce  Ce1       1.0  0.66700  0.33300  0.00003  1.0000
  Ce  Ce2       1.0  0.33300  0.66700  0.00003  1.0000
  Ce  Ce3       1.0  0.24200  0.00002  0.25000  1.0000
  Ce  Ce4       1.0  0.00002  0.24200  0.25000  1.0000
  Ce  Ce5       1.0  0.75800  0.75800  0.25000  1.0000
  Ce  Ce6       1.0  0.33300  0.66700  0.50000  1.0000
  Ce  Ce7       1.0  0.66700  0.33300  0.50000  1.0000
  Ce  Ce8       1.0  0.24200  0.24200  0.75000  1.0000
  Ce  Ce9       1.0  0.00002  0.75800  0.75000  1.0000
  Ce  Ce10      1.0  0.75800  0.00002  0.75000  1.0000
  Ni  Ni1       1.0  0.99999  0.99999  0.99999  1.0000
  Ni  Ni2       1.0  0.99998  0.99998  0.50000  1.0000
  Pb  Pb1       1.0  0.39900  0.39900  0.25000  1.0000
  Pb  Pb2       1.0  0.60100  0.99999  0.25000  1.0000
  Pb  Pb3       1.0  0.99999  0.60100  0.25000  1.0000
  Pb  Pb4       1.0  0.60100  0.60100  0.75000  1.0000
  Pb  Pb5       1.0  0.39900  0.00001  0.75000  1.0000
  Pb  Pb6       1.0  0.00001  0.39900  0.75000  1.0000
