data_image0
_chemical_formula_structural       Ag8Ba4Te8
_chemical_formula_sum              "Ag8 Ba4 Te8"
_cell_length_a       10.9729
_cell_length_b       4.65321
_cell_length_c       11.8807
_cell_angle_alpha    90
_cell_angle_beta     90
_cell_angle_gamma    90

_space_group_name_H-M_alt    "P 1"
_space_group_IT_number       1

loop_
  _space_group_symop_operation_xyz
  'x, y, z'

loop_
  _atom_site_type_symbol
  _atom_site_label
  _atom_site_symmetry_multiplicity
  _atom_site_fract_x
  _atom_site_fract_y
  _atom_site_fract_z
  _atom_site_occupancy
  Ag  Ag1       1.0  0.43900  0.75000  0.04910  1.0000
  Ag  Ag2       1.0  0.05990  0.25000  0.08600  1.0000
  Ag  Ag3       1.0  0.56000  0.25000  0.41400  1.0000
  Ag  Ag4       1.0  0.93900  0.75000  0.45100  1.0000
  Ag  Ag5       1.0  0.06080  0.25000  0.54900  1.0000
  Ag  Ag6       1.0  0.44000  0.75000  0.58600  1.0000
  Ag  Ag7       1.0  0.94000  0.75000  0.91400  1.0000
  Ag  Ag8       1.0  0.56100  0.25000  0.95100  1.0000
  Ba  Ba1       1.0  0.74500  0.75000  0.19200  1.0000
  Ba  Ba2       1.0  0.24500  0.75000  0.30800  1.0000
  Ba  Ba3       1.0  0.75500  0.25000  0.69200  1.0000
  Ba  Ba4       1.0  0.25500  0.25000  0.80800  1.0000
  Te  Te1       1.0  0.18200  0.75000  0.01960  1.0000
  Te  Te2       1.0  0.47900  0.25000  0.18700  1.0000
  Te  Te3       1.0  0.97900  0.25000  0.31300  1.0000
  Te  Te4       1.0  0.68200  0.75000  0.48000  1.0000
  Te  Te5       1.0  0.31800  0.25000  0.52000  1.0000
  Te  Te6       1.0  0.02120  0.75000  0.68700  1.0000
  Te  Te7       1.0  0.52100  0.75000  0.81300  1.0000
  Te  Te8       1.0  0.81800  0.25000  0.98000  1.0000
