data_image0
_chemical_formula_structural       Gd8O4Se8
_chemical_formula_sum              "Gd8 O4 Se8"
_cell_length_a       16.1892
_cell_length_b       3.94998
_cell_length_c       7.05443
_cell_angle_alpha    90
_cell_angle_beta     90
_cell_angle_gamma    90

_space_group_name_H-M_alt    "P 1"
_space_group_IT_number       1

loop_
  _space_group_symop_operation_xyz
  'x, y, z'

loop_
  _atom_site_type_symbol
  _atom_site_label
  _atom_site_symmetry_multiplicity
  _atom_site_fract_x
  _atom_site_fract_y
  _atom_site_fract_z
  _atom_site_occupancy
  Gd  Gd1       1.0  0.46200  0.75000  0.19800  1.0000
  Gd  Gd2       1.0  0.66100  0.25000  0.24100  1.0000
  Gd  Gd3       1.0  0.16100  0.25000  0.25900  1.0000
  Gd  Gd4       1.0  0.96200  0.75000  0.30200  1.0000
  Gd  Gd5       1.0  0.03830  0.25000  0.69800  1.0000
  Gd  Gd6       1.0  0.83900  0.75000  0.74100  1.0000
  Gd  Gd7       1.0  0.33900  0.75000  0.75900  1.0000
  Gd  Gd8       1.0  0.53800  0.25000  0.80200  1.0000
  O   O1        1.0  0.53000  0.25000  0.12800  1.0000
  O   O2        1.0  0.03020  0.25000  0.37200  1.0000
  O   O3        1.0  0.97000  0.75000  0.62800  1.0000
  O   O4        1.0  0.47000  0.75000  0.87200  1.0000
  Se  Se1       1.0  0.09950  0.75000  0.00930  1.0000
  Se  Se2       1.0  0.32000  0.25000  0.05290  1.0000
  Se  Se3       1.0  0.82000  0.25000  0.44700  1.0000
  Se  Se4       1.0  0.59900  0.75000  0.49100  1.0000
  Se  Se5       1.0  0.40100  0.25000  0.50900  1.0000
  Se  Se6       1.0  0.18000  0.75000  0.55300  1.0000
  Se  Se7       1.0  0.68000  0.75000  0.94700  1.0000
  Se  Se8       1.0  0.90100  0.25000  0.99100  1.0000
