data_image0
_chemical_formula_structural       CdCs4F12Ni3
_chemical_formula_sum              "Cd1 Cs4 F12 Ni3"
_cell_length_a       6.10555
_cell_length_b       6.10555
_cell_length_c       10.5096
_cell_angle_alpha    73.1136
_cell_angle_beta     106.886
_cell_angle_gamma    120

_space_group_name_H-M_alt    "P 1"
_space_group_IT_number       1

loop_
  _space_group_symop_operation_xyz
  'x, y, z'

loop_
  _atom_site_type_symbol
  _atom_site_label
  _atom_site_symmetry_multiplicity
  _atom_site_fract_x
  _atom_site_fract_y
  _atom_site_fract_z
  _atom_site_occupancy
  Cd  Cd1       1.0  0.00000  0.00000  0.00000  1.0000
  Cs  Cs1       1.0  0.71400  0.28600  0.14100  1.0000
  Cs  Cs2       1.0  0.13000  0.87000  0.38900  1.0000
  Cs  Cs3       1.0  0.87000  0.13000  0.61100  1.0000
  Cs  Cs4       1.0  0.28600  0.71400  0.85900  1.0000
  F   F1        1.0  0.69400  0.78300  0.12700  1.0000
  F   F2        1.0  0.21700  0.30600  0.12700  1.0000
  F   F3        1.0  0.21700  0.78300  0.12700  1.0000
  F   F4        1.0  0.60300  0.39700  0.37000  1.0000
  F   F5        1.0  0.60300  0.83700  0.37000  1.0000
  F   F6        1.0  0.16300  0.39700  0.37000  1.0000
  F   F7        1.0  0.83700  0.60300  0.63000  1.0000
  F   F8        1.0  0.39700  0.16300  0.63000  1.0000
  F   F9        1.0  0.39700  0.60300  0.63000  1.0000
  F   F10       1.0  0.78300  0.21700  0.87300  1.0000
  F   F11       1.0  0.78300  0.69400  0.87300  1.0000
  F   F12       1.0  0.30600  0.21700  0.87300  1.0000
  Ni  Ni1       1.0  0.41100  0.58900  0.23400  1.0000
  Ni  Ni2       1.0  0.50000  0.50000  0.50000  1.0000
  Ni  Ni3       1.0  0.58900  0.41100  0.76600  1.0000
