data_image0
_chemical_formula_structural       Ca4P4S12
_chemical_formula_sum              "Ca4 P4 S12"
_cell_length_a       6.55782
_cell_length_b       7.30886
_cell_length_c       11.1353
_cell_angle_alpha    90
_cell_angle_beta     123.928
_cell_angle_gamma    90

_space_group_name_H-M_alt    "P 1"
_space_group_IT_number       1

loop_
  _space_group_symop_operation_xyz
  'x, y, z'

loop_
  _atom_site_type_symbol
  _atom_site_label
  _atom_site_symmetry_multiplicity
  _atom_site_fract_x
  _atom_site_fract_y
  _atom_site_fract_z
  _atom_site_occupancy
  Ca  Ca1       1.0  0.28800  0.38300  0.24800  1.0000
  Ca  Ca2       1.0  0.71200  0.88300  0.25200  1.0000
  Ca  Ca3       1.0  0.28800  0.11700  0.74800  1.0000
  Ca  Ca4       1.0  0.71200  0.61700  0.75200  1.0000
  P   P1        1.0  0.63500  0.39000  0.06620  1.0000
  P   P2        1.0  0.36500  0.89000  0.43400  1.0000
  P   P3        1.0  0.63500  0.11000  0.56600  1.0000
  P   P4        1.0  0.36500  0.61000  0.93400  1.0000
  S   S1        1.0  0.22300  0.69500  0.04610  1.0000
  S   S2        1.0  0.41500  0.19300  0.06610  1.0000
  S   S3        1.0  0.11900  0.00585  0.24000  1.0000
  S   S4        1.0  0.88100  0.50600  0.26000  1.0000
  S   S5        1.0  0.58500  0.69300  0.43400  1.0000
  S   S6        1.0  0.77700  0.19500  0.45400  1.0000
  S   S7        1.0  0.22300  0.80500  0.54600  1.0000
  S   S8        1.0  0.41500  0.30700  0.56600  1.0000
  S   S9        1.0  0.11900  0.49400  0.74000  1.0000
  S   S10       1.0  0.88100  0.99400  0.76000  1.0000
  S   S11       1.0  0.58500  0.80700  0.93400  1.0000
  S   S12       1.0  0.77700  0.30500  0.95400  1.0000
