data_image0
_chemical_formula_structural       Br4Mn4Sb4Se8
_chemical_formula_sum              "Br4 Mn4 Sb4 Se8"
_cell_length_a       10.0287
_cell_length_b       3.97636
_cell_length_c       12.9863
_cell_angle_alpha    90
_cell_angle_beta     90
_cell_angle_gamma    90

_space_group_name_H-M_alt    "P 1"
_space_group_IT_number       1

loop_
  _space_group_symop_operation_xyz
  'x, y, z'

loop_
  _atom_site_type_symbol
  _atom_site_label
  _atom_site_symmetry_multiplicity
  _atom_site_fract_x
  _atom_site_fract_y
  _atom_site_fract_z
  _atom_site_occupancy
  Br  Br1       1.0  0.56800  0.75000  0.11300  1.0000
  Br  Br2       1.0  0.06820  0.75000  0.38700  1.0000
  Br  Br3       1.0  0.93200  0.25000  0.61300  1.0000
  Br  Br4       1.0  0.43200  0.25000  0.88700  1.0000
  Mn  Mn1       1.0  0.50700  0.25000  0.23800  1.0000
  Mn  Mn2       1.0  0.00692  0.25000  0.26200  1.0000
  Mn  Mn3       1.0  0.99300  0.75000  0.73800  1.0000
  Mn  Mn4       1.0  0.49300  0.75000  0.76200  1.0000
  Sb  Sb1       1.0  0.18600  0.75000  0.03710  1.0000
  Sb  Sb2       1.0  0.68600  0.75000  0.46300  1.0000
  Sb  Sb3       1.0  0.31400  0.25000  0.53700  1.0000
  Sb  Sb4       1.0  0.81400  0.25000  0.96300  1.0000
  Se  Se1       1.0  0.94500  0.75000  0.11900  1.0000
  Se  Se2       1.0  0.24800  0.25000  0.17600  1.0000
  Se  Se3       1.0  0.74800  0.25000  0.32400  1.0000
  Se  Se4       1.0  0.44500  0.75000  0.38100  1.0000
  Se  Se5       1.0  0.55500  0.25000  0.61900  1.0000
  Se  Se6       1.0  0.25200  0.75000  0.67600  1.0000
  Se  Se7       1.0  0.75200  0.75000  0.82400  1.0000
  Se  Se8       1.0  0.05510  0.25000  0.88100  1.0000
