data_image0
_chemical_formula_structural       Gd4S12Sc4
_chemical_formula_sum              "Gd4 S12 Sc4"
_cell_length_a       7.06245
_cell_length_b       9.51682
_cell_length_c       6.40413
_cell_angle_alpha    90
_cell_angle_beta     90
_cell_angle_gamma    90

_space_group_name_H-M_alt    "P 1"
_space_group_IT_number       1

loop_
  _space_group_symop_operation_xyz
  'x, y, z'

loop_
  _atom_site_type_symbol
  _atom_site_label
  _atom_site_symmetry_multiplicity
  _atom_site_fract_x
  _atom_site_fract_y
  _atom_site_fract_z
  _atom_site_occupancy
  Gd  Gd1       1.0  0.10100  0.25000  0.04040  1.0000
  Gd  Gd2       1.0  0.60100  0.25000  0.46000  1.0000
  Gd  Gd3       1.0  0.39900  0.75000  0.54000  1.0000
  Gd  Gd4       1.0  0.89900  0.75000  0.96000  1.0000
  S   S1        1.0  0.54500  0.75000  0.14100  1.0000
  S   S2        1.0  0.81500  0.06880  0.17600  1.0000
  S   S3        1.0  0.81500  0.43100  0.17600  1.0000
  S   S4        1.0  0.31500  0.06880  0.32400  1.0000
  S   S5        1.0  0.31500  0.43100  0.32400  1.0000
  S   S6        1.0  0.04460  0.75000  0.35900  1.0000
  S   S7        1.0  0.95500  0.25000  0.64100  1.0000
  S   S8        1.0  0.68500  0.56900  0.67600  1.0000
  S   S9        1.0  0.68500  0.93100  0.67600  1.0000
  S   S10       1.0  0.18500  0.56900  0.82400  1.0000
  S   S11       1.0  0.18500  0.93100  0.82400  1.0000
  S   S12       1.0  0.45500  0.25000  0.85900  1.0000
  Sc  Sc1       1.0  0.50000  0.00000  0.00000  1.0000
  Sc  Sc2       1.0  0.50000  0.50000  0.00000  1.0000
  Sc  Sc3       1.0  0.00000  0.00000  0.50000  1.0000
  Sc  Sc4       1.0  0.00000  0.50000  0.50000  1.0000
