data_image0
_chemical_formula_structural       I12Rb4Sn4
_chemical_formula_sum              "I12 Rb4 Sn4"
_cell_length_a       10.4283
_cell_length_b       4.78225
_cell_length_c       17.5816
_cell_angle_alpha    90
_cell_angle_beta     90
_cell_angle_gamma    90

_space_group_name_H-M_alt    "P 1"
_space_group_IT_number       1

loop_
  _space_group_symop_operation_xyz
  'x, y, z'

loop_
  _atom_site_type_symbol
  _atom_site_label
  _atom_site_symmetry_multiplicity
  _atom_site_fract_x
  _atom_site_fract_y
  _atom_site_fract_z
  _atom_site_occupancy
  I   I1        1.0  0.66000  0.75000  0.00432  1.0000
  I   I2        1.0  0.97500  0.25000  0.11500  1.0000
  I   I3        1.0  0.30000  0.75000  0.21200  1.0000
  I   I4        1.0  0.80000  0.75000  0.28800  1.0000
  I   I5        1.0  0.47500  0.25000  0.38500  1.0000
  I   I6        1.0  0.16000  0.75000  0.49600  1.0000
  I   I7        1.0  0.84000  0.25000  0.50400  1.0000
  I   I8        1.0  0.52500  0.75000  0.61500  1.0000
  I   I9        1.0  0.20000  0.25000  0.71200  1.0000
  I   I10       1.0  0.70000  0.25000  0.78800  1.0000
  I   I11       1.0  0.02540  0.75000  0.88500  1.0000
  I   I12       1.0  0.34000  0.25000  0.99600  1.0000
  Rb  Rb1       1.0  0.58300  0.25000  0.17300  1.0000
  Rb  Rb2       1.0  0.08340  0.25000  0.32700  1.0000
  Rb  Rb3       1.0  0.91700  0.75000  0.67300  1.0000
  Rb  Rb4       1.0  0.41700  0.75000  0.82700  1.0000
  Sn  Sn1       1.0  0.16300  0.75000  0.05960  1.0000
  Sn  Sn2       1.0  0.66300  0.75000  0.44000  1.0000
  Sn  Sn3       1.0  0.33700  0.25000  0.56000  1.0000
  Sn  Sn4       1.0  0.83700  0.25000  0.94000  1.0000
