data_image0
_chemical_formula_structural       CaCu3O12Pt4
_chemical_formula_sum              "Ca1 Cu3 O12 Pt4"
_cell_length_a       6.51232
_cell_length_b       6.51232
_cell_length_c       6.51232
_cell_angle_alpha    109.471
_cell_angle_beta     109.471
_cell_angle_gamma    109.471

_space_group_name_H-M_alt    "P 1"
_space_group_IT_number       1

loop_
  _space_group_symop_operation_xyz
  'x, y, z'

loop_
  _atom_site_type_symbol
  _atom_site_label
  _atom_site_symmetry_multiplicity
  _atom_site_fract_x
  _atom_site_fract_y
  _atom_site_fract_z
  _atom_site_occupancy
  Ca  Ca1       1.0  0.00000  0.00000  0.00000  1.0000
  Cu  Cu1       1.0  0.50000  0.50000  0.00000  1.0000
  Cu  Cu2       1.0  0.50000  0.00000  0.50000  1.0000
  Cu  Cu3       1.0  0.00000  0.50000  0.50000  1.0000
  O   O1        1.0  0.83300  0.30500  0.13800  1.0000
  O   O2        1.0  0.30500  0.47200  0.16700  1.0000
  O   O3        1.0  0.69500  0.86200  0.16700  1.0000
  O   O4        1.0  0.13800  0.83300  0.30500  1.0000
  O   O5        1.0  0.47200  0.16700  0.30500  1.0000
  O   O6        1.0  0.16700  0.30500  0.47200  1.0000
  O   O7        1.0  0.83300  0.69500  0.52800  1.0000
  O   O8        1.0  0.86200  0.16700  0.69500  1.0000
  O   O9        1.0  0.52800  0.83300  0.69500  1.0000
  O   O10       1.0  0.30500  0.13800  0.83300  1.0000
  O   O11       1.0  0.69500  0.52800  0.83300  1.0000
  O   O12       1.0  0.16700  0.69500  0.86200  1.0000
  Pt  Pt1       1.0  0.50000  0.00000  0.00000  1.0000
  Pt  Pt2       1.0  0.00000  0.50000  0.00000  1.0000
  Pt  Pt3       1.0  0.00000  0.00000  0.50000  1.0000
  Pt  Pt4       1.0  0.50000  0.50000  0.50000  1.0000
