data_image0
_chemical_formula_structural       Ba4Ga8P8
_chemical_formula_sum              "Ba4 Ga8 P8"
_cell_length_a       7.3921
_cell_length_b       9.74002
_cell_length_c       7.48396
_cell_angle_alpha    90
_cell_angle_beta     115.415
_cell_angle_gamma    90

_space_group_name_H-M_alt    "P 1"
_space_group_IT_number       1

loop_
  _space_group_symop_operation_xyz
  'x, y, z'

loop_
  _atom_site_type_symbol
  _atom_site_label
  _atom_site_symmetry_multiplicity
  _atom_site_fract_x
  _atom_site_fract_y
  _atom_site_fract_z
  _atom_site_occupancy
  Ba  Ba1       1.0  0.41800  0.39900  0.22500  1.0000
  Ba  Ba2       1.0  0.58200  0.89900  0.27500  1.0000
  Ba  Ba3       1.0  0.41800  0.10100  0.72500  1.0000
  Ba  Ba4       1.0  0.58200  0.60100  0.77500  1.0000
  Ga  Ga1       1.0  0.06060  0.71200  0.12600  1.0000
  Ga  Ga2       1.0  0.06040  0.01230  0.23800  1.0000
  Ga  Ga3       1.0  0.94000  0.51200  0.26200  1.0000
  Ga  Ga4       1.0  0.93900  0.21200  0.37400  1.0000
  Ga  Ga5       1.0  0.06060  0.78800  0.62600  1.0000
  Ga  Ga6       1.0  0.06040  0.48800  0.73800  1.0000
  Ga  Ga7       1.0  0.94000  0.98800  0.76200  1.0000
  Ga  Ga8       1.0  0.93900  0.28800  0.87400  1.0000
  P   P1        1.0  0.20600  0.11300  0.03180  1.0000
  P   P2        1.0  0.73600  0.32100  0.05400  1.0000
  P   P3        1.0  0.26400  0.82100  0.44600  1.0000
  P   P4        1.0  0.79400  0.61300  0.46800  1.0000
  P   P5        1.0  0.20600  0.38700  0.53200  1.0000
  P   P6        1.0  0.73600  0.17900  0.55400  1.0000
  P   P7        1.0  0.26400  0.67900  0.94600  1.0000
  P   P8        1.0  0.79400  0.88700  0.96800  1.0000
