data_image0
_chemical_formula_structural       Na8O10Te2
_chemical_formula_sum              "Na8 O10 Te2"
_cell_length_a       5.67439
_cell_length_b       8.47107
_cell_length_c       5.63698
_cell_angle_alpha    101.497
_cell_angle_beta     102.309
_cell_angle_gamma    108.925

_space_group_name_H-M_alt    "P 1"
_space_group_IT_number       1

loop_
  _space_group_symop_operation_xyz
  'x, y, z'

loop_
  _atom_site_type_symbol
  _atom_site_label
  _atom_site_symmetry_multiplicity
  _atom_site_fract_x
  _atom_site_fract_y
  _atom_site_fract_z
  _atom_site_occupancy
  Na  Na1       1.0  1.00000  0.50000  1.00000  1.0000
  Na  Na2       1.0  0.42200  0.90200  0.21500  1.0000
  Na  Na3       1.0  0.60200  0.59800  0.29600  1.0000
  Na  Na4       1.0  0.80100  0.30600  0.42500  1.0000
  Na  Na5       1.0  0.00000  0.00000  0.50000  1.0000
  Na  Na6       1.0  0.19900  0.69400  0.57500  1.0000
  Na  Na7       1.0  0.39800  0.40200  0.70400  1.0000
  Na  Na8       1.0  0.57800  0.09820  0.78500  1.0000
  O   O1        1.0  0.52900  0.31600  0.05700  1.0000
  O   O2        1.0  0.84100  0.03890  0.11600  1.0000
  O   O3        1.0  0.98400  0.75900  0.19800  1.0000
  O   O4        1.0  0.17700  0.40600  0.31600  1.0000
  O   O5        1.0  0.37000  0.15500  0.40000  1.0000
  O   O6        1.0  0.63000  0.84500  0.60000  1.0000
  O   O7        1.0  0.82300  0.59400  0.68400  1.0000
  O   O8        1.0  0.01580  0.24100  0.80200  1.0000
  O   O9        1.0  0.15900  0.96100  0.88400  1.0000
  O   O10       1.0  0.47100  0.68400  0.94300  1.0000
  Te  Te1       1.0  0.19800  0.20500  0.10600  1.0000
  Te  Te2       1.0  0.80200  0.79500  0.89400  1.0000
