data_image0
_chemical_formula_structural       Rh4Sn16
_chemical_formula_sum              "Rh4 Sn16"
_cell_length_a       12.4291
_cell_length_b       6.35625
_cell_length_c       6.35625
_cell_angle_alpha    90
_cell_angle_beta     104.815
_cell_angle_gamma    104.815

_space_group_name_H-M_alt    "P 1"
_space_group_IT_number       1

loop_
  _space_group_symop_operation_xyz
  'x, y, z'

loop_
  _atom_site_type_symbol
  _atom_site_label
  _atom_site_symmetry_multiplicity
  _atom_site_fract_x
  _atom_site_fract_y
  _atom_site_fract_z
  _atom_site_occupancy
  Rh  Rh1       1.0  0.75000  0.87500  0.12500  1.0000
  Rh  Rh2       1.0  0.25000  0.62500  0.37500  1.0000
  Rh  Rh3       1.0  0.75000  0.37500  0.62500  1.0000
  Rh  Rh4       1.0  0.25000  0.12500  0.87500  1.0000
  Sn  Sn1       1.0  0.87700  0.26300  0.01210  1.0000
  Sn  Sn2       1.0  0.37700  0.51200  0.11300  1.0000
  Sn  Sn3       1.0  0.12300  0.23700  0.13500  1.0000
  Sn  Sn4       1.0  0.62300  0.13500  0.23700  1.0000
  Sn  Sn5       1.0  0.37700  0.01210  0.26300  1.0000
  Sn  Sn6       1.0  0.87700  0.61300  0.36500  1.0000
  Sn  Sn7       1.0  0.62300  0.63500  0.38700  1.0000
  Sn  Sn8       1.0  0.12300  0.88700  0.48800  1.0000
  Sn  Sn9       1.0  0.87700  0.11300  0.51200  1.0000
  Sn  Sn10      1.0  0.37700  0.36500  0.61300  1.0000
  Sn  Sn11      1.0  0.12300  0.38700  0.63500  1.0000
  Sn  Sn12      1.0  0.62300  0.98800  0.73700  1.0000
  Sn  Sn13      1.0  0.37700  0.86500  0.76300  1.0000
  Sn  Sn14      1.0  0.87700  0.76300  0.86500  1.0000
  Sn  Sn15      1.0  0.62300  0.48800  0.88700  1.0000
  Sn  Sn16      1.0  0.12300  0.73700  0.98800  1.0000
