data_image0
_chemical_formula_structural       B8Mo2
_chemical_formula_sum              "B8 Mo2"
_cell_length_a       2.9455
_cell_length_b       2.94542
_cell_length_c       10.9778
_cell_angle_alpha    90
_cell_angle_beta     90
_cell_angle_gamma    120.001

_space_group_name_H-M_alt    "P 1"
_space_group_IT_number       1

loop_
  _space_group_symop_operation_xyz
  'x, y, z'

loop_
  _atom_site_type_symbol
  _atom_site_label
  _atom_site_symmetry_multiplicity
  _atom_site_fract_x
  _atom_site_fract_y
  _atom_site_fract_z
  _atom_site_occupancy
  B   B1        1.0  0.66700  0.33300  0.04480  1.0000
  B   B2        1.0  0.33300  0.66700  0.11100  1.0000
  B   B3        1.0  0.33300  0.66700  0.38900  1.0000
  B   B4        1.0  0.66700  0.33300  0.45500  1.0000
  B   B5        1.0  0.33300  0.66700  0.54500  1.0000
  B   B6        1.0  0.66700  0.33300  0.61100  1.0000
  B   B7        1.0  0.66700  0.33300  0.88900  1.0000
  B   B8        1.0  0.33300  0.66700  0.95500  1.0000
  Mo  Mo1       1.0  0.66700  0.33300  0.25000  1.0000
  Mo  Mo2       1.0  0.33300  0.66700  0.75000  1.0000
