data_image0
_chemical_formula_structural       Ba4F4Sb4Se8
_chemical_formula_sum              "Ba4 F4 Sb4 Se8"
_cell_length_a       6.22465
_cell_length_b       6.33979
_cell_length_c       13.8765
_cell_angle_alpha    85.3219
_cell_angle_beta     85.2978
_cell_angle_gamma    89.8612

_space_group_name_H-M_alt    "P 1"
_space_group_IT_number       1

loop_
  _space_group_symop_operation_xyz
  'x, y, z'

loop_
  _atom_site_type_symbol
  _atom_site_label
  _atom_site_symmetry_multiplicity
  _atom_site_fract_x
  _atom_site_fract_y
  _atom_site_fract_z
  _atom_site_occupancy
  Ba  Ba1       1.0  0.27300  0.52400  0.38900  1.0000
  Ba  Ba2       1.0  0.77300  0.01500  0.39100  1.0000
  Ba  Ba3       1.0  0.22700  0.98500  0.60900  1.0000
  Ba  Ba4       1.0  0.72700  0.47600  0.61100  1.0000
  F   F1        1.0  0.00000  0.25400  0.49800  1.0000
  F   F2        1.0  0.50000  0.24900  0.49800  1.0000
  F   F3        1.0  0.50000  0.75100  0.50200  1.0000
  F   F4        1.0  0.00014  0.74600  0.50200  1.0000
  Sb  Sb1       1.0  0.77200  0.62200  0.12000  1.0000
  Sb  Sb2       1.0  0.26700  0.02990  0.12000  1.0000
  Sb  Sb3       1.0  0.73300  0.97000  0.88000  1.0000
  Sb  Sb4       1.0  0.22800  0.37800  0.88000  1.0000
  Se  Se1       1.0  0.34200  0.62000  0.11400  1.0000
  Se  Se2       1.0  0.83500  0.03490  0.12600  1.0000
  Se  Se3       1.0  0.79000  0.52800  0.30000  1.0000
  Se  Se4       1.0  0.29100  0.04250  0.30100  1.0000
  Se  Se5       1.0  0.70900  0.95700  0.69900  1.0000
  Se  Se6       1.0  0.21000  0.47200  0.70000  1.0000
  Se  Se7       1.0  0.16500  0.96500  0.87400  1.0000
  Se  Se8       1.0  0.65800  0.38000  0.88600  1.0000
