data_image0
_chemical_formula_structural       Ag4Cu4F12
_chemical_formula_sum              "Ag4 Cu4 F12"
_cell_length_a       5.52015
_cell_length_b       5.50885
_cell_length_c       7.89156
_cell_angle_alpha    89.8595
_cell_angle_beta     90.4349
_cell_angle_gamma    91.8473

_space_group_name_H-M_alt    "P 1"
_space_group_IT_number       1

loop_
  _space_group_symop_operation_xyz
  'x, y, z'

loop_
  _atom_site_type_symbol
  _atom_site_label
  _atom_site_symmetry_multiplicity
  _atom_site_fract_x
  _atom_site_fract_y
  _atom_site_fract_z
  _atom_site_occupancy
  Ag  Ag1       1.0  0.50600  0.52700  0.24900  1.0000
  Ag  Ag2       1.0  0.99500  0.02670  0.25100  1.0000
  Ag  Ag3       1.0  0.00474  0.97300  0.74900  1.0000
  Ag  Ag4       1.0  0.49400  0.47300  0.75100  1.0000
  Cu  Cu1       1.0  1.00000  0.50000  1.00000  1.0000
  Cu  Cu2       1.0  0.50000  0.00000  1.00000  1.0000
  Cu  Cu3       1.0  0.00000  0.50000  0.50000  1.0000
  Cu  Cu4       1.0  0.50000  0.00000  0.50000  1.0000
  F   F1        1.0  0.78700  0.78700  0.02950  1.0000
  F   F2        1.0  0.71300  0.28700  0.04020  1.0000
  F   F3        1.0  0.43300  0.98300  0.24900  1.0000
  F   F4        1.0  0.06810  0.50200  0.25000  1.0000
  F   F5        1.0  0.71400  0.28600  0.45900  1.0000
  F   F6        1.0  0.78600  0.78500  0.47000  1.0000
  F   F7        1.0  0.21400  0.21500  0.53000  1.0000
  F   F8        1.0  0.28600  0.71400  0.54100  1.0000
  F   F9        1.0  0.93200  0.49800  0.75000  1.0000
  F   F10       1.0  0.56700  0.01680  0.75100  1.0000
  F   F11       1.0  0.28700  0.71300  0.96000  1.0000
  F   F12       1.0  0.21300  0.21300  0.97000  1.0000
