data_image0
_chemical_formula_structural       Cl12Nb4Se4
_chemical_formula_sum              "Cl12 Nb4 Se4"
_cell_length_a       6.37021
_cell_length_b       6.82234
_cell_length_c       12.068
_cell_angle_alpha    90
_cell_angle_beta     98.8482
_cell_angle_gamma    90

_space_group_name_H-M_alt    "P 1"
_space_group_IT_number       1

loop_
  _space_group_symop_operation_xyz
  'x, y, z'

loop_
  _atom_site_type_symbol
  _atom_site_label
  _atom_site_symmetry_multiplicity
  _atom_site_fract_x
  _atom_site_fract_y
  _atom_site_fract_z
  _atom_site_occupancy
  Cl  Cl1       1.0  0.15500  0.67600  0.04270  1.0000
  Cl  Cl2       1.0  0.35700  0.21000  0.06960  1.0000
  Cl  Cl3       1.0  0.75300  0.55200  0.19700  1.0000
  Cl  Cl4       1.0  0.24700  0.55200  0.30300  1.0000
  Cl  Cl5       1.0  0.64300  0.21000  0.43000  1.0000
  Cl  Cl6       1.0  0.84500  0.67600  0.45700  1.0000
  Cl  Cl7       1.0  0.15500  0.32400  0.54300  1.0000
  Cl  Cl8       1.0  0.35700  0.79000  0.57000  1.0000
  Cl  Cl9       1.0  0.75300  0.44800  0.69700  1.0000
  Cl  Cl10      1.0  0.24700  0.44800  0.80300  1.0000
  Cl  Cl11      1.0  0.64300  0.79000  0.93000  1.0000
  Cl  Cl12      1.0  0.84500  0.32400  0.95700  1.0000
  Nb  Nb1       1.0  0.07310  0.35700  0.14600  1.0000
  Nb  Nb2       1.0  0.92700  0.35700  0.35400  1.0000
  Nb  Nb3       1.0  0.07310  0.64300  0.64600  1.0000
  Nb  Nb4       1.0  0.92700  0.64300  0.85400  1.0000
  Se  Se1       1.0  0.82900  0.07710  0.19800  1.0000
  Se  Se2       1.0  0.17100  0.07710  0.30200  1.0000
  Se  Se3       1.0  0.82900  0.92300  0.69800  1.0000
  Se  Se4       1.0  0.17100  0.92300  0.80200  1.0000
