data_image0
_chemical_formula_structural       As6Cs12In2
_chemical_formula_sum              "As6 Cs12 In2"
_cell_length_a       10.675
_cell_length_b       6.43434
_cell_length_c       12.376
_cell_angle_alpha    90
_cell_angle_beta     101.524
_cell_angle_gamma    90

_space_group_name_H-M_alt    "P 1"
_space_group_IT_number       1

loop_
  _space_group_symop_operation_xyz
  'x, y, z'

loop_
  _atom_site_type_symbol
  _atom_site_label
  _atom_site_symmetry_multiplicity
  _atom_site_fract_x
  _atom_site_fract_y
  _atom_site_fract_z
  _atom_site_occupancy
  As  As1       1.0  0.81400  0.25000  0.12100  1.0000
  As  As2       1.0  0.42000  0.25000  0.22800  1.0000
  As  As3       1.0  0.79000  0.25000  0.48800  1.0000
  As  As4       1.0  0.21000  0.75000  0.51200  1.0000
  As  As5       1.0  0.58000  0.75000  0.77200  1.0000
  As  As6       1.0  0.18600  0.75000  0.87900  1.0000
  Cs  Cs1       1.0  0.13200  0.25000  0.01630  1.0000
  Cs  Cs2       1.0  0.53700  0.75000  0.07350  1.0000
  Cs  Cs3       1.0  0.25100  0.75000  0.22000  1.0000
  Cs  Cs4       1.0  0.88300  0.75000  0.32600  1.0000
  Cs  Cs5       1.0  0.09010  0.25000  0.36300  1.0000
  Cs  Cs6       1.0  0.55700  0.75000  0.45700  1.0000
  Cs  Cs7       1.0  0.44300  0.25000  0.54300  1.0000
  Cs  Cs8       1.0  0.91000  0.75000  0.63700  1.0000
  Cs  Cs9       1.0  0.11700  0.25000  0.67400  1.0000
  Cs  Cs10      1.0  0.74900  0.25000  0.78000  1.0000
  Cs  Cs11      1.0  0.46300  0.25000  0.92600  1.0000
  Cs  Cs12      1.0  0.86800  0.75000  0.98400  1.0000
  In  In1       1.0  0.67200  0.25000  0.27700  1.0000
  In  In2       1.0  0.32800  0.75000  0.72300  1.0000
