data_image0
_chemical_formula_structural       Ca2O12Re2Sr4
_chemical_formula_sum              "Ca2 O12 Re2 Sr4"
_cell_length_a       5.74579
_cell_length_b       5.8319
_cell_length_c       8.16004
_cell_angle_alpha    90
_cell_angle_beta     90.2985
_cell_angle_gamma    90

_space_group_name_H-M_alt    "P 1"
_space_group_IT_number       1

loop_
  _space_group_symop_operation_xyz
  'x, y, z'

loop_
  _atom_site_type_symbol
  _atom_site_label
  _atom_site_symmetry_multiplicity
  _atom_site_fract_x
  _atom_site_fract_y
  _atom_site_fract_z
  _atom_site_occupancy
  Ca  Ca1       1.0  0.50000  0.00000  0.00000  1.0000
  Ca  Ca2       1.0  1.00000  0.50000  0.50000  1.0000
  O   O1        1.0  0.27000  0.30900  0.04070  1.0000
  O   O2        1.0  0.18600  0.77000  0.04540  1.0000
  O   O3        1.0  0.91800  0.47800  0.22900  1.0000
  O   O4        1.0  0.58200  0.97800  0.27100  1.0000
  O   O5        1.0  0.31400  0.27000  0.45500  1.0000
  O   O6        1.0  0.23000  0.80900  0.45900  1.0000
  O   O7        1.0  0.77000  0.19100  0.54100  1.0000
  O   O8        1.0  0.68600  0.73000  0.54500  1.0000
  O   O9        1.0  0.41800  0.02190  0.72900  1.0000
  O   O10       1.0  0.08160  0.52200  0.77100  1.0000
  O   O11       1.0  0.81400  0.23000  0.95500  1.0000
  O   O12       1.0  0.73000  0.69100  0.95900  1.0000
  Re  Re1       1.0  0.00000  0.50000  0.00000  1.0000
  Re  Re2       1.0  0.50000  0.00000  0.50000  1.0000
  Sr  Sr1       1.0  0.49100  0.54200  0.25000  1.0000
  Sr  Sr2       1.0  0.00896  0.04190  0.25000  1.0000
  Sr  Sr3       1.0  0.99100  0.95800  0.75000  1.0000
  Sr  Sr4       1.0  0.50900  0.45800  0.75000  1.0000
