data_image0
_chemical_formula_structural       Bi2K2P4S12
_chemical_formula_sum              "Bi2 K2 P4 S12"
_cell_length_a       6.69672
_cell_length_b       7.50297
_cell_length_c       9.95957
_cell_angle_alpha    90
_cell_angle_beta     92.0985
_cell_angle_gamma    90

_space_group_name_H-M_alt    "P 1"
_space_group_IT_number       1

loop_
  _space_group_symop_operation_xyz
  'x, y, z'

loop_
  _atom_site_type_symbol
  _atom_site_label
  _atom_site_symmetry_multiplicity
  _atom_site_fract_x
  _atom_site_fract_y
  _atom_site_fract_z
  _atom_site_occupancy
  Bi  Bi1       1.0  0.21300  0.27800  0.01590  1.0000
  Bi  Bi2       1.0  0.78700  0.77800  0.98400  1.0000
  K   K1        1.0  0.29900  0.52500  0.49800  1.0000
  K   K2        1.0  0.70100  0.02520  0.50200  1.0000
  P   P1        1.0  0.31300  0.81400  0.17100  1.0000
  P   P2        1.0  0.20200  0.04100  0.29900  1.0000
  P   P3        1.0  0.79800  0.54100  0.70100  1.0000
  P   P4        1.0  0.68700  0.31400  0.82900  1.0000
  S   S1        1.0  0.65300  0.42900  0.01600  1.0000
  S   S2        1.0  0.09080  0.62500  0.17100  1.0000
  S   S3        1.0  0.94900  0.12000  0.19000  1.0000
  S   S4        1.0  0.57600  0.72800  0.25100  1.0000
  S   S5        1.0  0.41200  0.23300  0.27000  1.0000
  S   S6        1.0  0.17700  0.95900  0.48600  1.0000
  S   S7        1.0  0.82300  0.45900  0.51400  1.0000
  S   S8        1.0  0.58800  0.73300  0.73000  1.0000
  S   S9        1.0  0.42400  0.22800  0.74900  1.0000
  S   S10       1.0  0.05070  0.62000  0.81000  1.0000
  S   S11       1.0  0.90900  0.12500  0.82900  1.0000
  S   S12       1.0  0.34700  0.92900  0.98400  1.0000
