data_image0
_chemical_formula_structural       Ce4S12Sc4
_chemical_formula_sum              "Ce4 S12 Sc4"
_cell_length_a       7.22088
_cell_length_b       6.52972
_cell_length_c       9.63536
_cell_angle_alpha    90
_cell_angle_beta     90
_cell_angle_gamma    90

_space_group_name_H-M_alt    "P 1"
_space_group_IT_number       1

loop_
  _space_group_symop_operation_xyz
  'x, y, z'

loop_
  _atom_site_type_symbol
  _atom_site_label
  _atom_site_symmetry_multiplicity
  _atom_site_fract_x
  _atom_site_fract_y
  _atom_site_fract_z
  _atom_site_occupancy
  Ce  Ce1       1.0  0.09780  0.03600  0.00896  1.0000
  Ce  Ce2       1.0  0.90200  0.96400  0.50900  1.0000
  Ce  Ce3       1.0  0.40200  0.53600  0.50900  1.0000
  Ce  Ce4       1.0  0.59800  0.46400  0.00896  1.0000
  S   S1        1.0  0.03020  0.38000  0.50900  1.0000
  S   S2        1.0  0.97000  0.62000  0.00907  1.0000
  S   S3        1.0  0.47000  0.88000  0.00907  1.0000
  S   S4        1.0  0.53000  0.12000  0.50900  1.0000
  S   S5        1.0  0.31300  0.32200  0.81800  1.0000
  S   S6        1.0  0.68700  0.67800  0.31800  1.0000
  S   S7        1.0  0.18700  0.82200  0.31800  1.0000
  S   S8        1.0  0.81300  0.17800  0.81800  1.0000
  S   S9        1.0  0.31200  0.32200  0.20000  1.0000
  S   S10       1.0  0.68800  0.67800  0.70000  1.0000
  S   S11       1.0  0.18800  0.82200  0.70000  1.0000
  S   S12       1.0  0.81200  0.17800  0.20000  1.0000
  Sc  Sc1       1.0  0.00040  0.50000  0.75900  1.0000
  Sc  Sc2       1.0  0.00000  0.50000  0.25900  1.0000
  Sc  Sc3       1.0  0.50000  0.00016  0.25900  1.0000
  Sc  Sc4       1.0  0.50000  0.00000  0.75900  1.0000
