data_image0
_chemical_formula_structural       Bi4Cl4Mn4S8
_chemical_formula_sum              "Bi4 Cl4 Mn4 S8"
_cell_length_a       9.4104
_cell_length_b       3.87985
_cell_length_c       12.3644
_cell_angle_alpha    90
_cell_angle_beta     90
_cell_angle_gamma    90

_space_group_name_H-M_alt    "P 1"
_space_group_IT_number       1

loop_
  _space_group_symop_operation_xyz
  'x, y, z'

loop_
  _atom_site_type_symbol
  _atom_site_label
  _atom_site_symmetry_multiplicity
  _atom_site_fract_x
  _atom_site_fract_y
  _atom_site_fract_z
  _atom_site_occupancy
  Bi  Bi1       1.0  0.79900  0.75000  0.02910  1.0000
  Bi  Bi2       1.0  0.29900  0.75000  0.47100  1.0000
  Bi  Bi3       1.0  0.70100  0.25000  0.52900  1.0000
  Bi  Bi4       1.0  0.20100  0.25000  0.97100  1.0000
  Cl  Cl1       1.0  0.43600  0.75000  0.11400  1.0000
  Cl  Cl2       1.0  0.93600  0.75000  0.38600  1.0000
  Cl  Cl3       1.0  0.06410  0.25000  0.61400  1.0000
  Cl  Cl4       1.0  0.56400  0.25000  0.88600  1.0000
  Mn  Mn1       1.0  0.49600  0.25000  0.24200  1.0000
  Mn  Mn2       1.0  0.99600  0.25000  0.25800  1.0000
  Mn  Mn3       1.0  0.00409  0.75000  0.74200  1.0000
  Mn  Mn4       1.0  0.50400  0.75000  0.75800  1.0000
  S   S1        1.0  0.05200  0.75000  0.11800  1.0000
  S   S2        1.0  0.74900  0.25000  0.17800  1.0000
  S   S3        1.0  0.24900  0.25000  0.32200  1.0000
  S   S4        1.0  0.55200  0.75000  0.38200  1.0000
  S   S5        1.0  0.44800  0.25000  0.61800  1.0000
  S   S6        1.0  0.75100  0.75000  0.67800  1.0000
  S   S7        1.0  0.25100  0.75000  0.82200  1.0000
  S   S8        1.0  0.94800  0.25000  0.88200  1.0000
