data_image0
_chemical_formula_structural       Os6Th14
_chemical_formula_sum              "Os6 Th14"
_cell_length_a       10.0354
_cell_length_b       10.0354
_cell_length_c       6.33519
_cell_angle_alpha    90
_cell_angle_beta     90
_cell_angle_gamma    120

_space_group_name_H-M_alt    "P 1"
_space_group_IT_number       1

loop_
  _space_group_symop_operation_xyz
  'x, y, z'

loop_
  _atom_site_type_symbol
  _atom_site_label
  _atom_site_symmetry_multiplicity
  _atom_site_fract_x
  _atom_site_fract_y
  _atom_site_fract_z
  _atom_site_occupancy
  Os  Os1       1.0  0.81300  0.62600  0.05010  1.0000
  Os  Os2       1.0  0.37400  0.18700  0.05010  1.0000
  Os  Os3       1.0  0.81300  0.18700  0.05010  1.0000
  Os  Os4       1.0  0.18700  0.37400  0.55000  1.0000
  Os  Os5       1.0  0.18700  0.81300  0.55000  1.0000
  Os  Os6       1.0  0.62600  0.81300  0.55000  1.0000
  Th  Th1       1.0  0.12600  0.25300  0.00241  1.0000
  Th  Th2       1.0  0.12600  0.87400  0.00241  1.0000
  Th  Th3       1.0  0.74700  0.87400  0.00241  1.0000
  Th  Th4       1.0  0.66700  0.33300  0.28600  1.0000
  Th  Th5       1.0  0.07970  0.54000  0.30000  1.0000
  Th  Th6       1.0  0.46000  0.54000  0.30000  1.0000
  Th  Th7       1.0  0.46000  0.92000  0.30000  1.0000
  Th  Th8       1.0  0.25300  0.12600  0.50200  1.0000
  Th  Th9       1.0  0.87400  0.12600  0.50200  1.0000
  Th  Th10      1.0  0.87400  0.74700  0.50200  1.0000
  Th  Th11      1.0  0.33300  0.66700  0.78600  1.0000
  Th  Th12      1.0  0.54000  0.46000  0.80000  1.0000
  Th  Th13      1.0  0.92000  0.46000  0.80000  1.0000
  Th  Th14      1.0  0.54000  0.07970  0.80000  1.0000
