data_image0
_chemical_formula_structural       Ag2O12Tl2V4
_chemical_formula_sum              "Ag2 O12 Tl2 V4"
_cell_length_a       5.83598
_cell_length_b       7.34985
_cell_length_c       7.34985
_cell_angle_alpha    92.8236
_cell_angle_beta     99.1968
_cell_angle_gamma    80.8032

_space_group_name_H-M_alt    "P 1"
_space_group_IT_number       1

loop_
  _space_group_symop_operation_xyz
  'x, y, z'

loop_
  _atom_site_type_symbol
  _atom_site_label
  _atom_site_symmetry_multiplicity
  _atom_site_fract_x
  _atom_site_fract_y
  _atom_site_fract_z
  _atom_site_occupancy
  Ag  Ag1       1.0  0.25000  0.10600  0.10600  1.0000
  Ag  Ag2       1.0  0.75000  0.89400  0.89400  1.0000
  O   O1        1.0  0.15400  0.79900  0.04410  1.0000
  O   O2        1.0  0.27100  0.42300  0.09700  1.0000
  O   O3        1.0  0.65400  0.95600  0.20100  1.0000
  O   O4        1.0  0.97900  0.64100  0.33400  1.0000
  O   O5        1.0  0.47900  0.66600  0.35900  1.0000
  O   O6        1.0  0.22900  0.09700  0.42300  1.0000
  O   O7        1.0  0.77100  0.90300  0.57700  1.0000
  O   O8        1.0  0.52100  0.33400  0.64100  1.0000
  O   O9        1.0  0.02100  0.35900  0.66600  1.0000
  O   O10       1.0  0.34600  0.04410  0.79900  1.0000
  O   O11       1.0  0.72900  0.57700  0.90300  1.0000
  O   O12       1.0  0.84600  0.20100  0.95600  1.0000
  Tl  Tl1       1.0  0.75000  0.29400  0.29400  1.0000
  Tl  Tl2       1.0  0.25000  0.70600  0.70600  1.0000
  V   V1        1.0  0.21700  0.63000  0.20000  1.0000
  V   V2        1.0  0.71700  0.80000  0.37000  1.0000
  V   V3        1.0  0.28300  0.20000  0.63000  1.0000
  V   V4        1.0  0.78300  0.37000  0.80000  1.0000
