data_image0
_chemical_formula_structural       Er2Mo2O12Sr4
_chemical_formula_sum              "Er2 Mo2 O12 Sr4"
_cell_length_a       5.77366
_cell_length_b       5.81338
_cell_length_c       8.17573
_cell_angle_alpha    90
_cell_angle_beta     90.2886
_cell_angle_gamma    90

_space_group_name_H-M_alt    "P 1"
_space_group_IT_number       1

loop_
  _space_group_symop_operation_xyz
  'x, y, z'

loop_
  _atom_site_type_symbol
  _atom_site_label
  _atom_site_symmetry_multiplicity
  _atom_site_fract_x
  _atom_site_fract_y
  _atom_site_fract_z
  _atom_site_occupancy
  Er  Er1       1.0  0.50000  0.00000  1.00000  1.0000
  Er  Er2       1.0  1.00000  0.50000  0.50000  1.0000
  Mo  Mo1       1.0  0.00000  0.50000  0.00000  1.0000
  Mo  Mo2       1.0  0.50000  0.00000  0.50000  1.0000
  O   O1        1.0  0.27200  0.30000  0.03730  1.0000
  O   O2        1.0  0.19900  0.77400  0.04120  1.0000
  O   O3        1.0  0.92600  0.48300  0.23600  1.0000
  O   O4        1.0  0.57400  0.98300  0.26400  1.0000
  O   O5        1.0  0.30100  0.27400  0.45900  1.0000
  O   O6        1.0  0.22800  0.80000  0.46300  1.0000
  O   O7        1.0  0.77200  0.20000  0.53700  1.0000
  O   O8        1.0  0.69900  0.72600  0.54100  1.0000
  O   O9        1.0  0.42600  0.01700  0.73600  1.0000
  O   O10       1.0  0.07400  0.51700  0.76400  1.0000
  O   O11       1.0  0.80100  0.22600  0.95900  1.0000
  O   O12       1.0  0.72800  0.70000  0.96300  1.0000
  Sr  Sr1       1.0  0.00698  0.03400  0.25000  1.0000
  Sr  Sr2       1.0  0.49300  0.53400  0.25000  1.0000
  Sr  Sr3       1.0  0.50700  0.46600  0.75000  1.0000
  Sr  Sr4       1.0  0.99300  0.96600  0.75000  1.0000
