data_image0
_chemical_formula_structural       Ba4Hg8Tl8
_chemical_formula_sum              "Ba4 Hg8 Tl8"
_cell_length_a       10.7536
_cell_length_b       10.7536
_cell_length_c       5.20227
_cell_angle_alpha    90
_cell_angle_beta     90
_cell_angle_gamma    90

_space_group_name_H-M_alt    "P 1"
_space_group_IT_number       1

loop_
  _space_group_symop_operation_xyz
  'x, y, z'

loop_
  _atom_site_type_symbol
  _atom_site_label
  _atom_site_symmetry_multiplicity
  _atom_site_fract_x
  _atom_site_fract_y
  _atom_site_fract_z
  _atom_site_occupancy
  Ba  Ba1       1.0  0.85100  0.14900  0.00000  1.0000
  Ba  Ba2       1.0  0.14900  0.85100  0.00000  1.0000
  Ba  Ba3       1.0  0.35100  0.35100  0.50000  1.0000
  Ba  Ba4       1.0  0.64900  0.64900  0.50000  1.0000
  Hg  Hg1       1.0  0.18500  0.18500  0.00000  1.0000
  Hg  Hg2       1.0  0.59500  0.40500  0.00000  1.0000
  Hg  Hg3       1.0  0.40500  0.59500  0.00000  1.0000
  Hg  Hg4       1.0  0.81500  0.81500  0.00000  1.0000
  Hg  Hg5       1.0  0.09530  0.09530  0.50000  1.0000
  Hg  Hg6       1.0  0.68500  0.31500  0.50000  1.0000
  Hg  Hg7       1.0  0.31500  0.68500  0.50000  1.0000
  Hg  Hg8       1.0  0.90500  0.90500  0.50000  1.0000
  Tl  Tl1       1.0  0.47100  0.14200  0.00000  1.0000
  Tl  Tl2       1.0  0.14200  0.47100  0.00000  1.0000
  Tl  Tl3       1.0  0.85800  0.52900  0.00000  1.0000
  Tl  Tl4       1.0  0.52900  0.85800  0.00000  1.0000
  Tl  Tl5       1.0  0.64200  0.02900  0.50000  1.0000
  Tl  Tl6       1.0  0.97100  0.35800  0.50000  1.0000
  Tl  Tl7       1.0  0.02900  0.64200  0.50000  1.0000
  Tl  Tl8       1.0  0.35800  0.97100  0.50000  1.0000
