data_image0
_chemical_formula_structural       Ag8Hg4O8
_chemical_formula_sum              "Ag8 Hg4 O8"
_cell_length_a       6.18208
_cell_length_b       6.18208
_cell_length_c       8.50623
_cell_angle_alpha    90
_cell_angle_beta     90
_cell_angle_gamma    90

_space_group_name_H-M_alt    "P 1"
_space_group_IT_number       1

loop_
  _space_group_symop_operation_xyz
  'x, y, z'

loop_
  _atom_site_type_symbol
  _atom_site_label
  _atom_site_symmetry_multiplicity
  _atom_site_fract_x
  _atom_site_fract_y
  _atom_site_fract_z
  _atom_site_occupancy
  Ag  Ag1       1.0  0.00161  0.24400  0.12200  1.0000
  Ag  Ag2       1.0  0.50200  0.25600  0.12800  1.0000
  Ag  Ag3       1.0  0.74400  0.49800  0.37200  1.0000
  Ag  Ag4       1.0  0.75600  0.99800  0.37800  1.0000
  Ag  Ag5       1.0  0.99800  0.75600  0.62200  1.0000
  Ag  Ag6       1.0  0.49800  0.74400  0.62800  1.0000
  Ag  Ag7       1.0  0.25600  0.50200  0.87200  1.0000
  Ag  Ag8       1.0  0.24400  0.00161  0.87800  1.0000
  Hg  Hg1       1.0  0.79100  0.79100  0.00000  1.0000
  Hg  Hg2       1.0  0.29100  0.70900  0.25000  1.0000
  Hg  Hg3       1.0  0.20900  0.20900  0.50000  1.0000
  Hg  Hg4       1.0  0.70900  0.29100  0.75000  1.0000
  O   O1        1.0  0.38600  0.75300  0.01640  1.0000
  O   O2        1.0  0.88600  0.74700  0.23400  1.0000
  O   O3        1.0  0.25300  0.11400  0.26600  1.0000
  O   O4        1.0  0.24700  0.61400  0.48400  1.0000
  O   O5        1.0  0.61400  0.24700  0.51600  1.0000
  O   O6        1.0  0.11400  0.25300  0.73400  1.0000
  O   O7        1.0  0.74700  0.88600  0.76600  1.0000
  O   O8        1.0  0.75300  0.38600  0.98400  1.0000
