data_image0
_chemical_formula_structural       Au8Ba4In8
_chemical_formula_sum              "Au8 Ba4 In8"
_cell_length_a       8.88335
_cell_length_b       4.77956
_cell_length_c       12.5179
_cell_angle_alpha    90
_cell_angle_beta     90
_cell_angle_gamma    90

_space_group_name_H-M_alt    "P 1"
_space_group_IT_number       1

loop_
  _space_group_symop_operation_xyz
  'x, y, z'

loop_
  _atom_site_type_symbol
  _atom_site_label
  _atom_site_symmetry_multiplicity
  _atom_site_fract_x
  _atom_site_fract_y
  _atom_site_fract_z
  _atom_site_occupancy
  Au  Au1       1.0  0.09010  0.25000  0.02100  1.0000
  Au  Au2       1.0  0.47400  0.75000  0.16400  1.0000
  Au  Au3       1.0  0.97400  0.75000  0.33600  1.0000
  Au  Au4       1.0  0.59000  0.25000  0.47900  1.0000
  Au  Au5       1.0  0.41000  0.75000  0.52100  1.0000
  Au  Au6       1.0  0.02610  0.25000  0.66400  1.0000
  Au  Au7       1.0  0.52600  0.25000  0.83600  1.0000
  Au  Au8       1.0  0.91000  0.75000  0.97900  1.0000
  Ba  Ba1       1.0  0.78000  0.25000  0.16600  1.0000
  Ba  Ba2       1.0  0.28000  0.25000  0.33400  1.0000
  Ba  Ba3       1.0  0.72000  0.75000  0.66600  1.0000
  Ba  Ba4       1.0  0.22000  0.75000  0.83400  1.0000
  In  In1       1.0  0.39800  0.25000  0.04930  1.0000
  In  In2       1.0  0.14100  0.75000  0.14200  1.0000
  In  In3       1.0  0.64100  0.75000  0.35800  1.0000
  In  In4       1.0  0.89800  0.25000  0.45100  1.0000
  In  In5       1.0  0.10200  0.75000  0.54900  1.0000
  In  In6       1.0  0.35900  0.25000  0.64200  1.0000
  In  In7       1.0  0.85900  0.25000  0.85800  1.0000
  In  In8       1.0  0.60200  0.75000  0.95100  1.0000
