data_image0
_chemical_formula_structural       B4Be2Na4O10
_chemical_formula_sum              "B4 Be2 Na4 O10"
_cell_length_a       4.992
_cell_length_b       4.992
_cell_length_c       8.80731
_cell_angle_alpha    96.2486
_cell_angle_beta     96.2486
_cell_angle_gamma    109.467

_space_group_name_H-M_alt    "P 1"
_space_group_IT_number       1

loop_
  _space_group_symop_operation_xyz
  'x, y, z'

loop_
  _atom_site_type_symbol
  _atom_site_label
  _atom_site_symmetry_multiplicity
  _atom_site_fract_x
  _atom_site_fract_y
  _atom_site_fract_z
  _atom_site_occupancy
  B   B1        1.0  0.15800  0.17100  0.17600  1.0000
  B   B2        1.0  0.82900  0.84200  0.32400  1.0000
  B   B3        1.0  0.17100  0.15800  0.67600  1.0000
  B   B4        1.0  0.84200  0.82900  0.82400  1.0000
  Be  Be1       1.0  0.71000  0.29000  0.25000  1.0000
  Be  Be2       1.0  0.29000  0.71000  0.75000  1.0000
  Na  Na1       1.0  0.32200  0.70800  0.07580  1.0000
  Na  Na2       1.0  0.29200  0.67800  0.42400  1.0000
  Na  Na3       1.0  0.70800  0.32200  0.57600  1.0000
  Na  Na4       1.0  0.67800  0.29200  0.92400  1.0000
  O   O1        1.0  0.41900  0.24200  0.12600  1.0000
  O   O2        1.0  0.98300  0.32800  0.15800  1.0000
  O   O3        1.0  0.07440  0.92600  0.25000  1.0000
  O   O4        1.0  0.67200  0.01670  0.34200  1.0000
  O   O5        1.0  0.75800  0.58100  0.37400  1.0000
  O   O6        1.0  0.24200  0.41900  0.62600  1.0000
  O   O7        1.0  0.32800  0.98300  0.65800  1.0000
  O   O8        1.0  0.92600  0.07440  0.75000  1.0000
  O   O9        1.0  0.01670  0.67200  0.84200  1.0000
  O   O10       1.0  0.58100  0.75800  0.87400  1.0000
