data_image0
_chemical_formula_structural       B4Fe2Rh10Ti4
_chemical_formula_sum              "B4 Fe2 Rh10 Ti4"
_cell_length_a       8.96506
_cell_length_b       8.96506
_cell_length_c       3.1391
_cell_angle_alpha    90
_cell_angle_beta     90
_cell_angle_gamma    90

_space_group_name_H-M_alt    "P 1"
_space_group_IT_number       1

loop_
  _space_group_symop_operation_xyz
  'x, y, z'

loop_
  _atom_site_type_symbol
  _atom_site_label
  _atom_site_symmetry_multiplicity
  _atom_site_fract_x
  _atom_site_fract_y
  _atom_site_fract_z
  _atom_site_occupancy
  B   B1        1.0  0.62500  0.12500  0.00000  1.0000
  B   B2        1.0  0.12500  0.37500  0.00000  1.0000
  B   B3        1.0  0.87500  0.62500  0.00000  1.0000
  B   B4        1.0  0.37500  0.87500  0.00000  1.0000
  Fe  Fe1       1.0  0.00000  0.00000  0.00000  1.0000
  Fe  Fe2       1.0  0.50000  0.50000  0.00000  1.0000
  Rh  Rh1       1.0  0.50000  0.00000  0.50000  1.0000
  Rh  Rh2       1.0  0.78800  0.07500  0.50000  1.0000
  Rh  Rh3       1.0  0.07500  0.21200  0.50000  1.0000
  Rh  Rh4       1.0  0.57500  0.28800  0.50000  1.0000
  Rh  Rh5       1.0  0.28800  0.42500  0.50000  1.0000
  Rh  Rh6       1.0  0.00000  0.50000  0.50000  1.0000
  Rh  Rh7       1.0  0.71200  0.57500  0.50000  1.0000
  Rh  Rh8       1.0  0.42500  0.71200  0.50000  1.0000
  Rh  Rh9       1.0  0.92500  0.78800  0.50000  1.0000
  Rh  Rh10      1.0  0.21200  0.92500  0.50000  1.0000
  Ti  Ti1       1.0  0.32300  0.17700  0.00000  1.0000
  Ti  Ti2       1.0  0.82300  0.32300  0.00000  1.0000
  Ti  Ti3       1.0  0.17700  0.67700  0.00000  1.0000
  Ti  Ti4       1.0  0.67700  0.82300  0.00000  1.0000
