data_image0
_chemical_formula_structural       Ir2Li2O12Pr4
_chemical_formula_sum              "Ir2 Li2 O12 Pr4"
_cell_length_a       5.43391
_cell_length_b       5.72975
_cell_length_c       7.74997
_cell_angle_alpha    90
_cell_angle_beta     90.4175
_cell_angle_gamma    90

_space_group_name_H-M_alt    "P 1"
_space_group_IT_number       1

loop_
  _space_group_symop_operation_xyz
  'x, y, z'

loop_
  _atom_site_type_symbol
  _atom_site_label
  _atom_site_symmetry_multiplicity
  _atom_site_fract_x
  _atom_site_fract_y
  _atom_site_fract_z
  _atom_site_occupancy
  Ir  Ir1       1.0  0.50000  0.50000  1.00000  1.0000
  Ir  Ir2       1.0  1.00000  0.00000  0.50000  1.0000
  Li  Li1       1.0  0.00000  0.00000  0.00000  1.0000
  Li  Li2       1.0  0.50000  0.50000  0.50000  1.0000
  O   O1        1.0  0.20300  0.30500  0.04460  1.0000
  O   O2        1.0  0.31100  0.78800  0.04770  1.0000
  O   O3        1.0  0.58800  0.47800  0.24800  1.0000
  O   O4        1.0  0.91200  0.97800  0.25200  1.0000
  O   O5        1.0  0.18900  0.28800  0.45200  1.0000
  O   O6        1.0  0.29700  0.80500  0.45500  1.0000
  O   O7        1.0  0.70300  0.19500  0.54500  1.0000
  O   O8        1.0  0.81100  0.71200  0.54800  1.0000
  O   O9        1.0  0.08850  0.02220  0.74800  1.0000
  O   O10       1.0  0.41200  0.52200  0.75200  1.0000
  O   O11       1.0  0.68900  0.21200  0.95200  1.0000
  O   O12       1.0  0.79700  0.69500  0.95500  1.0000
  Pr  Pr1       1.0  0.01560  0.56600  0.24800  1.0000
  Pr  Pr2       1.0  0.48400  0.06640  0.25200  1.0000
  Pr  Pr3       1.0  0.51600  0.93400  0.74800  1.0000
  Pr  Pr4       1.0  0.98400  0.43400  0.75200  1.0000
