data_image0
_chemical_formula_structural       Sn12Ti8
_chemical_formula_sum              "Sn12 Ti8"
_cell_length_a       5.96991
_cell_length_b       7.0298
_cell_length_c       10.4469
_cell_angle_alpha    90
_cell_angle_beta     73.3978
_cell_angle_gamma    90

_space_group_name_H-M_alt    "P 1"
_space_group_IT_number       1

loop_
  _space_group_symop_operation_xyz
  'x, y, z'

loop_
  _atom_site_type_symbol
  _atom_site_label
  _atom_site_symmetry_multiplicity
  _atom_site_fract_x
  _atom_site_fract_y
  _atom_site_fract_z
  _atom_site_occupancy
  Sn  Sn1       1.0  0.23000  0.75000  0.04050  1.0000
  Sn  Sn2       1.0  0.73000  0.75000  0.04050  1.0000
  Sn  Sn3       1.0  0.37900  0.07380  0.24200  1.0000
  Sn  Sn4       1.0  0.87900  0.42600  0.24200  1.0000
  Sn  Sn5       1.0  0.77600  0.07350  0.44800  1.0000
  Sn  Sn6       1.0  0.27600  0.42600  0.44800  1.0000
  Sn  Sn7       1.0  0.72400  0.57400  0.55200  1.0000
  Sn  Sn8       1.0  0.22400  0.92600  0.55200  1.0000
  Sn  Sn9       1.0  0.12100  0.57400  0.75800  1.0000
  Sn  Sn10      1.0  0.62100  0.92600  0.75800  1.0000
  Sn  Sn11      1.0  0.27000  0.25000  0.96000  1.0000
  Sn  Sn12      1.0  0.77000  0.25000  0.96000  1.0000
  Ti  Ti1       1.0  0.91900  0.04590  0.16200  1.0000
  Ti  Ti2       1.0  0.41900  0.45400  0.16200  1.0000
  Ti  Ti3       1.0  0.08680  0.75000  0.32600  1.0000
  Ti  Ti4       1.0  0.58700  0.75000  0.32600  1.0000
  Ti  Ti5       1.0  0.41300  0.25000  0.67400  1.0000
  Ti  Ti6       1.0  0.91300  0.25000  0.67400  1.0000
  Ti  Ti7       1.0  0.58100  0.54600  0.83800  1.0000
  Ti  Ti8       1.0  0.08100  0.95400  0.83800  1.0000
