data_image0
_chemical_formula_structural       Er6S12Sm2
_chemical_formula_sum              "Er6 S12 Sm2"
_cell_length_a       10.9766
_cell_length_b       3.94422
_cell_length_c       11.2502
_cell_angle_alpha    90
_cell_angle_beta     108.744
_cell_angle_gamma    90

_space_group_name_H-M_alt    "P 1"
_space_group_IT_number       1

loop_
  _space_group_symop_operation_xyz
  'x, y, z'

loop_
  _atom_site_type_symbol
  _atom_site_label
  _atom_site_symmetry_multiplicity
  _atom_site_fract_x
  _atom_site_fract_y
  _atom_site_fract_z
  _atom_site_occupancy
  Er  Er1       1.0  0.18100  0.25000  0.00239  1.0000
  Er  Er2       1.0  0.93700  0.25000  0.33200  1.0000
  Er  Er3       1.0  0.33900  0.75000  0.41400  1.0000
  Er  Er4       1.0  0.66100  0.25000  0.58600  1.0000
  Er  Er5       1.0  0.06260  0.75000  0.66800  1.0000
  Er  Er6       1.0  0.81900  0.75000  0.99800  1.0000
  S   S1        1.0  0.38400  0.75000  0.03650  1.0000
  S   S2        1.0  0.97800  0.25000  0.11200  1.0000
  S   S3        1.0  0.76100  0.75000  0.22600  1.0000
  S   S4        1.0  0.30500  0.25000  0.25100  1.0000
  S   S5        1.0  0.58200  0.75000  0.40500  1.0000
  S   S6        1.0  0.10400  0.75000  0.43900  1.0000
  S   S7        1.0  0.89600  0.25000  0.56100  1.0000
  S   S8        1.0  0.41800  0.25000  0.59500  1.0000
  S   S9        1.0  0.69500  0.75000  0.74900  1.0000
  S   S10       1.0  0.23900  0.25000  0.77400  1.0000
  S   S11       1.0  0.02200  0.75000  0.88800  1.0000
  S   S12       1.0  0.61600  0.25000  0.96300  1.0000
  Sm  Sm1       1.0  0.54700  0.25000  0.19300  1.0000
  Sm  Sm2       1.0  0.45300  0.75000  0.80700  1.0000
