data_image0
_chemical_formula_structural       Cd2Hg4O12Se2
_chemical_formula_sum              "Cd2 Hg4 O12 Se2"
_cell_length_a       6.97383
_cell_length_b       7.21218
_cell_length_c       7.44165
_cell_angle_alpha    74.5385
_cell_angle_beta     67.6689
_cell_angle_gamma    63.6538

_space_group_name_H-M_alt    "P 1"
_space_group_IT_number       1

loop_
  _space_group_symop_operation_xyz
  'x, y, z'

loop_
  _atom_site_type_symbol
  _atom_site_label
  _atom_site_symmetry_multiplicity
  _atom_site_fract_x
  _atom_site_fract_y
  _atom_site_fract_z
  _atom_site_occupancy
  Cd  Cd1       1.0  0.33300  0.13600  0.21300  1.0000
  Cd  Cd2       1.0  0.66700  0.86400  0.78700  1.0000
  Hg  Hg1       1.0  0.34200  0.63800  0.21200  1.0000
  Hg  Hg2       1.0  0.84500  0.64200  0.21200  1.0000
  Hg  Hg3       1.0  0.15500  0.35800  0.78800  1.0000
  Hg  Hg4       1.0  0.65800  0.36200  0.78800  1.0000
  O   O1        1.0  0.55100  0.80200  0.13800  1.0000
  O   O2        1.0  0.06450  0.07590  0.15600  1.0000
  O   O3        1.0  0.63300  0.21600  0.16400  1.0000
  O   O4        1.0  0.14800  0.47300  0.25900  1.0000
  O   O5        1.0  0.72500  0.32600  0.43300  1.0000
  O   O6        1.0  0.78000  0.91600  0.44900  1.0000
  O   O7        1.0  0.22000  0.08410  0.55100  1.0000
  O   O8        1.0  0.27500  0.67400  0.56700  1.0000
  O   O9        1.0  0.85200  0.52700  0.74100  1.0000
  O   O10       1.0  0.36700  0.78400  0.83600  1.0000
  O   O11       1.0  0.93600  0.92400  0.84400  1.0000
  O   O12       1.0  0.44900  0.19800  0.86200  1.0000
  Se  Se1       1.0  0.80000  0.13400  0.30600  1.0000
  Se  Se2       1.0  0.20000  0.86600  0.69400  1.0000
