data_image0
_chemical_formula_structural       Se12Ta4Tl4
_chemical_formula_sum              "Se12 Ta4 Tl4"
_cell_length_a       9.67217
_cell_length_b       3.64379
_cell_length_c       14.9618
_cell_angle_alpha    90
_cell_angle_beta     90
_cell_angle_gamma    90

_space_group_name_H-M_alt    "P 1"
_space_group_IT_number       1

loop_
  _space_group_symop_operation_xyz
  'x, y, z'

loop_
  _atom_site_type_symbol
  _atom_site_label
  _atom_site_symmetry_multiplicity
  _atom_site_fract_x
  _atom_site_fract_y
  _atom_site_fract_z
  _atom_site_occupancy
  Se  Se1       1.0  0.81600  0.75000  0.00116  1.0000
  Se  Se2       1.0  0.52700  0.25000  0.09930  1.0000
  Se  Se3       1.0  0.24600  0.75000  0.22000  1.0000
  Se  Se4       1.0  0.74600  0.75000  0.28000  1.0000
  Se  Se5       1.0  0.02730  0.25000  0.40100  1.0000
  Se  Se6       1.0  0.31600  0.75000  0.49900  1.0000
  Se  Se7       1.0  0.68400  0.25000  0.50100  1.0000
  Se  Se8       1.0  0.97300  0.75000  0.59900  1.0000
  Se  Se9       1.0  0.25400  0.25000  0.72000  1.0000
  Se  Se10      1.0  0.75400  0.25000  0.78000  1.0000
  Se  Se11      1.0  0.47300  0.75000  0.90100  1.0000
  Se  Se12      1.0  0.18400  0.25000  0.99900  1.0000
  Ta  Ta1       1.0  0.33800  0.75000  0.07120  1.0000
  Ta  Ta2       1.0  0.83800  0.75000  0.42900  1.0000
  Ta  Ta3       1.0  0.16200  0.25000  0.57100  1.0000
  Ta  Ta4       1.0  0.66200  0.25000  0.92900  1.0000
  Tl  Tl1       1.0  0.98200  0.25000  0.17100  1.0000
  Tl  Tl2       1.0  0.48200  0.25000  0.32900  1.0000
  Tl  Tl3       1.0  0.51800  0.75000  0.67100  1.0000
  Tl  Tl4       1.0  0.01750  0.75000  0.82900  1.0000
