data_image0
_chemical_formula_structural       Ir2Li2Nd4O12
_chemical_formula_sum              "Ir2 Li2 Nd4 O12"
_cell_length_a       5.39545
_cell_length_b       5.74226
_cell_length_c       7.7026
_cell_angle_alpha    90
_cell_angle_beta     90.5848
_cell_angle_gamma    90

_space_group_name_H-M_alt    "P 1"
_space_group_IT_number       1

loop_
  _space_group_symop_operation_xyz
  'x, y, z'

loop_
  _atom_site_type_symbol
  _atom_site_label
  _atom_site_symmetry_multiplicity
  _atom_site_fract_x
  _atom_site_fract_y
  _atom_site_fract_z
  _atom_site_occupancy
  Ir  Ir1       1.0  0.50000  0.50000  0.00000  1.0000
  Ir  Ir2       1.0  0.00000  0.00000  0.50000  1.0000
  Li  Li1       1.0  0.00000  0.00000  0.00000  1.0000
  Li  Li2       1.0  0.50000  0.50000  0.50000  1.0000
  Nd  Nd1       1.0  0.01760  0.57100  0.24800  1.0000
  Nd  Nd2       1.0  0.48200  0.07070  0.25200  1.0000
  Nd  Nd3       1.0  0.51800  0.92900  0.74800  1.0000
  Nd  Nd4       1.0  0.98200  0.42900  0.75200  1.0000
  O   O1        1.0  0.20000  0.30700  0.04670  1.0000
  O   O2        1.0  0.31500  0.79000  0.04990  1.0000
  O   O3        1.0  0.59400  0.47500  0.24800  1.0000
  O   O4        1.0  0.90600  0.97500  0.25200  1.0000
  O   O5        1.0  0.18500  0.29000  0.45000  1.0000
  O   O6        1.0  0.30000  0.80700  0.45300  1.0000
  O   O7        1.0  0.70000  0.19300  0.54700  1.0000
  O   O8        1.0  0.81500  0.71000  0.55000  1.0000
  O   O9        1.0  0.09410  0.02530  0.74800  1.0000
  O   O10       1.0  0.40600  0.52500  0.75200  1.0000
  O   O11       1.0  0.68500  0.21000  0.95000  1.0000
  O   O12       1.0  0.80000  0.69300  0.95300  1.0000
