data_image0
_chemical_formula_structural       Ga2Gd6O12
_chemical_formula_sum              "Ga2 Gd6 O12"
_cell_length_a       5.44845
_cell_length_b       7.16372
_cell_length_c       7.16372
_cell_angle_alpha    102.815
_cell_angle_beta     90
_cell_angle_gamma    90

_space_group_name_H-M_alt    "P 1"
_space_group_IT_number       1

loop_
  _space_group_symop_operation_xyz
  'x, y, z'

loop_
  _atom_site_type_symbol
  _atom_site_label
  _atom_site_symmetry_multiplicity
  _atom_site_fract_x
  _atom_site_fract_y
  _atom_site_fract_z
  _atom_site_occupancy
  Ga  Ga1       1.0  0.99800  0.80700  0.19300  1.0000
  Ga  Ga2       1.0  0.49800  0.19300  0.80700  1.0000
  Gd  Gd1       1.0  0.96700  0.29800  0.08700  1.0000
  Gd  Gd2       1.0  0.46700  0.08700  0.29800  1.0000
  Gd  Gd3       1.0  0.42000  0.60300  0.39700  1.0000
  Gd  Gd4       1.0  0.92000  0.39700  0.60300  1.0000
  Gd  Gd5       1.0  0.96700  0.91300  0.70200  1.0000
  Gd  Gd6       1.0  0.46700  0.70200  0.91300  1.0000
  O   O1        1.0  0.13900  0.96100  0.03860  1.0000
  O   O2        1.0  0.17500  0.57900  0.10500  1.0000
  O   O3        1.0  0.66300  0.78400  0.21600  1.0000
  O   O4        1.0  0.69500  0.35600  0.32500  1.0000
  O   O5        1.0  0.19500  0.32500  0.35600  1.0000
  O   O6        1.0  0.17500  0.89500  0.42100  1.0000
  O   O7        1.0  0.67500  0.10500  0.57900  1.0000
  O   O8        1.0  0.69500  0.67500  0.64400  1.0000
  O   O9        1.0  0.19500  0.64400  0.67500  1.0000
  O   O10       1.0  0.16300  0.21600  0.78400  1.0000
  O   O11       1.0  0.67500  0.42100  0.89500  1.0000
  O   O12       1.0  0.63900  0.03860  0.96100  1.0000
