data_image0
_chemical_formula_structural       Li2O12Os2Sm4
_chemical_formula_sum              "Li2 O12 Os2 Sm4"
_cell_length_a       5.35478
_cell_length_b       5.75049
_cell_length_c       7.64983
_cell_angle_alpha    90
_cell_angle_beta     90.7009
_cell_angle_gamma    90

_space_group_name_H-M_alt    "P 1"
_space_group_IT_number       1

loop_
  _space_group_symop_operation_xyz
  'x, y, z'

loop_
  _atom_site_type_symbol
  _atom_site_label
  _atom_site_symmetry_multiplicity
  _atom_site_fract_x
  _atom_site_fract_y
  _atom_site_fract_z
  _atom_site_occupancy
  Li  Li1       1.0  0.00000  0.00000  0.00000  1.0000
  Li  Li2       1.0  0.50000  0.50000  0.50000  1.0000
  O   O1        1.0  0.19800  0.31400  0.05020  1.0000
  O   O2        1.0  0.32000  0.79300  0.05520  1.0000
  O   O3        1.0  0.60500  0.46600  0.24700  1.0000
  O   O4        1.0  0.89500  0.96600  0.25300  1.0000
  O   O5        1.0  0.18000  0.29300  0.44500  1.0000
  O   O6        1.0  0.30200  0.81400  0.45000  1.0000
  O   O7        1.0  0.69800  0.18600  0.55000  1.0000
  O   O8        1.0  0.82000  0.70700  0.55500  1.0000
  O   O9        1.0  0.10500  0.03380  0.74700  1.0000
  O   O10       1.0  0.39500  0.53400  0.75300  1.0000
  O   O11       1.0  0.68000  0.20700  0.94500  1.0000
  O   O12       1.0  0.80200  0.68600  0.95000  1.0000
  Os  Os1       1.0  0.50000  0.50000  1.00000  1.0000
  Os  Os2       1.0  1.00000  0.00000  0.50000  1.0000
  Sm  Sm1       1.0  0.01900  0.57400  0.24900  1.0000
  Sm  Sm2       1.0  0.48100  0.07410  0.25100  1.0000
  Sm  Sm3       1.0  0.51900  0.92600  0.74900  1.0000
  Sm  Sm4       1.0  0.98100  0.42600  0.75100  1.0000
