data_image0
_chemical_formula_structural       Ga2O12Sm6
_chemical_formula_sum              "Ga2 O12 Sm6"
_cell_length_a       5.51326
_cell_length_b       7.26468
_cell_length_c       7.26468
_cell_angle_alpha    102.791
_cell_angle_beta     90
_cell_angle_gamma    90

_space_group_name_H-M_alt    "P 1"
_space_group_IT_number       1

loop_
  _space_group_symop_operation_xyz
  'x, y, z'

loop_
  _atom_site_type_symbol
  _atom_site_label
  _atom_site_symmetry_multiplicity
  _atom_site_fract_x
  _atom_site_fract_y
  _atom_site_fract_z
  _atom_site_occupancy
  Ga  Ga1       1.0  0.99900  0.80700  0.19300  1.0000
  Ga  Ga2       1.0  0.49900  0.19300  0.80700  1.0000
  O   O1        1.0  0.13600  0.96000  0.03980  1.0000
  O   O2        1.0  0.17200  0.58200  0.10500  1.0000
  O   O3        1.0  0.66800  0.78400  0.21600  1.0000
  O   O4        1.0  0.69600  0.35500  0.32600  1.0000
  O   O5        1.0  0.19600  0.32600  0.35500  1.0000
  O   O6        1.0  0.17200  0.89500  0.41800  1.0000
  O   O7        1.0  0.67200  0.10500  0.58200  1.0000
  O   O8        1.0  0.69600  0.67400  0.64500  1.0000
  O   O9        1.0  0.19600  0.64500  0.67400  1.0000
  O   O10       1.0  0.16800  0.21600  0.78400  1.0000
  O   O11       1.0  0.67200  0.41800  0.89500  1.0000
  O   O12       1.0  0.63600  0.03980  0.96000  1.0000
  Sm  Sm1       1.0  0.96700  0.29800  0.08660  1.0000
  Sm  Sm2       1.0  0.46700  0.08660  0.29800  1.0000
  Sm  Sm3       1.0  0.42100  0.60400  0.39600  1.0000
  Sm  Sm4       1.0  0.92100  0.39600  0.60400  1.0000
  Sm  Sm5       1.0  0.96700  0.91300  0.70200  1.0000
  Sm  Sm6       1.0  0.46700  0.70200  0.91300  1.0000
