data_image0
_chemical_formula_structural       Er2Na2P4S12
_chemical_formula_sum              "Er2 Na2 P4 S12"
_cell_length_a       6.91722
_cell_length_b       7.11524
_cell_length_c       9.12505
_cell_angle_alpha    87.0503
_cell_angle_beta     87.5674
_cell_angle_gamma    87.9075

_space_group_name_H-M_alt    "P 1"
_space_group_IT_number       1

loop_
  _space_group_symop_operation_xyz
  'x, y, z'

loop_
  _atom_site_type_symbol
  _atom_site_label
  _atom_site_symmetry_multiplicity
  _atom_site_fract_x
  _atom_site_fract_y
  _atom_site_fract_z
  _atom_site_occupancy
  Er  Er1       1.0  0.02370  0.88100  0.25400  1.0000
  Er  Er2       1.0  0.97600  0.11900  0.74600  1.0000
  Na  Na1       1.0  0.46800  0.39900  0.26900  1.0000
  Na  Na2       1.0  0.53200  0.60100  0.73100  1.0000
  P   P1        1.0  0.65000  0.03700  0.02870  1.0000
  P   P2        1.0  0.93400  0.39100  0.43500  1.0000
  P   P3        1.0  0.06560  0.60900  0.56500  1.0000
  P   P4        1.0  0.35000  0.96300  0.97100  1.0000
  S   S1        1.0  0.16400  0.16500  0.05280  1.0000
  S   S2        1.0  0.29800  0.70900  0.07050  1.0000
  S   S3        1.0  0.87500  0.51900  0.23900  1.0000
  S   S4        1.0  0.65000  0.02830  0.25100  1.0000
  S   S5        1.0  0.29600  0.70300  0.43900  1.0000
  S   S6        1.0  0.14400  0.17900  0.44000  1.0000
  S   S7        1.0  0.85600  0.82100  0.56000  1.0000
  S   S8        1.0  0.70400  0.29700  0.56100  1.0000
  S   S9        1.0  0.35000  0.97200  0.74900  1.0000
  S   S10       1.0  0.12500  0.48100  0.76100  1.0000
  S   S11       1.0  0.70200  0.29100  0.92900  1.0000
  S   S12       1.0  0.83600  0.83500  0.94700  1.0000
