data_image0
_chemical_formula_structural       Gd8O4S8
_chemical_formula_sum              "Gd8 O4 S8"
_cell_length_a       8.3298
_cell_length_b       6.98472
_cell_length_c       6.90991
_cell_angle_alpha    90
_cell_angle_beta     99.1731
_cell_angle_gamma    90

_space_group_name_H-M_alt    "P 1"
_space_group_IT_number       1

loop_
  _space_group_symop_operation_xyz
  'x, y, z'

loop_
  _atom_site_type_symbol
  _atom_site_label
  _atom_site_symmetry_multiplicity
  _atom_site_fract_x
  _atom_site_fract_y
  _atom_site_fract_z
  _atom_site_occupancy
  Gd  Gd1       1.0  0.42200  0.36000  0.18200  1.0000
  Gd  Gd2       1.0  0.86200  0.44500  0.24900  1.0000
  Gd  Gd3       1.0  0.13800  0.94500  0.25100  1.0000
  Gd  Gd4       1.0  0.57800  0.86000  0.31800  1.0000
  Gd  Gd5       1.0  0.42200  0.14000  0.68200  1.0000
  Gd  Gd6       1.0  0.86200  0.05490  0.74900  1.0000
  Gd  Gd7       1.0  0.13800  0.55500  0.75100  1.0000
  Gd  Gd8       1.0  0.57800  0.64000  0.81800  1.0000
  O   O1        1.0  0.61700  0.58800  0.14900  1.0000
  O   O2        1.0  0.38300  0.08760  0.35100  1.0000
  O   O3        1.0  0.61700  0.91200  0.64900  1.0000
  O   O4        1.0  0.38300  0.41200  0.85100  1.0000
  S   S1        1.0  0.07700  0.27700  0.02960  1.0000
  S   S2        1.0  0.67900  0.13700  0.07040  1.0000
  S   S3        1.0  0.32100  0.63700  0.43000  1.0000
  S   S4        1.0  0.92300  0.77700  0.47000  1.0000
  S   S5        1.0  0.07700  0.22300  0.53000  1.0000
  S   S6        1.0  0.67900  0.36300  0.57000  1.0000
  S   S7        1.0  0.32100  0.86300  0.93000  1.0000
  S   S8        1.0  0.92300  0.72300  0.97000  1.0000
