data_image0
_chemical_formula_structural       Ir2Na2O12Pr4
_chemical_formula_sum              "Ir2 Na2 O12 Pr4"
_cell_length_a       5.51654
_cell_length_b       5.94755
_cell_length_c       7.94665
_cell_angle_alpha    90
_cell_angle_beta     90.843
_cell_angle_gamma    90

_space_group_name_H-M_alt    "P 1"
_space_group_IT_number       1

loop_
  _space_group_symop_operation_xyz
  'x, y, z'

loop_
  _atom_site_type_symbol
  _atom_site_label
  _atom_site_symmetry_multiplicity
  _atom_site_fract_x
  _atom_site_fract_y
  _atom_site_fract_z
  _atom_site_occupancy
  Ir  Ir1       1.0  0.50000  0.50000  1.00000  1.0000
  Ir  Ir2       1.0  1.00000  0.00000  0.50000  1.0000
  Na  Na1       1.0  0.00000  0.00000  0.00000  1.0000
  Na  Na2       1.0  0.50000  0.50000  0.50000  1.0000
  O   O1        1.0  0.20400  0.32300  0.05130  1.0000
  O   O2        1.0  0.33300  0.78400  0.06310  1.0000
  O   O3        1.0  0.61400  0.45800  0.23500  1.0000
  O   O4        1.0  0.88600  0.95800  0.26500  1.0000
  O   O5        1.0  0.16700  0.28400  0.43700  1.0000
  O   O6        1.0  0.29600  0.82300  0.44900  1.0000
  O   O7        1.0  0.70400  0.17700  0.55100  1.0000
  O   O8        1.0  0.83300  0.71600  0.56300  1.0000
  O   O9        1.0  0.11400  0.04190  0.73500  1.0000
  O   O10       1.0  0.38600  0.54200  0.76500  1.0000
  O   O11       1.0  0.66700  0.21600  0.93700  1.0000
  O   O12       1.0  0.79600  0.67700  0.94900  1.0000
  Pr  Pr1       1.0  0.02180  0.57400  0.24800  1.0000
  Pr  Pr2       1.0  0.47800  0.07420  0.25200  1.0000
  Pr  Pr3       1.0  0.52200  0.92600  0.74800  1.0000
  Pr  Pr4       1.0  0.97800  0.42600  0.75200  1.0000
