data_image0
_chemical_formula_structural       Ag4I4Te12
_chemical_formula_sum              "Ag4 I4 Te12"
_cell_length_a       16.4336
_cell_length_b       4.83638
_cell_length_c       8.86563
_cell_angle_alpha    90
_cell_angle_beta     90
_cell_angle_gamma    90

_space_group_name_H-M_alt    "P 1"
_space_group_IT_number       1

loop_
  _space_group_symop_operation_xyz
  'x, y, z'

loop_
  _atom_site_type_symbol
  _atom_site_label
  _atom_site_symmetry_multiplicity
  _atom_site_fract_x
  _atom_site_fract_y
  _atom_site_fract_z
  _atom_site_occupancy
  Ag  Ag1       1.0  0.25000  0.70200  0.25000  1.0000
  Ag  Ag2       1.0  0.75000  0.70200  0.25000  1.0000
  Ag  Ag3       1.0  0.25000  0.29800  0.75000  1.0000
  Ag  Ag4       1.0  0.75000  0.29800  0.75000  1.0000
  I   I1        1.0  0.32600  0.00000  0.00000  1.0000
  I   I2        1.0  0.67400  0.00000  0.00000  1.0000
  I   I3        1.0  0.17400  0.00000  0.50000  1.0000
  I   I4        1.0  0.82600  0.00000  0.50000  1.0000
  Te  Te1       1.0  0.12600  0.35800  0.13900  1.0000
  Te  Te2       1.0  0.87400  0.35800  0.13900  1.0000
  Te  Te3       1.0  0.50000  0.63100  0.21600  1.0000
  Te  Te4       1.0  0.00000  0.63100  0.28400  1.0000
  Te  Te5       1.0  0.37400  0.35800  0.36100  1.0000
  Te  Te6       1.0  0.62600  0.35800  0.36100  1.0000
  Te  Te7       1.0  0.37400  0.64200  0.63900  1.0000
  Te  Te8       1.0  0.62600  0.64200  0.63900  1.0000
  Te  Te9       1.0  0.00000  0.36900  0.71600  1.0000
  Te  Te10      1.0  0.50000  0.36900  0.78400  1.0000
  Te  Te11      1.0  0.12600  0.64200  0.86100  1.0000
  Te  Te12      1.0  0.87400  0.64200  0.86100  1.0000
