data_image0
_chemical_formula_structural       Cl12Ho2Na6
_chemical_formula_sum              "Cl12 Ho2 Na6"
_cell_length_a       6.85335
_cell_length_b       7.26458
_cell_length_c       10.1104
_cell_angle_alpha    90
_cell_angle_beta     90.8486
_cell_angle_gamma    90

_space_group_name_H-M_alt    "P 1"
_space_group_IT_number       1

loop_
  _space_group_symop_operation_xyz
  'x, y, z'

loop_
  _atom_site_type_symbol
  _atom_site_label
  _atom_site_symmetry_multiplicity
  _atom_site_fract_x
  _atom_site_fract_y
  _atom_site_fract_z
  _atom_site_occupancy
  Cl  Cl1       1.0  0.68500  0.67900  0.06450  1.0000
  Cl  Cl2       1.0  0.83200  0.19400  0.07840  1.0000
  Cl  Cl3       1.0  0.13900  0.56500  0.24000  1.0000
  Cl  Cl4       1.0  0.36100  0.06490  0.26000  1.0000
  Cl  Cl5       1.0  0.66800  0.69400  0.42200  1.0000
  Cl  Cl6       1.0  0.81500  0.17900  0.43500  1.0000
  Cl  Cl7       1.0  0.18500  0.82100  0.56500  1.0000
  Cl  Cl8       1.0  0.33200  0.30600  0.57800  1.0000
  Cl  Cl9       1.0  0.63900  0.93500  0.74000  1.0000
  Cl  Cl10      1.0  0.86100  0.43500  0.76000  1.0000
  Cl  Cl11      1.0  0.16800  0.80600  0.92200  1.0000
  Cl  Cl12      1.0  0.31500  0.32100  0.93500  1.0000
  Ho  Ho1       1.0  0.00000  0.50000  0.00000  1.0000
  Ho  Ho2       1.0  0.50000  0.00000  0.50000  1.0000
  Na  Na1       1.0  0.50000  0.00000  1.00000  1.0000
  Na  Na2       1.0  0.52400  0.42200  0.24000  1.0000
  Na  Na3       1.0  0.97600  0.92200  0.26000  1.0000
  Na  Na4       1.0  0.00000  0.50000  0.50000  1.0000
  Na  Na5       1.0  0.02430  0.07800  0.74000  1.0000
  Na  Na6       1.0  0.47600  0.57800  0.76000  1.0000
