data_image0
_chemical_formula_structural       Bi2Ga2In4S12
_chemical_formula_sum              "Bi2 Ga2 In4 S12"
_cell_length_a       11.2992
_cell_length_b       3.84017
_cell_length_c       12.4403
_cell_angle_alpha    90
_cell_angle_beta     116.877
_cell_angle_gamma    90

_space_group_name_H-M_alt    "P 1"
_space_group_IT_number       1

loop_
  _space_group_symop_operation_xyz
  'x, y, z'

loop_
  _atom_site_type_symbol
  _atom_site_label
  _atom_site_symmetry_multiplicity
  _atom_site_fract_x
  _atom_site_fract_y
  _atom_site_fract_z
  _atom_site_occupancy
  Bi  Bi1       1.0  0.59200  0.25000  0.38900  1.0000
  Bi  Bi2       1.0  0.40800  0.75000  0.61100  1.0000
  Ga  Ga1       1.0  0.83300  0.75000  0.09380  1.0000
  Ga  Ga2       1.0  0.16700  0.25000  0.90600  1.0000
  In  In1       1.0  0.25800  0.75000  0.22400  1.0000
  In  In2       1.0  0.94900  0.25000  0.35600  1.0000
  In  In3       1.0  0.05150  0.75000  0.64400  1.0000
  In  In4       1.0  0.74200  0.25000  0.77600  1.0000
  S   S1        1.0  0.14100  0.25000  0.07670  1.0000
  S   S2        1.0  0.73800  0.25000  0.13000  1.0000
  S   S3        1.0  0.48800  0.75000  0.22300  1.0000
  S   S4        1.0  0.04020  0.75000  0.26600  1.0000
  S   S5        1.0  0.35800  0.25000  0.39700  1.0000
  S   S6        1.0  0.84400  0.75000  0.43200  1.0000
  S   S7        1.0  0.15600  0.25000  0.56800  1.0000
  S   S8        1.0  0.64200  0.75000  0.60300  1.0000
  S   S9        1.0  0.96000  0.25000  0.73400  1.0000
  S   S10       1.0  0.51200  0.25000  0.77700  1.0000
  S   S11       1.0  0.26200  0.75000  0.87000  1.0000
  S   S12       1.0  0.85900  0.75000  0.92300  1.0000
