data_image0
_chemical_formula_structural       B4Nb6Ru10
_chemical_formula_sum              "B4 Nb6 Ru10"
_cell_length_a       9.4687
_cell_length_b       9.4687
_cell_length_c       3.01574
_cell_angle_alpha    90
_cell_angle_beta     90
_cell_angle_gamma    90

_space_group_name_H-M_alt    "P 1"
_space_group_IT_number       1

loop_
  _space_group_symop_operation_xyz
  'x, y, z'

loop_
  _atom_site_type_symbol
  _atom_site_label
  _atom_site_symmetry_multiplicity
  _atom_site_fract_x
  _atom_site_fract_y
  _atom_site_fract_z
  _atom_site_occupancy
  B   B1        1.0  0.62200  0.12200  0.00000  1.0000
  B   B2        1.0  0.12200  0.37800  0.00000  1.0000
  B   B3        1.0  0.87800  0.62200  0.00000  1.0000
  B   B4        1.0  0.37800  0.87800  0.00000  1.0000
  Nb  Nb1       1.0  0.00000  0.00000  0.00000  1.0000
  Nb  Nb2       1.0  0.32400  0.17600  0.00000  1.0000
  Nb  Nb3       1.0  0.82400  0.32400  0.00000  1.0000
  Nb  Nb4       1.0  0.50000  0.50000  0.00000  1.0000
  Nb  Nb5       1.0  0.17600  0.67600  0.00000  1.0000
  Nb  Nb6       1.0  0.67600  0.82400  0.00000  1.0000
  Ru  Ru1       1.0  0.50000  0.00000  0.50000  1.0000
  Ru  Ru2       1.0  0.78100  0.07100  0.50000  1.0000
  Ru  Ru3       1.0  0.07100  0.21900  0.50000  1.0000
  Ru  Ru4       1.0  0.57100  0.28100  0.50000  1.0000
  Ru  Ru5       1.0  0.28100  0.42900  0.50000  1.0000
  Ru  Ru6       1.0  0.00000  0.50000  0.50000  1.0000
  Ru  Ru7       1.0  0.71900  0.57100  0.50000  1.0000
  Ru  Ru8       1.0  0.42900  0.71900  0.50000  1.0000
  Ru  Ru9       1.0  0.92900  0.78100  0.50000  1.0000
  Ru  Ru10      1.0  0.21900  0.92900  0.50000  1.0000
