data_image0
_chemical_formula_structural       C8Pr8W4
_chemical_formula_sum              "C8 Pr8 W4"
_cell_length_a       5.8415
_cell_length_b       5.8415
_cell_length_c       10.5164
_cell_angle_alpha    90
_cell_angle_beta     90
_cell_angle_gamma    90

_space_group_name_H-M_alt    "P 1"
_space_group_IT_number       1

loop_
  _space_group_symop_operation_xyz
  'x, y, z'

loop_
  _atom_site_type_symbol
  _atom_site_label
  _atom_site_symmetry_multiplicity
  _atom_site_fract_x
  _atom_site_fract_y
  _atom_site_fract_z
  _atom_site_occupancy
  C   C1        1.0  0.50000  0.00000  0.00000  1.0000
  C   C2        1.0  0.00000  0.50000  0.00000  1.0000
  C   C3        1.0  0.00000  0.00000  0.14100  1.0000
  C   C4        1.0  0.50000  0.50000  0.35900  1.0000
  C   C5        1.0  0.50000  0.00000  0.50000  1.0000
  C   C6        1.0  0.00000  0.50000  0.50000  1.0000
  C   C7        1.0  0.50000  0.50000  0.64100  1.0000
  C   C8        1.0  0.00000  0.00000  0.85900  1.0000
  Pr  Pr1       1.0  0.69600  0.30400  0.15700  1.0000
  Pr  Pr2       1.0  0.30400  0.69600  0.15700  1.0000
  Pr  Pr3       1.0  0.19600  0.19600  0.34300  1.0000
  Pr  Pr4       1.0  0.80400  0.80400  0.34300  1.0000
  Pr  Pr5       1.0  0.19600  0.19600  0.65700  1.0000
  Pr  Pr6       1.0  0.80400  0.80400  0.65700  1.0000
  Pr  Pr7       1.0  0.69600  0.30400  0.84300  1.0000
  Pr  Pr8       1.0  0.30400  0.69600  0.84300  1.0000
  W   W1        1.0  0.17700  0.17700  0.00000  1.0000
  W   W2        1.0  0.82300  0.82300  0.00000  1.0000
  W   W3        1.0  0.67700  0.32300  0.50000  1.0000
  W   W4        1.0  0.32300  0.67700  0.50000  1.0000
