data_image0
_chemical_formula_structural       Cl8F4O4P4
_chemical_formula_sum              "Cl8 F4 O4 P4"
_cell_length_a       9.2943
_cell_length_b       5.40235
_cell_length_c       9.04383
_cell_angle_alpha    90
_cell_angle_beta     115.732
_cell_angle_gamma    90

_space_group_name_H-M_alt    "P 1"
_space_group_IT_number       1

loop_
  _space_group_symop_operation_xyz
  'x, y, z'

loop_
  _atom_site_type_symbol
  _atom_site_label
  _atom_site_symmetry_multiplicity
  _atom_site_fract_x
  _atom_site_fract_y
  _atom_site_fract_z
  _atom_site_occupancy
  Cl  Cl1       1.0  0.43000  0.69100  0.10300  1.0000
  Cl  Cl2       1.0  0.80500  0.90000  0.12900  1.0000
  Cl  Cl3       1.0  0.19500  0.40000  0.37100  1.0000
  Cl  Cl4       1.0  0.57000  0.19100  0.39700  1.0000
  Cl  Cl5       1.0  0.43000  0.80900  0.60300  1.0000
  Cl  Cl6       1.0  0.80500  0.60000  0.62900  1.0000
  Cl  Cl7       1.0  0.19500  0.10000  0.87100  1.0000
  Cl  Cl8       1.0  0.57000  0.30900  0.89700  1.0000
  F   F1        1.0  0.90100  0.34100  0.03810  1.0000
  F   F2        1.0  0.09890  0.84100  0.46200  1.0000
  F   F3        1.0  0.90100  0.15900  0.53800  1.0000
  F   F4        1.0  0.09890  0.65900  0.96200  1.0000
  O   O1        1.0  0.21000  0.97500  0.19100  1.0000
  O   O2        1.0  0.79000  0.47500  0.30900  1.0000
  O   O3        1.0  0.21000  0.52500  0.69100  1.0000
  O   O4        1.0  0.79000  0.02530  0.80900  1.0000
  P   P1        1.0  0.22400  0.86600  0.04960  1.0000
  P   P2        1.0  0.77600  0.36600  0.45000  1.0000
  P   P3        1.0  0.22400  0.63400  0.55000  1.0000
  P   P4        1.0  0.77600  0.13400  0.95000  1.0000
