data_image0
_chemical_formula_structural       C4Cl4N4Pb4S4
_chemical_formula_sum              "C4 Cl4 N4 Pb4 S4"
_cell_length_a       10.1315
_cell_length_b       4.24076
_cell_length_c       9.81731
_cell_angle_alpha    90
_cell_angle_beta     90
_cell_angle_gamma    90

_space_group_name_H-M_alt    "P 1"
_space_group_IT_number       1

loop_
  _space_group_symop_operation_xyz
  'x, y, z'

loop_
  _atom_site_type_symbol
  _atom_site_label
  _atom_site_symmetry_multiplicity
  _atom_site_fract_x
  _atom_site_fract_y
  _atom_site_fract_z
  _atom_site_occupancy
  C   C1        1.0  0.48300  0.25000  0.14100  1.0000
  C   C2        1.0  0.98300  0.25000  0.35900  1.0000
  C   C3        1.0  0.01740  0.75000  0.64100  1.0000
  C   C4        1.0  0.51700  0.75000  0.85900  1.0000
  Cl  Cl1       1.0  0.90300  0.75000  0.10300  1.0000
  Cl  Cl2       1.0  0.40300  0.75000  0.39700  1.0000
  Cl  Cl3       1.0  0.59700  0.25000  0.60300  1.0000
  Cl  Cl4       1.0  0.09740  0.25000  0.89700  1.0000
  N   N1        1.0  0.37100  0.25000  0.10300  1.0000
  N   N2        1.0  0.87100  0.25000  0.39700  1.0000
  N   N3        1.0  0.12900  0.75000  0.60300  1.0000
  N   N4        1.0  0.62900  0.75000  0.89700  1.0000
  Pb  Pb1       1.0  0.19200  0.75000  0.07910  1.0000
  Pb  Pb2       1.0  0.69200  0.75000  0.42100  1.0000
  Pb  Pb3       1.0  0.30800  0.25000  0.57900  1.0000
  Pb  Pb4       1.0  0.80800  0.25000  0.92100  1.0000
  S   S1        1.0  0.63700  0.25000  0.19000  1.0000
  S   S2        1.0  0.13700  0.25000  0.31000  1.0000
  S   S3        1.0  0.86300  0.75000  0.69000  1.0000
  S   S4        1.0  0.36300  0.75000  0.81000  1.0000
