data_image0
_chemical_formula_structural       As4Cl12O4
_chemical_formula_sum              "As4 Cl12 O4"
_cell_length_a       8.20685
_cell_length_b       6.23822
_cell_length_c       10.3333
_cell_angle_alpha    90
_cell_angle_beta     112.412
_cell_angle_gamma    90

_space_group_name_H-M_alt    "P 1"
_space_group_IT_number       1

loop_
  _space_group_symop_operation_xyz
  'x, y, z'

loop_
  _atom_site_type_symbol
  _atom_site_label
  _atom_site_symmetry_multiplicity
  _atom_site_fract_x
  _atom_site_fract_y
  _atom_site_fract_z
  _atom_site_occupancy
  As  As1       1.0  0.34000  0.55900  0.01050  1.0000
  As  As2       1.0  0.66000  0.05860  0.49000  1.0000
  As  As3       1.0  0.34000  0.94100  0.51000  1.0000
  As  As4       1.0  0.66000  0.44100  0.99000  1.0000
  Cl  Cl1       1.0  0.20700  0.86900  0.00762  1.0000
  Cl  Cl2       1.0  0.88000  0.57200  0.16300  1.0000
  Cl  Cl3       1.0  0.34100  0.46100  0.21000  1.0000
  Cl  Cl4       1.0  0.65900  0.96100  0.29000  1.0000
  Cl  Cl5       1.0  0.12000  0.07200  0.33700  1.0000
  Cl  Cl6       1.0  0.79300  0.36900  0.49200  1.0000
  Cl  Cl7       1.0  0.20700  0.63100  0.50800  1.0000
  Cl  Cl8       1.0  0.88000  0.92800  0.66300  1.0000
  Cl  Cl9       1.0  0.34100  0.03880  0.71000  1.0000
  Cl  Cl10      1.0  0.65900  0.53900  0.79000  1.0000
  Cl  Cl11      1.0  0.12000  0.42800  0.83700  1.0000
  Cl  Cl12      1.0  0.79300  0.13100  0.99200  1.0000
  O   O1        1.0  0.47900  0.31000  0.00680  1.0000
  O   O2        1.0  0.52100  0.81000  0.49300  1.0000
  O   O3        1.0  0.47900  0.19000  0.50700  1.0000
  O   O4        1.0  0.52100  0.69000  0.99300  1.0000
