data_image0
_chemical_formula_structural       Cl14Cs2Ti4
_chemical_formula_sum              "Cl14 Cs2 Ti4"
_cell_length_a       7.1054
_cell_length_b       6.22546
_cell_length_c       12.0339
_cell_angle_alpha    90
_cell_angle_beta     92.1509
_cell_angle_gamma    90

_space_group_name_H-M_alt    "P 1"
_space_group_IT_number       1

loop_
  _space_group_symop_operation_xyz
  'x, y, z'

loop_
  _atom_site_type_symbol
  _atom_site_label
  _atom_site_symmetry_multiplicity
  _atom_site_fract_x
  _atom_site_fract_y
  _atom_site_fract_z
  _atom_site_occupancy
  Cl  Cl1       1.0  0.21700  0.57700  0.00178  1.0000
  Cl  Cl2       1.0  0.11500  0.07310  0.11700  1.0000
  Cl  Cl3       1.0  0.64200  0.87500  0.12200  1.0000
  Cl  Cl4       1.0  1.00000  0.58700  0.25000  1.0000
  Cl  Cl5       1.0  0.35800  0.87500  0.37800  1.0000
  Cl  Cl6       1.0  0.88500  0.07310  0.38300  1.0000
  Cl  Cl7       1.0  0.78300  0.57700  0.49800  1.0000
  Cl  Cl8       1.0  0.21700  0.42300  0.50200  1.0000
  Cl  Cl9       1.0  0.11500  0.92700  0.61700  1.0000
  Cl  Cl10      1.0  0.64200  0.12500  0.62200  1.0000
  Cl  Cl11      1.0  1.00000  0.41300  0.75000  1.0000
  Cl  Cl12      1.0  0.35800  0.12500  0.87800  1.0000
  Cl  Cl13      1.0  0.88500  0.92700  0.88300  1.0000
  Cl  Cl14      1.0  0.78300  0.42300  0.99800  1.0000
  Cs  Cs1       1.0  0.50000  0.37400  0.25000  1.0000
  Cs  Cs2       1.0  0.50000  0.62600  0.75000  1.0000
  Ti  Ti1       1.0  0.93100  0.76200  0.06840  1.0000
  Ti  Ti2       1.0  0.06890  0.76200  0.43200  1.0000
  Ti  Ti3       1.0  0.93100  0.23800  0.56800  1.0000
  Ti  Ti4       1.0  0.06890  0.23800  0.93200  1.0000
