data_image0
_chemical_formula_structural       B2Br6C4Gd8
_chemical_formula_sum              "B2 Br6 C4 Gd8"
_cell_length_a       9.69365
_cell_length_b       3.69124
_cell_length_c       12.5053
_cell_angle_alpha    90
_cell_angle_beta     106.595
_cell_angle_gamma    90

_space_group_name_H-M_alt    "P 1"
_space_group_IT_number       1

loop_
  _space_group_symop_operation_xyz
  'x, y, z'

loop_
  _atom_site_type_symbol
  _atom_site_label
  _atom_site_symmetry_multiplicity
  _atom_site_fract_x
  _atom_site_fract_y
  _atom_site_fract_z
  _atom_site_occupancy
  B   B1        1.0  0.46700  0.25000  0.02120  1.0000
  B   B2        1.0  0.53300  0.75000  0.97900  1.0000
  Br  Br1       1.0  0.03410  0.75000  0.13200  1.0000
  Br  Br2       1.0  0.78500  0.25000  0.27100  1.0000
  Br  Br3       1.0  0.13900  0.25000  0.44400  1.0000
  Br  Br4       1.0  0.86100  0.75000  0.55600  1.0000
  Br  Br5       1.0  0.21500  0.75000  0.72900  1.0000
  Br  Br6       1.0  0.96600  0.25000  0.86800  1.0000
  C   C1        1.0  0.37200  0.25000  0.10500  1.0000
  C   C2        1.0  0.45000  0.75000  0.36500  1.0000
  C   C3        1.0  0.55000  0.25000  0.63500  1.0000
  C   C4        1.0  0.62800  0.75000  0.89500  1.0000
  Gd  Gd1       1.0  0.75500  0.25000  0.01870  1.0000
  Gd  Gd2       1.0  0.54400  0.75000  0.19500  1.0000
  Gd  Gd3       1.0  0.28400  0.25000  0.26600  1.0000
  Gd  Gd4       1.0  0.62500  0.25000  0.46000  1.0000
  Gd  Gd5       1.0  0.37500  0.75000  0.54000  1.0000
  Gd  Gd6       1.0  0.71600  0.75000  0.73400  1.0000
  Gd  Gd7       1.0  0.45600  0.25000  0.80500  1.0000
  Gd  Gd8       1.0  0.24500  0.75000  0.98100  1.0000
