data_image0
_chemical_formula_structural       S12Ta4Tl4
_chemical_formula_sum              "S12 Ta4 Tl4"
_cell_length_a       9.36521
_cell_length_b       3.51426
_cell_length_c       14.4956
_cell_angle_alpha    90
_cell_angle_beta     90
_cell_angle_gamma    90

_space_group_name_H-M_alt    "P 1"
_space_group_IT_number       1

loop_
  _space_group_symop_operation_xyz
  'x, y, z'

loop_
  _atom_site_type_symbol
  _atom_site_label
  _atom_site_symmetry_multiplicity
  _atom_site_fract_x
  _atom_site_fract_y
  _atom_site_fract_z
  _atom_site_occupancy
  S   S1        1.0  0.80800  0.75000  0.00018  1.0000
  S   S2        1.0  0.52200  0.25000  0.09820  1.0000
  S   S3        1.0  0.24500  0.75000  0.21300  1.0000
  S   S4        1.0  0.74500  0.75000  0.28700  1.0000
  S   S5        1.0  0.02190  0.25000  0.40200  1.0000
  S   S6        1.0  0.30800  0.75000  0.50000  1.0000
  S   S7        1.0  0.69200  0.25000  0.50000  1.0000
  S   S8        1.0  0.97800  0.75000  0.59800  1.0000
  S   S9        1.0  0.25500  0.25000  0.71300  1.0000
  S   S10       1.0  0.75500  0.25000  0.78700  1.0000
  S   S11       1.0  0.47800  0.75000  0.90200  1.0000
  S   S12       1.0  0.19200  0.25000  0.00000  1.0000
  Ta  Ta1       1.0  0.33900  0.75000  0.06990  1.0000
  Ta  Ta2       1.0  0.83900  0.75000  0.43000  1.0000
  Ta  Ta3       1.0  0.16100  0.25000  0.57000  1.0000
  Ta  Ta4       1.0  0.66100  0.25000  0.93000  1.0000
  Tl  Tl1       1.0  0.97400  0.25000  0.17100  1.0000
  Tl  Tl2       1.0  0.47400  0.25000  0.32900  1.0000
  Tl  Tl3       1.0  0.52600  0.75000  0.67100  1.0000
  Tl  Tl4       1.0  0.02630  0.75000  0.82900  1.0000
