data_image0
_chemical_formula_structural       Ni8Pd4Se8
_chemical_formula_sum              "Ni8 Pd4 Se8"
_cell_length_a       5.64869
_cell_length_b       7.9955
_cell_length_c       7.9955
_cell_angle_alpha    97.168
_cell_angle_beta     69.3143
_cell_angle_gamma    110.686

_space_group_name_H-M_alt    "P 1"
_space_group_IT_number       1

loop_
  _space_group_symop_operation_xyz
  'x, y, z'

loop_
  _atom_site_type_symbol
  _atom_site_label
  _atom_site_symmetry_multiplicity
  _atom_site_fract_x
  _atom_site_fract_y
  _atom_site_fract_z
  _atom_site_occupancy
  Ni  Ni1       1.0  0.40400  0.50000  0.19100  1.0000
  Ni  Ni2       1.0  0.90400  0.50000  0.19100  1.0000
  Ni  Ni3       1.0  0.40400  0.80900  0.50000  1.0000
  Ni  Ni4       1.0  0.90400  0.80900  0.50000  1.0000
  Ni  Ni5       1.0  0.09570  0.19100  0.50000  1.0000
  Ni  Ni6       1.0  0.59600  0.19100  0.50000  1.0000
  Ni  Ni7       1.0  0.09570  0.50000  0.80900  1.0000
  Ni  Ni8       1.0  0.59600  0.50000  0.80900  1.0000
  Pd  Pd1       1.0  0.00000  0.00000  0.00000  1.0000
  Pd  Pd2       1.0  0.50000  0.00000  0.00000  1.0000
  Pd  Pd3       1.0  0.00000  0.50000  0.50000  1.0000
  Pd  Pd4       1.0  0.50000  0.50000  0.50000  1.0000
  Se  Se1       1.0  0.16900  0.33800  0.00000  1.0000
  Se  Se2       1.0  0.83100  0.66200  0.00000  1.0000
  Se  Se3       1.0  0.50000  0.24500  0.24500  1.0000
  Se  Se4       1.0  0.25500  0.75500  0.24500  1.0000
  Se  Se5       1.0  0.83100  0.00000  0.33800  1.0000
  Se  Se6       1.0  0.16900  0.00000  0.66200  1.0000
  Se  Se7       1.0  0.50000  0.75500  0.75500  1.0000
  Se  Se8       1.0  0.74500  0.24500  0.75500  1.0000
