data_image0
_chemical_formula_structural       Ca4Ni2O12W2
_chemical_formula_sum              "Ca4 Ni2 O12 W2"
_cell_length_a       5.36873
_cell_length_b       5.54288
_cell_length_c       7.65601
_cell_angle_alpha    90
_cell_angle_beta     90.3663
_cell_angle_gamma    90

_space_group_name_H-M_alt    "P 1"
_space_group_IT_number       1

loop_
  _space_group_symop_operation_xyz
  'x, y, z'

loop_
  _atom_site_type_symbol
  _atom_site_label
  _atom_site_symmetry_multiplicity
  _atom_site_fract_x
  _atom_site_fract_y
  _atom_site_fract_z
  _atom_site_occupancy
  Ca  Ca1       1.0  0.01320  0.94500  0.24800  1.0000
  Ca  Ca2       1.0  0.48700  0.44500  0.25200  1.0000
  Ca  Ca3       1.0  0.51300  0.55500  0.74800  1.0000
  Ca  Ca4       1.0  0.98700  0.05510  0.75200  1.0000
  Ni  Ni1       1.0  0.00000  0.50000  0.00000  1.0000
  Ni  Ni2       1.0  0.50000  0.00000  0.50000  1.0000
  O   O1        1.0  0.20900  0.19500  0.04550  1.0000
  O   O2        1.0  0.30900  0.71100  0.04970  1.0000
  O   O3        1.0  0.59200  0.02680  0.24300  1.0000
  O   O4        1.0  0.90800  0.52700  0.25700  1.0000
  O   O5        1.0  0.19100  0.21100  0.45000  1.0000
  O   O6        1.0  0.29100  0.69500  0.45400  1.0000
  O   O7        1.0  0.70900  0.30500  0.54600  1.0000
  O   O8        1.0  0.80900  0.78900  0.55000  1.0000
  O   O9        1.0  0.09240  0.47300  0.74300  1.0000
  O   O10       1.0  0.40800  0.97300  0.75700  1.0000
  O   O11       1.0  0.69100  0.28900  0.95000  1.0000
  O   O12       1.0  0.79100  0.80500  0.95400  1.0000
  W   W1        1.0  0.50000  0.00000  1.00000  1.0000
  W   W2        1.0  0.00000  0.50000  0.50000  1.0000
