data_image0
_chemical_formula_structural       B2C8N8Na2
_chemical_formula_sum              "B2 C8 N8 Na2"
_cell_length_a       8.20712
_cell_length_b       8.20712
_cell_length_c       8.20712
_cell_angle_alpha    120
_cell_angle_beta     90
_cell_angle_gamma    120

_space_group_name_H-M_alt    "P 1"
_space_group_IT_number       1

loop_
  _space_group_symop_operation_xyz
  'x, y, z'

loop_
  _atom_site_type_symbol
  _atom_site_label
  _atom_site_symmetry_multiplicity
  _atom_site_fract_x
  _atom_site_fract_y
  _atom_site_fract_z
  _atom_site_occupancy
  B   B1        1.0  0.12500  0.25000  0.37500  1.0000
  B   B2        1.0  0.87500  0.75000  0.62500  1.0000
  C   C1        1.0  0.20300  0.09340  0.29700  1.0000
  C   C2        1.0  0.89000  0.09340  0.29700  1.0000
  C   C3        1.0  0.20300  0.40700  0.29700  1.0000
  C   C4        1.0  0.79700  0.59300  0.39000  1.0000
  C   C5        1.0  0.20300  0.40700  0.61000  1.0000
  C   C6        1.0  0.79700  0.59300  0.70300  1.0000
  C   C7        1.0  0.11000  0.90700  0.70300  1.0000
  C   C8        1.0  0.79700  0.90700  0.70300  1.0000
  N   N1        1.0  0.73900  0.47800  0.21700  1.0000
  N   N2        1.0  0.26100  0.52200  0.23900  1.0000
  N   N3        1.0  0.26100  0.97800  0.23900  1.0000
  N   N4        1.0  0.71700  0.97800  0.23900  1.0000
  N   N5        1.0  0.28300  0.02210  0.76100  1.0000
  N   N6        1.0  0.73900  0.02210  0.76100  1.0000
  N   N7        1.0  0.73900  0.47800  0.76100  1.0000
  N   N8        1.0  0.26100  0.52200  0.78300  1.0000
  Na  Na1       1.0  0.37500  0.75000  0.12500  1.0000
  Na  Na2       1.0  0.62500  0.25000  0.87500  1.0000
