data_image0
_chemical_formula_structural       As8Ga8Sr4
_chemical_formula_sum              "As8 Ga8 Sr4"
_cell_length_a       9.69582
_cell_length_b       4.09565
_cell_length_c       12.6657
_cell_angle_alpha    90
_cell_angle_beta     95.7008
_cell_angle_gamma    90

_space_group_name_H-M_alt    "P 1"
_space_group_IT_number       1

loop_
  _space_group_symop_operation_xyz
  'x, y, z'

loop_
  _atom_site_type_symbol
  _atom_site_label
  _atom_site_symmetry_multiplicity
  _atom_site_fract_x
  _atom_site_fract_y
  _atom_site_fract_z
  _atom_site_occupancy
  As  As1       1.0  0.26000  0.50000  0.03370  1.0000
  As  As2       1.0  0.55200  0.00000  0.24600  1.0000
  As  As3       1.0  0.05210  0.00000  0.25800  1.0000
  As  As4       1.0  0.75700  0.50000  0.47500  1.0000
  As  As5       1.0  0.24300  0.50000  0.52500  1.0000
  As  As6       1.0  0.94800  0.00000  0.74200  1.0000
  As  As7       1.0  0.44800  0.00000  0.75400  1.0000
  As  As8       1.0  0.74000  0.50000  0.96600  1.0000
  Ga  Ga1       1.0  0.10800  0.00000  0.06340  1.0000
  Ga  Ga2       1.0  0.39500  0.50000  0.22000  1.0000
  Ga  Ga3       1.0  0.19700  0.50000  0.32500  1.0000
  Ga  Ga4       1.0  0.60000  0.00000  0.44600  1.0000
  Ga  Ga5       1.0  0.40000  0.00000  0.55400  1.0000
  Ga  Ga6       1.0  0.80300  0.50000  0.67500  1.0000
  Ga  Ga7       1.0  0.60500  0.50000  0.78000  1.0000
  Ga  Ga8       1.0  0.89200  0.00000  0.93700  1.0000
  Sr  Sr1       1.0  0.50000  0.00000  1.00000  1.0000
  Sr  Sr2       1.0  0.80100  0.50000  0.22300  1.0000
  Sr  Sr3       1.0  0.00000  0.00000  0.50000  1.0000
  Sr  Sr4       1.0  0.19900  0.50000  0.77700  1.0000
