data_image0
_chemical_formula_structural       Eu4Ho2O12Ta2
_chemical_formula_sum              "Eu4 Ho2 O12 Ta2"
_cell_length_a       5.67191
_cell_length_b       5.82125
_cell_length_c       8.09398
_cell_angle_alpha    90
_cell_angle_beta     89.8314
_cell_angle_gamma    90

_space_group_name_H-M_alt    "P 1"
_space_group_IT_number       1

loop_
  _space_group_symop_operation_xyz
  'x, y, z'

loop_
  _atom_site_type_symbol
  _atom_site_label
  _atom_site_symmetry_multiplicity
  _atom_site_fract_x
  _atom_site_fract_y
  _atom_site_fract_z
  _atom_site_occupancy
  Eu  Eu1       1.0  0.51400  0.45000  0.24900  1.0000
  Eu  Eu2       1.0  0.98600  0.95000  0.25100  1.0000
  Eu  Eu3       1.0  0.01410  0.05040  0.74900  1.0000
  Eu  Eu4       1.0  0.48600  0.55000  0.75100  1.0000
  Ho  Ho1       1.0  0.50000  0.00000  1.00000  1.0000
  Ho  Ho2       1.0  0.00000  0.50000  0.50000  1.0000
  O   O1        1.0  0.71700  0.69100  0.05150  1.0000
  O   O2        1.0  0.81300  0.21800  0.05660  1.0000
  O   O3        1.0  0.10100  0.53500  0.23500  1.0000
  O   O4        1.0  0.39900  0.03530  0.26500  1.0000
  O   O5        1.0  0.68700  0.71800  0.44300  1.0000
  O   O6        1.0  0.78300  0.19100  0.44800  1.0000
  O   O7        1.0  0.21700  0.80900  0.55200  1.0000
  O   O8        1.0  0.31300  0.28200  0.55700  1.0000
  O   O9        1.0  0.60100  0.96500  0.73500  1.0000
  O   O10       1.0  0.89900  0.46500  0.76500  1.0000
  O   O11       1.0  0.18700  0.78200  0.94300  1.0000
  O   O12       1.0  0.28300  0.30900  0.94800  1.0000
  Ta  Ta1       1.0  0.00000  0.50000  0.00000  1.0000
  Ta  Ta2       1.0  0.50000  0.00000  0.50000  1.0000
