data_image0
_chemical_formula_structural       S6U2
_chemical_formula_sum              "S6 U2"
_cell_length_a       5.40254
_cell_length_b       3.90562
_cell_length_c       9.08906
_cell_angle_alpha    90
_cell_angle_beta     97.2337
_cell_angle_gamma    90

_space_group_name_H-M_alt    "P 1"
_space_group_IT_number       1

loop_
  _space_group_symop_operation_xyz
  'x, y, z'

loop_
  _atom_site_type_symbol
  _atom_site_label
  _atom_site_symmetry_multiplicity
  _atom_site_fract_x
  _atom_site_fract_y
  _atom_site_fract_z
  _atom_site_occupancy
  S   S1        1.0  0.76500  0.25000  0.06900  1.0000
  S   S2        1.0  0.51500  0.75000  0.32300  1.0000
  S   S3        1.0  0.13300  0.75000  0.32900  1.0000
  S   S4        1.0  0.86700  0.25000  0.67100  1.0000
  S   S5        1.0  0.48500  0.25000  0.67700  1.0000
  S   S6        1.0  0.23500  0.75000  0.93100  1.0000
  U   U1        1.0  0.28000  0.25000  0.14400  1.0000
  U   U2        1.0  0.72000  0.75000  0.85600  1.0000
