data_image0
_chemical_formula_structural       Ba4P4Se12
_chemical_formula_sum              "Ba4 P4 Se12"
_cell_length_a       10.4404
_cell_length_b       8.04705
_cell_length_c       7.15395
_cell_angle_alpha    90
_cell_angle_beta     91.2702
_cell_angle_gamma    90

_space_group_name_H-M_alt    "P 1"
_space_group_IT_number       1

loop_
  _space_group_symop_operation_xyz
  'x, y, z'

loop_
  _atom_site_type_symbol
  _atom_site_label
  _atom_site_symmetry_multiplicity
  _atom_site_fract_x
  _atom_site_fract_y
  _atom_site_fract_z
  _atom_site_occupancy
  Ba  Ba1       1.0  0.74900  0.59600  0.03940  1.0000
  Ba  Ba2       1.0  0.75100  0.09590  0.46100  1.0000
  Ba  Ba3       1.0  0.24900  0.90400  0.53900  1.0000
  Ba  Ba4       1.0  0.25100  0.40400  0.96100  1.0000
  P   P1        1.0  0.44000  0.89000  0.04570  1.0000
  P   P2        1.0  0.06010  0.39000  0.45400  1.0000
  P   P3        1.0  0.94000  0.61000  0.54600  1.0000
  P   P4        1.0  0.56000  0.11000  0.95400  1.0000
  Se  Se1       1.0  0.24300  0.98400  0.06930  1.0000
  Se  Se2       1.0  0.54000  0.29600  0.17900  1.0000
  Se  Se3       1.0  0.97200  0.29600  0.19000  1.0000
  Se  Se4       1.0  0.52800  0.79600  0.31000  1.0000
  Se  Se5       1.0  0.96000  0.79600  0.32100  1.0000
  Se  Se6       1.0  0.25700  0.48400  0.43100  1.0000
  Se  Se7       1.0  0.74300  0.51600  0.56900  1.0000
  Se  Se8       1.0  0.03990  0.20400  0.67900  1.0000
  Se  Se9       1.0  0.47200  0.20400  0.69000  1.0000
  Se  Se10      1.0  0.02820  0.70400  0.81000  1.0000
  Se  Se11      1.0  0.46000  0.70400  0.82100  1.0000
  Se  Se12      1.0  0.75700  0.01590  0.93100  1.0000
