data_image0
_chemical_formula_structural       Ir2Li2O12Sm4
_chemical_formula_sum              "Ir2 Li2 O12 Sm4"
_cell_length_a       5.33296
_cell_length_b       5.74822
_cell_length_c       7.62741
_cell_angle_alpha    90
_cell_angle_beta     90.6773
_cell_angle_gamma    90

_space_group_name_H-M_alt    "P 1"
_space_group_IT_number       1

loop_
  _space_group_symop_operation_xyz
  'x, y, z'

loop_
  _atom_site_type_symbol
  _atom_site_label
  _atom_site_symmetry_multiplicity
  _atom_site_fract_x
  _atom_site_fract_y
  _atom_site_fract_z
  _atom_site_occupancy
  Ir  Ir1       1.0  0.50000  0.50000  0.00000  1.0000
  Ir  Ir2       1.0  1.00000  0.00000  0.50000  1.0000
  Li  Li1       1.0  0.00000  0.00000  0.00000  1.0000
  Li  Li2       1.0  0.50000  0.50000  0.50000  1.0000
  O   O1        1.0  0.19500  0.31100  0.05030  1.0000
  O   O2        1.0  0.32000  0.79300  0.05400  1.0000
  O   O3        1.0  0.60300  0.46900  0.24900  1.0000
  O   O4        1.0  0.89700  0.96900  0.25100  1.0000
  O   O5        1.0  0.18000  0.29300  0.44600  1.0000
  O   O6        1.0  0.30500  0.81100  0.45000  1.0000
  O   O7        1.0  0.69500  0.18900  0.55000  1.0000
  O   O8        1.0  0.82000  0.70700  0.55400  1.0000
  O   O9        1.0  0.10300  0.03070  0.74900  1.0000
  O   O10       1.0  0.39700  0.53100  0.75100  1.0000
  O   O11       1.0  0.68000  0.20700  0.94600  1.0000
  O   O12       1.0  0.80500  0.68900  0.95000  1.0000
  Sm  Sm1       1.0  0.02060  0.57600  0.24800  1.0000
  Sm  Sm2       1.0  0.47900  0.07650  0.25200  1.0000
  Sm  Sm3       1.0  0.52100  0.92400  0.74800  1.0000
  Sm  Sm4       1.0  0.97900  0.42400  0.75200  1.0000
