data_image0
_chemical_formula_structural       Ir2La4Na2O12
_chemical_formula_sum              "Ir2 La4 Na2 O12"
_cell_length_a       5.57664
_cell_length_b       5.94191
_cell_length_c       8.01218
_cell_angle_alpha    90
_cell_angle_beta     90.5202
_cell_angle_gamma    90

_space_group_name_H-M_alt    "P 1"
_space_group_IT_number       1

loop_
  _space_group_symop_operation_xyz
  'x, y, z'

loop_
  _atom_site_type_symbol
  _atom_site_label
  _atom_site_symmetry_multiplicity
  _atom_site_fract_x
  _atom_site_fract_y
  _atom_site_fract_z
  _atom_site_occupancy
  Ir  Ir1       1.0  0.50000  0.50000  0.00000  1.0000
  Ir  Ir2       1.0  0.00000  0.00000  0.50000  1.0000
  La  La1       1.0  0.01740  0.56800  0.24800  1.0000
  La  La2       1.0  0.48300  0.06820  0.25200  1.0000
  La  La3       1.0  0.51700  0.93200  0.74800  1.0000
  La  La4       1.0  0.98300  0.43200  0.75200  1.0000
  Na  Na1       1.0  0.00000  0.00000  0.00000  1.0000
  Na  Na2       1.0  0.50000  0.50000  0.50000  1.0000
  O   O1        1.0  0.20600  0.32200  0.05050  1.0000
  O   O2        1.0  0.33200  0.78200  0.06080  1.0000
  O   O3        1.0  0.60900  0.46000  0.23500  1.0000
  O   O4        1.0  0.89100  0.96000  0.26500  1.0000
  O   O5        1.0  0.16800  0.28200  0.43900  1.0000
  O   O6        1.0  0.29400  0.82200  0.44900  1.0000
  O   O7        1.0  0.70600  0.17800  0.55100  1.0000
  O   O8        1.0  0.83200  0.71800  0.56100  1.0000
  O   O9        1.0  0.10900  0.04010  0.73500  1.0000
  O   O10       1.0  0.39100  0.54000  0.76500  1.0000
  O   O11       1.0  0.66800  0.21800  0.93900  1.0000
  O   O12       1.0  0.79400  0.67800  0.94900  1.0000
