data_image0
_chemical_formula_structural       Li2O12Os2Pr4
_chemical_formula_sum              "Li2 O12 Os2 Pr4"
_cell_length_a       5.45291
_cell_length_b       5.74854
_cell_length_c       7.76267
_cell_angle_alpha    90
_cell_angle_beta     90.4663
_cell_angle_gamma    90

_space_group_name_H-M_alt    "P 1"
_space_group_IT_number       1

loop_
  _space_group_symop_operation_xyz
  'x, y, z'

loop_
  _atom_site_type_symbol
  _atom_site_label
  _atom_site_symmetry_multiplicity
  _atom_site_fract_x
  _atom_site_fract_y
  _atom_site_fract_z
  _atom_site_occupancy
  Li  Li1       1.0  0.00000  0.00000  0.00000  1.0000
  Li  Li2       1.0  0.50000  0.50000  0.50000  1.0000
  O   O1        1.0  0.20600  0.30800  0.04540  1.0000
  O   O2        1.0  0.31200  0.78800  0.04900  1.0000
  O   O3        1.0  0.59100  0.47400  0.24600  1.0000
  O   O4        1.0  0.90900  0.97400  0.25400  1.0000
  O   O5        1.0  0.18800  0.28800  0.45100  1.0000
  O   O6        1.0  0.29400  0.80800  0.45500  1.0000
  O   O7        1.0  0.70600  0.19200  0.54500  1.0000
  O   O8        1.0  0.81200  0.71200  0.54900  1.0000
  O   O9        1.0  0.09110  0.02580  0.74600  1.0000
  O   O10       1.0  0.40900  0.52600  0.75400  1.0000
  O   O11       1.0  0.68800  0.21200  0.95100  1.0000
  O   O12       1.0  0.79400  0.69200  0.95500  1.0000
  Os  Os1       1.0  0.50000  0.50000  1.00000  1.0000
  Os  Os2       1.0  0.00000  0.00000  0.50000  1.0000
  Pr  Pr1       1.0  0.01530  0.56500  0.24900  1.0000
  Pr  Pr2       1.0  0.48500  0.06490  0.25100  1.0000
  Pr  Pr3       1.0  0.51500  0.93500  0.74900  1.0000
  Pr  Pr4       1.0  0.98500  0.43500  0.75100  1.0000
