data_image0
_chemical_formula_structural       P4S12Sr4
_chemical_formula_sum              "P4 S12 Sr4"
_cell_length_a       6.69413
_cell_length_b       7.62408
_cell_length_c       11.4395
_cell_angle_alpha    90
_cell_angle_beta     124.002
_cell_angle_gamma    90

_space_group_name_H-M_alt    "P 1"
_space_group_IT_number       1

loop_
  _space_group_symop_operation_xyz
  'x, y, z'

loop_
  _atom_site_type_symbol
  _atom_site_label
  _atom_site_symmetry_multiplicity
  _atom_site_fract_x
  _atom_site_fract_y
  _atom_site_fract_z
  _atom_site_occupancy
  P   P1        1.0  0.62700  0.39200  0.06560  1.0000
  P   P2        1.0  0.37300  0.89200  0.43400  1.0000
  P   P3        1.0  0.62700  0.10800  0.56600  1.0000
  P   P4        1.0  0.37300  0.60800  0.93400  1.0000
  S   S1        1.0  0.21700  0.69100  0.03520  1.0000
  S   S2        1.0  0.40500  0.20200  0.05690  1.0000
  S   S3        1.0  0.14200  0.99500  0.24000  1.0000
  S   S4        1.0  0.85800  0.49500  0.26000  1.0000
  S   S5        1.0  0.59500  0.70200  0.44300  1.0000
  S   S6        1.0  0.78300  0.19100  0.46500  1.0000
  S   S7        1.0  0.21700  0.80900  0.53500  1.0000
  S   S8        1.0  0.40500  0.29800  0.55700  1.0000
  S   S9        1.0  0.14200  0.50500  0.74000  1.0000
  S   S10       1.0  0.85800  0.00518  0.76000  1.0000
  S   S11       1.0  0.59500  0.79800  0.94300  1.0000
  S   S12       1.0  0.78300  0.30900  0.96500  1.0000
  Sr  Sr1       1.0  0.70800  0.88900  0.24900  1.0000
  Sr  Sr2       1.0  0.29200  0.38900  0.25100  1.0000
  Sr  Sr3       1.0  0.70800  0.61100  0.74900  1.0000
  Sr  Sr4       1.0  0.29200  0.11100  0.75100  1.0000
