data_image0
_chemical_formula_structural       Ga2Nd6O12
_chemical_formula_sum              "Ga2 Nd6 O12"
_cell_length_a       5.57784
_cell_length_b       7.36526
_cell_length_c       7.36526
_cell_angle_alpha    102.797
_cell_angle_beta     90
_cell_angle_gamma    90

_space_group_name_H-M_alt    "P 1"
_space_group_IT_number       1

loop_
  _space_group_symop_operation_xyz
  'x, y, z'

loop_
  _atom_site_type_symbol
  _atom_site_label
  _atom_site_symmetry_multiplicity
  _atom_site_fract_x
  _atom_site_fract_y
  _atom_site_fract_z
  _atom_site_occupancy
  Ga  Ga1       1.0  0.00000  0.80800  0.19200  1.0000
  Ga  Ga2       1.0  0.50000  0.19200  0.80800  1.0000
  Nd  Nd1       1.0  0.96600  0.29800  0.08610  1.0000
  Nd  Nd2       1.0  0.46600  0.08610  0.29800  1.0000
  Nd  Nd3       1.0  0.42200  0.60400  0.39600  1.0000
  Nd  Nd4       1.0  0.92200  0.39600  0.60400  1.0000
  Nd  Nd5       1.0  0.96600  0.91400  0.70200  1.0000
  Nd  Nd6       1.0  0.46600  0.70200  0.91400  1.0000
  O   O1        1.0  0.13100  0.95900  0.04080  1.0000
  O   O2        1.0  0.16900  0.58400  0.10500  1.0000
  O   O3        1.0  0.67200  0.78400  0.21600  1.0000
  O   O4        1.0  0.69600  0.35400  0.32800  1.0000
  O   O5        1.0  0.19600  0.32800  0.35400  1.0000
  O   O6        1.0  0.16900  0.89500  0.41600  1.0000
  O   O7        1.0  0.66900  0.10500  0.58400  1.0000
  O   O8        1.0  0.69600  0.67200  0.64600  1.0000
  O   O9        1.0  0.19600  0.64600  0.67200  1.0000
  O   O10       1.0  0.17200  0.21600  0.78400  1.0000
  O   O11       1.0  0.66900  0.41600  0.89500  1.0000
  O   O12       1.0  0.63100  0.04080  0.95900  1.0000
