data_image0
_chemical_formula_structural       Nb6Sb4Te10
_chemical_formula_sum              "Nb6 Sb4 Te10"
_cell_length_a       8.58407
_cell_length_b       8.58407
_cell_length_c       8.58407
_cell_angle_alpha    109.471
_cell_angle_beta     109.471
_cell_angle_gamma    109.471

_space_group_name_H-M_alt    "P 1"
_space_group_IT_number       1

loop_
  _space_group_symop_operation_xyz
  'x, y, z'

loop_
  _atom_site_type_symbol
  _atom_site_label
  _atom_site_symmetry_multiplicity
  _atom_site_fract_x
  _atom_site_fract_y
  _atom_site_fract_z
  _atom_site_occupancy
  Nb  Nb1       1.0  0.34300  0.34300  0.00000  1.0000
  Nb  Nb2       1.0  0.65700  0.65700  0.00000  1.0000
  Nb  Nb3       1.0  0.34300  0.00000  0.34300  1.0000
  Nb  Nb4       1.0  0.00000  0.34300  0.34300  1.0000
  Nb  Nb5       1.0  0.65700  0.00000  0.65700  1.0000
  Nb  Nb6       1.0  0.00000  0.65700  0.65700  1.0000
  Sb  Sb1       1.0  0.66800  0.00000  0.00000  1.0000
  Sb  Sb2       1.0  0.00000  0.66800  0.00000  1.0000
  Sb  Sb3       1.0  0.33200  0.33200  0.33200  1.0000
  Sb  Sb4       1.0  0.00000  0.00000  0.66800  1.0000
  Te  Te1       1.0  0.32600  0.00000  0.00000  1.0000
  Te  Te2       1.0  0.00000  0.32600  0.00000  1.0000
  Te  Te3       1.0  0.75000  0.50000  0.25000  1.0000
  Te  Te4       1.0  0.50000  0.75000  0.25000  1.0000
  Te  Te5       1.0  0.00000  0.00000  0.32600  1.0000
  Te  Te6       1.0  0.75000  0.25000  0.50000  1.0000
  Te  Te7       1.0  0.25000  0.75000  0.50000  1.0000
  Te  Te8       1.0  0.67400  0.67400  0.67400  1.0000
  Te  Te9       1.0  0.50000  0.25000  0.75000  1.0000
  Te  Te10      1.0  0.25000  0.50000  0.75000  1.0000
