data_image0
_chemical_formula_structural       Fe2Ge4Na2O12
_chemical_formula_sum              "Fe2 Ge4 Na2 O12"
_cell_length_a       5.49555
_cell_length_b       6.68036
_cell_length_c       6.68036
_cell_angle_alpha    97.084
_cell_angle_beta     102.957
_cell_angle_gamma    77.043

_space_group_name_H-M_alt    "P 1"
_space_group_IT_number       1

loop_
  _space_group_symop_operation_xyz
  'x, y, z'

loop_
  _atom_site_type_symbol
  _atom_site_label
  _atom_site_symmetry_multiplicity
  _atom_site_fract_x
  _atom_site_fract_y
  _atom_site_fract_z
  _atom_site_occupancy
  Fe  Fe1       1.0  0.75000  0.09450  0.09450  1.0000
  Fe  Fe2       1.0  0.25000  0.90500  0.90500  1.0000
  Ge  Ge1       1.0  0.72900  0.61700  0.19300  1.0000
  Ge  Ge2       1.0  0.22900  0.80700  0.38300  1.0000
  Ge  Ge3       1.0  0.77100  0.19300  0.61700  1.0000
  Ge  Ge4       1.0  0.27100  0.38300  0.80700  1.0000
  Na  Na1       1.0  0.25000  0.30200  0.30200  1.0000
  Na  Na2       1.0  0.75000  0.69800  0.69800  1.0000
  O   O1        1.0  0.63300  0.81100  0.01970  1.0000
  O   O2        1.0  0.80400  0.36900  0.07940  1.0000
  O   O3        1.0  0.13300  0.98000  0.18900  1.0000
  O   O4        1.0  0.51400  0.62600  0.35600  1.0000
  O   O5        1.0  0.69600  0.07940  0.36900  1.0000
  O   O6        1.0  0.01440  0.64400  0.37400  1.0000
  O   O7        1.0  0.98600  0.35600  0.62600  1.0000
  O   O8        1.0  0.30400  0.92100  0.63100  1.0000
  O   O9        1.0  0.48600  0.37400  0.64400  1.0000
  O   O10       1.0  0.86700  0.01970  0.81100  1.0000
  O   O11       1.0  0.19600  0.63100  0.92100  1.0000
  O   O12       1.0  0.36700  0.18900  0.98000  1.0000
