data_image0
_chemical_formula_structural       Ba4ErO12Ru3
_chemical_formula_sum              "Ba4 Er1 O12 Ru3"
_cell_length_a       5.85861
_cell_length_b       5.85861
_cell_length_c       10.2731
_cell_angle_alpha    73.4326
_cell_angle_beta     106.567
_cell_angle_gamma    120

_space_group_name_H-M_alt    "P 1"
_space_group_IT_number       1

loop_
  _space_group_symop_operation_xyz
  'x, y, z'

loop_
  _atom_site_type_symbol
  _atom_site_label
  _atom_site_symmetry_multiplicity
  _atom_site_fract_x
  _atom_site_fract_y
  _atom_site_fract_z
  _atom_site_occupancy
  Ba  Ba1       1.0  0.71400  0.28600  0.14200  1.0000
  Ba  Ba2       1.0  0.12900  0.87100  0.38700  1.0000
  Ba  Ba3       1.0  0.87100  0.12900  0.61300  1.0000
  Ba  Ba4       1.0  0.28600  0.71400  0.85800  1.0000
  Er  Er1       1.0  0.00000  0.00000  0.00000  1.0000
  O   O1        1.0  0.21800  0.30600  0.12900  1.0000
  O   O2        1.0  0.21800  0.78200  0.12900  1.0000
  O   O3        1.0  0.69400  0.78200  0.12900  1.0000
  O   O4        1.0  0.14300  0.38500  0.37300  1.0000
  O   O5        1.0  0.61500  0.38500  0.37300  1.0000
  O   O6        1.0  0.61500  0.85700  0.37300  1.0000
  O   O7        1.0  0.38500  0.14300  0.62700  1.0000
  O   O8        1.0  0.38500  0.61500  0.62700  1.0000
  O   O9        1.0  0.85700  0.61500  0.62700  1.0000
  O   O10       1.0  0.30600  0.21800  0.87100  1.0000
  O   O11       1.0  0.78200  0.21800  0.87100  1.0000
  O   O12       1.0  0.78200  0.69400  0.87100  1.0000
  Ru  Ru1       1.0  0.41300  0.58700  0.24000  1.0000
  Ru  Ru2       1.0  0.50000  0.50000  0.50000  1.0000
  Ru  Ru3       1.0  0.58700  0.41300  0.76000  1.0000
