data_image0
_chemical_formula_structural       Ag8C4N8
_chemical_formula_sum              "Ag8 C4 N8"
_cell_length_a       7.32324
_cell_length_b       6.02368
_cell_length_c       6.63328
_cell_angle_alpha    90
_cell_angle_beta     101.981
_cell_angle_gamma    90

_space_group_name_H-M_alt    "P 1"
_space_group_IT_number       1

loop_
  _space_group_symop_operation_xyz
  'x, y, z'

loop_
  _atom_site_type_symbol
  _atom_site_label
  _atom_site_symmetry_multiplicity
  _atom_site_fract_x
  _atom_site_fract_y
  _atom_site_fract_z
  _atom_site_occupancy
  Ag  Ag1       1.0  0.00000  0.00000  0.00000  1.0000
  Ag  Ag2       1.0  0.00000  0.50000  0.00000  1.0000
  Ag  Ag3       1.0  0.67500  0.19000  0.17800  1.0000
  Ag  Ag4       1.0  0.32500  0.69000  0.32200  1.0000
  Ag  Ag5       1.0  1.00000  0.00000  0.50000  1.0000
  Ag  Ag6       1.0  1.00000  0.50000  0.50000  1.0000
  Ag  Ag7       1.0  0.67500  0.31000  0.67800  1.0000
  Ag  Ag8       1.0  0.32500  0.81000  0.82200  1.0000
  C   C1        1.0  0.70500  0.68800  0.19000  1.0000
  C   C2        1.0  0.29500  0.18800  0.31000  1.0000
  C   C3        1.0  0.70500  0.81200  0.69000  1.0000
  C   C4        1.0  0.29500  0.31200  0.81000  1.0000
  N   N1        1.0  0.59500  0.84100  0.17700  1.0000
  N   N2        1.0  0.81400  0.52200  0.20700  1.0000
  N   N3        1.0  0.18600  0.02230  0.29300  1.0000
  N   N4        1.0  0.40500  0.34100  0.32300  1.0000
  N   N5        1.0  0.59500  0.65900  0.67700  1.0000
  N   N6        1.0  0.81400  0.97800  0.70700  1.0000
  N   N7        1.0  0.18600  0.47800  0.79300  1.0000
  N   N8        1.0  0.40500  0.15900  0.82300  1.0000
