data_image0
_chemical_formula_structural       La4Li2O12Os2
_chemical_formula_sum              "La4 Li2 O12 Os2"
_cell_length_a       5.54416
_cell_length_b       5.66685
_cell_length_c       7.84402
_cell_angle_alpha    90
_cell_angle_beta     90.1915
_cell_angle_gamma    90

_space_group_name_H-M_alt    "P 1"
_space_group_IT_number       1

loop_
  _space_group_symop_operation_xyz
  'x, y, z'

loop_
  _atom_site_type_symbol
  _atom_site_label
  _atom_site_symmetry_multiplicity
  _atom_site_fract_x
  _atom_site_fract_y
  _atom_site_fract_z
  _atom_site_occupancy
  La  La1       1.0  0.00987  0.55000  0.24900  1.0000
  La  La2       1.0  0.49000  0.05010  0.25100  1.0000
  La  La3       1.0  0.51000  0.95000  0.74900  1.0000
  La  La4       1.0  0.99000  0.45000  0.75100  1.0000
  Li  Li1       1.0  0.00000  0.00000  0.00000  1.0000
  Li  Li2       1.0  0.50000  0.50000  0.50000  1.0000
  O   O1        1.0  0.21300  0.30200  0.04380  1.0000
  O   O2        1.0  0.30500  0.78600  0.04600  1.0000
  O   O3        1.0  0.58500  0.47800  0.24400  1.0000
  O   O4        1.0  0.91500  0.97800  0.25600  1.0000
  O   O5        1.0  0.19500  0.28600  0.45400  1.0000
  O   O6        1.0  0.28700  0.80200  0.45600  1.0000
  O   O7        1.0  0.71300  0.19800  0.54400  1.0000
  O   O8        1.0  0.80500  0.71400  0.54600  1.0000
  O   O9        1.0  0.08510  0.02210  0.74400  1.0000
  O   O10       1.0  0.41500  0.52200  0.75600  1.0000
  O   O11       1.0  0.69500  0.21400  0.95400  1.0000
  O   O12       1.0  0.78700  0.69800  0.95600  1.0000
  Os  Os1       1.0  0.50000  0.50000  1.00000  1.0000
  Os  Os2       1.0  0.00000  0.00000  0.50000  1.0000
