data_image0
_chemical_formula_structural       Pb4Pt8Yb8
_chemical_formula_sum              "Pb4 Pt8 Yb8"
_cell_length_a       7.75314
_cell_length_b       7.75314
_cell_length_c       7.30077
_cell_angle_alpha    90
_cell_angle_beta     90
_cell_angle_gamma    90

_space_group_name_H-M_alt    "P 1"
_space_group_IT_number       1

loop_
  _space_group_symop_operation_xyz
  'x, y, z'

loop_
  _atom_site_type_symbol
  _atom_site_label
  _atom_site_symmetry_multiplicity
  _atom_site_fract_x
  _atom_site_fract_y
  _atom_site_fract_z
  _atom_site_occupancy
  Pb  Pb1       1.0  0.50000  0.00000  0.25000  1.0000
  Pb  Pb2       1.0  0.00000  0.50000  0.25000  1.0000
  Pb  Pb3       1.0  0.50000  0.00000  0.75000  1.0000
  Pb  Pb4       1.0  0.00000  0.50000  0.75000  1.0000
  Pt  Pt1       1.0  0.86700  0.13300  0.23200  1.0000
  Pt  Pt2       1.0  0.13300  0.86700  0.23200  1.0000
  Pt  Pt3       1.0  0.36700  0.36700  0.26800  1.0000
  Pt  Pt4       1.0  0.63300  0.63300  0.26800  1.0000
  Pt  Pt5       1.0  0.36700  0.36700  0.73200  1.0000
  Pt  Pt6       1.0  0.63300  0.63300  0.73200  1.0000
  Pt  Pt7       1.0  0.86700  0.13300  0.76800  1.0000
  Pt  Pt8       1.0  0.13300  0.86700  0.76800  1.0000
  Yb  Yb1       1.0  0.17400  0.17400  0.00000  1.0000
  Yb  Yb2       1.0  0.65500  0.34500  0.00000  1.0000
  Yb  Yb3       1.0  0.34500  0.65500  0.00000  1.0000
  Yb  Yb4       1.0  0.82600  0.82600  0.00000  1.0000
  Yb  Yb5       1.0  0.15500  0.15500  0.50000  1.0000
  Yb  Yb6       1.0  0.67400  0.32600  0.50000  1.0000
  Yb  Yb7       1.0  0.32600  0.67400  0.50000  1.0000
  Yb  Yb8       1.0  0.84500  0.84500  0.50000  1.0000
