data_image0
_chemical_formula_structural       Hf4Ni4Sn2
_chemical_formula_sum              "Hf4 Ni4 Sn2"
_cell_length_a       7.06417
_cell_length_b       7.06417
_cell_length_c       3.3816
_cell_angle_alpha    90
_cell_angle_beta     90
_cell_angle_gamma    90

_space_group_name_H-M_alt    "P 1"
_space_group_IT_number       1

loop_
  _space_group_symop_operation_xyz
  'x, y, z'

loop_
  _atom_site_type_symbol
  _atom_site_label
  _atom_site_symmetry_multiplicity
  _atom_site_fract_x
  _atom_site_fract_y
  _atom_site_fract_z
  _atom_site_occupancy
  Hf  Hf1       1.0  0.33400  0.16600  0.50000  1.0000
  Hf  Hf2       1.0  0.83400  0.33400  0.50000  1.0000
  Hf  Hf3       1.0  0.16600  0.66600  0.50000  1.0000
  Hf  Hf4       1.0  0.66600  0.83400  0.50000  1.0000
  Ni  Ni1       1.0  0.62600  0.12600  0.00000  1.0000
  Ni  Ni2       1.0  0.12600  0.37400  0.00000  1.0000
  Ni  Ni3       1.0  0.87400  0.62600  0.00000  1.0000
  Ni  Ni4       1.0  0.37400  0.87400  0.00000  1.0000
  Sn  Sn1       1.0  0.00000  0.00000  0.00000  1.0000
  Sn  Sn2       1.0  0.50000  0.50000  0.00000  1.0000
