data_image0
_chemical_formula_structural       Ni11Zr9
_chemical_formula_sum              "Ni11 Zr9"
_cell_length_a       6.48526
_cell_length_b       7.74585
_cell_length_c       7.74585
_cell_angle_alpha    100.093
_cell_angle_beta     65.252
_cell_angle_gamma    114.748

_space_group_name_H-M_alt    "P 1"
_space_group_IT_number       1

loop_
  _space_group_symop_operation_xyz
  'x, y, z'

loop_
  _atom_site_type_symbol
  _atom_site_label
  _atom_site_symmetry_multiplicity
  _atom_site_fract_x
  _atom_site_fract_y
  _atom_site_fract_z
  _atom_site_occupancy
  Ni  Ni1       1.0  0.50000  0.00000  0.00000  1.0000
  Ni  Ni2       1.0  0.32400  0.34200  0.10400  1.0000
  Ni  Ni3       1.0  0.91400  0.34200  0.10400  1.0000
  Ni  Ni4       1.0  0.57200  0.89600  0.34200  1.0000
  Ni  Ni5       1.0  0.98200  0.89600  0.34200  1.0000
  Ni  Ni6       1.0  0.25000  0.50000  0.50000  1.0000
  Ni  Ni7       1.0  0.75000  0.50000  0.50000  1.0000
  Ni  Ni8       1.0  0.01840  0.10400  0.65800  1.0000
  Ni  Ni9       1.0  0.42800  0.10400  0.65800  1.0000
  Ni  Ni10      1.0  0.08600  0.65800  0.89600  1.0000
  Ni  Ni11      1.0  0.67600  0.65800  0.89600  1.0000
  Zr  Zr1       1.0  0.00000  0.00000  0.00000  1.0000
  Zr  Zr2       1.0  0.24800  0.66300  0.16800  1.0000
  Zr  Zr3       1.0  0.68900  0.59800  0.22000  1.0000
  Zr  Zr4       1.0  0.41600  0.16800  0.33700  1.0000
  Zr  Zr5       1.0  0.90900  0.22000  0.40200  1.0000
  Zr  Zr6       1.0  0.09080  0.78000  0.59800  1.0000
  Zr  Zr7       1.0  0.58400  0.83200  0.66300  1.0000
  Zr  Zr8       1.0  0.31100  0.40200  0.78000  1.0000
  Zr  Zr9       1.0  0.75200  0.33700  0.83200  1.0000
