data_image0
_chemical_formula_structural       La2O12Sb2Sr4
_chemical_formula_sum              "La2 O12 Sb2 Sr4"
_cell_length_a       5.90596
_cell_length_b       6.00863
_cell_length_c       8.39826
_cell_angle_alpha    90
_cell_angle_beta     90.3589
_cell_angle_gamma    90

_space_group_name_H-M_alt    "P 1"
_space_group_IT_number       1

loop_
  _space_group_symop_operation_xyz
  'x, y, z'

loop_
  _atom_site_type_symbol
  _atom_site_label
  _atom_site_symmetry_multiplicity
  _atom_site_fract_x
  _atom_site_fract_y
  _atom_site_fract_z
  _atom_site_occupancy
  La  La1       1.0  0.50000  0.00000  0.00000  1.0000
  La  La2       1.0  0.00000  0.50000  0.50000  1.0000
  O   O1        1.0  0.27200  0.31200  0.04770  1.0000
  O   O2        1.0  0.18200  0.77400  0.05650  1.0000
  O   O3        1.0  0.90200  0.46300  0.22800  1.0000
  O   O4        1.0  0.59800  0.96300  0.27200  1.0000
  O   O5        1.0  0.31800  0.27400  0.44400  1.0000
  O   O6        1.0  0.22800  0.81200  0.45200  1.0000
  O   O7        1.0  0.77200  0.18800  0.54800  1.0000
  O   O8        1.0  0.68200  0.72600  0.55600  1.0000
  O   O9        1.0  0.40200  0.03710  0.72800  1.0000
  O   O10       1.0  0.09820  0.53700  0.77200  1.0000
  O   O11       1.0  0.81800  0.22600  0.94400  1.0000
  O   O12       1.0  0.72800  0.68800  0.95200  1.0000
  Sb  Sb1       1.0  0.00000  0.50000  0.00000  1.0000
  Sb  Sb2       1.0  0.50000  0.00000  0.50000  1.0000
  Sr  Sr1       1.0  0.48800  0.54300  0.24900  1.0000
  Sr  Sr2       1.0  0.01180  0.04270  0.25100  1.0000
  Sr  Sr3       1.0  0.98800  0.95700  0.74900  1.0000
  Sr  Sr4       1.0  0.51200  0.45700  0.75100  1.0000
