data_image0
_chemical_formula_structural       Cl6Hg4K2O6S2
_chemical_formula_sum              "Cl6 Hg4 K2 O6 S2"
_cell_length_a       11.3974
_cell_length_b       5.94974
_cell_length_c       6.82641
_cell_angle_alpha    90
_cell_angle_beta     90
_cell_angle_gamma    105.13

_space_group_name_H-M_alt    "P 1"
_space_group_IT_number       1

loop_
  _space_group_symop_operation_xyz
  'x, y, z'

loop_
  _atom_site_type_symbol
  _atom_site_label
  _atom_site_symmetry_multiplicity
  _atom_site_fract_x
  _atom_site_fract_y
  _atom_site_fract_z
  _atom_site_occupancy
  Cl  Cl1       1.0  0.90000  0.45000  0.24100  1.0000
  Cl  Cl2       1.0  0.07500  0.03750  0.37600  1.0000
  Cl  Cl3       1.0  0.69100  0.84500  0.44800  1.0000
  Cl  Cl4       1.0  0.10000  0.55000  0.74100  1.0000
  Cl  Cl5       1.0  0.92500  0.96300  0.87600  1.0000
  Cl  Cl6       1.0  0.30900  0.15500  0.94800  1.0000
  Hg  Hg1       1.0  0.80100  0.90000  0.15600  1.0000
  Hg  Hg2       1.0  0.11900  0.56000  0.27200  1.0000
  Hg  Hg3       1.0  0.19900  0.09970  0.65600  1.0000
  Hg  Hg4       1.0  0.88100  0.44000  0.77200  1.0000
  K   K1        1.0  0.52400  0.26200  0.30100  1.0000
  K   K2        1.0  0.47600  0.73800  0.80100  1.0000
  O   O1        1.0  0.40700  0.70300  0.16900  1.0000
  O   O2        1.0  0.35500  0.47200  0.46900  1.0000
  O   O3        1.0  0.35500  0.88300  0.46900  1.0000
  O   O4        1.0  0.59300  0.29700  0.66900  1.0000
  O   O5        1.0  0.64500  0.11700  0.96900  1.0000
  O   O6        1.0  0.64500  0.52800  0.96900  1.0000
  S   S1        1.0  0.33400  0.66700  0.34900  1.0000
  S   S2        1.0  0.66600  0.33300  0.84900  1.0000
