data_image0
_chemical_formula_structural       C4Gd2K2O12
_chemical_formula_sum              "C4 Gd2 K2 O12"
_cell_length_a       6.38538
_cell_length_b       6.38538
_cell_length_c       6.86773
_cell_angle_alpha    103.472
_cell_angle_beta     103.472
_cell_angle_gamma    96.8689

_space_group_name_H-M_alt    "P 1"
_space_group_IT_number       1

loop_
  _space_group_symop_operation_xyz
  'x, y, z'

loop_
  _atom_site_type_symbol
  _atom_site_label
  _atom_site_symmetry_multiplicity
  _atom_site_fract_x
  _atom_site_fract_y
  _atom_site_fract_z
  _atom_site_occupancy
  C   C1        1.0  0.38800  0.14500  0.23900  1.0000
  C   C2        1.0  0.85500  0.61200  0.26100  1.0000
  C   C3        1.0  0.14500  0.38800  0.73900  1.0000
  C   C4        1.0  0.61200  0.85500  0.76100  1.0000
  Gd  Gd1       1.0  0.40300  0.59700  0.25000  1.0000
  Gd  Gd2       1.0  0.59700  0.40300  0.75000  1.0000
  K   K1        1.0  0.87800  0.12200  0.25000  1.0000
  K   K2        1.0  0.12200  0.87800  0.75000  1.0000
  O   O1        1.0  0.70400  0.46800  0.11100  1.0000
  O   O2        1.0  0.24500  0.21300  0.11400  1.0000
  O   O3        1.0  0.39600  0.94200  0.21500  1.0000
  O   O4        1.0  0.05770  0.60400  0.28500  1.0000
  O   O5        1.0  0.78700  0.75500  0.38600  1.0000
  O   O6        1.0  0.53200  0.29600  0.38900  1.0000
  O   O7        1.0  0.46800  0.70400  0.61100  1.0000
  O   O8        1.0  0.21300  0.24500  0.61400  1.0000
  O   O9        1.0  0.94200  0.39600  0.71500  1.0000
  O   O10       1.0  0.60400  0.05770  0.78500  1.0000
  O   O11       1.0  0.75500  0.78700  0.88600  1.0000
  O   O12       1.0  0.29600  0.53200  0.88900  1.0000
