data_image0
_chemical_formula_structural       Ba4Ca2O12U2
_chemical_formula_sum              "Ba4 Ca2 O12 U2"
_cell_length_a       6.17846
_cell_length_b       6.12592
_cell_length_c       8.67179
_cell_angle_alpha    90
_cell_angle_beta     90.1212
_cell_angle_gamma    90

_space_group_name_H-M_alt    "P 1"
_space_group_IT_number       1

loop_
  _space_group_symop_operation_xyz
  'x, y, z'

loop_
  _atom_site_type_symbol
  _atom_site_label
  _atom_site_symmetry_multiplicity
  _atom_site_fract_x
  _atom_site_fract_y
  _atom_site_fract_z
  _atom_site_occupancy
  Ba  Ba1       1.0  0.49400  0.48400  0.24900  1.0000
  Ba  Ba2       1.0  0.00579  0.98400  0.25100  1.0000
  Ba  Ba3       1.0  0.99400  0.01600  0.74900  1.0000
  Ba  Ba4       1.0  0.50600  0.51600  0.75100  1.0000
  Ca  Ca1       1.0  0.50000  0.00000  1.00000  1.0000
  Ca  Ca2       1.0  0.00000  0.50000  0.50000  1.0000
  O   O1        1.0  0.25800  0.71800  0.03740  1.0000
  O   O2        1.0  0.21700  0.24000  0.04010  1.0000
  O   O3        1.0  0.92900  0.51100  0.23700  1.0000
  O   O4        1.0  0.57100  0.01140  0.26300  1.0000
  O   O5        1.0  0.28300  0.74000  0.46000  1.0000
  O   O6        1.0  0.24200  0.21800  0.46300  1.0000
  O   O7        1.0  0.75800  0.78200  0.53700  1.0000
  O   O8        1.0  0.71700  0.26000  0.54000  1.0000
  O   O9        1.0  0.42900  0.98900  0.73700  1.0000
  O   O10       1.0  0.07140  0.48900  0.76300  1.0000
  O   O11       1.0  0.78300  0.76000  0.96000  1.0000
  O   O12       1.0  0.74200  0.28200  0.96300  1.0000
  U   U1        1.0  0.00000  0.50000  0.00000  1.0000
  U   U2        1.0  0.50000  0.00000  0.50000  1.0000
