data_image0
_chemical_formula_structural       B8Be4C8
_chemical_formula_sum              "B8 Be4 C8"
_cell_length_a       6.11733
_cell_length_b       5.42687
_cell_length_c       4.69656
_cell_angle_alpha    90
_cell_angle_beta     90
_cell_angle_gamma    90

_space_group_name_H-M_alt    "P 1"
_space_group_IT_number       1

loop_
  _space_group_symop_operation_xyz
  'x, y, z'

loop_
  _atom_site_type_symbol
  _atom_site_label
  _atom_site_symmetry_multiplicity
  _atom_site_fract_x
  _atom_site_fract_y
  _atom_site_fract_z
  _atom_site_occupancy
  B   B1        1.0  0.25000  0.00174  0.00807  1.0000
  B   B2        1.0  0.25000  0.49800  0.00807  1.0000
  B   B3        1.0  0.75000  0.25000  0.47800  1.0000
  B   B4        1.0  0.25000  0.25000  0.49900  1.0000
  B   B5        1.0  0.75000  0.75000  0.50100  1.0000
  B   B6        1.0  0.25000  0.75000  0.52200  1.0000
  B   B7        1.0  0.75000  0.50200  0.99200  1.0000
  B   B8        1.0  0.75000  0.99800  0.99200  1.0000
  Be  Be1       1.0  0.04650  0.75000  0.18400  1.0000
  Be  Be2       1.0  0.45400  0.75000  0.18400  1.0000
  Be  Be3       1.0  0.54600  0.25000  0.81600  1.0000
  Be  Be4       1.0  0.95400  0.25000  0.81600  1.0000
  C   C1        1.0  0.75000  0.25000  0.14500  1.0000
  C   C2        1.0  0.75000  0.75000  0.16600  1.0000
  C   C3        1.0  0.25000  0.50700  0.34000  1.0000
  C   C4        1.0  0.25000  0.99300  0.34000  1.0000
  C   C5        1.0  0.75000  0.00702  0.66000  1.0000
  C   C6        1.0  0.75000  0.49300  0.66000  1.0000
  C   C7        1.0  0.25000  0.25000  0.83400  1.0000
  C   C8        1.0  0.25000  0.75000  0.85500  1.0000
