data_image0
_chemical_formula_structural       B8Cr8Ir4
_chemical_formula_sum              "B8 Cr8 Ir4"
_cell_length_a       2.88705
_cell_length_b       5.23383
_cell_length_c       13.4594
_cell_angle_alpha    90
_cell_angle_beta     90
_cell_angle_gamma    73.9899

_space_group_name_H-M_alt    "P 1"
_space_group_IT_number       1

loop_
  _space_group_symop_operation_xyz
  'x, y, z'

loop_
  _atom_site_type_symbol
  _atom_site_label
  _atom_site_symmetry_multiplicity
  _atom_site_fract_x
  _atom_site_fract_y
  _atom_site_fract_z
  _atom_site_occupancy
  B   B1        1.0  0.20200  0.59600  0.13000  1.0000
  B   B2        1.0  0.36600  0.26900  0.18200  1.0000
  B   B3        1.0  0.36600  0.26900  0.31800  1.0000
  B   B4        1.0  0.20200  0.59600  0.37000  1.0000
  B   B5        1.0  0.79800  0.40400  0.63000  1.0000
  B   B6        1.0  0.63400  0.73100  0.68200  1.0000
  B   B7        1.0  0.63400  0.73100  0.81800  1.0000
  B   B8        1.0  0.79800  0.40400  0.87000  1.0000
  Cr  Cr1       1.0  0.82600  0.34900  0.05850  1.0000
  Cr  Cr2       1.0  0.73100  0.53700  0.25000  1.0000
  Cr  Cr3       1.0  0.00318  0.99400  0.25000  1.0000
  Cr  Cr4       1.0  0.82600  0.34900  0.44100  1.0000
  Cr  Cr5       1.0  0.17400  0.65100  0.55900  1.0000
  Cr  Cr6       1.0  0.99700  0.00636  0.75000  1.0000
  Cr  Cr7       1.0  0.26900  0.46300  0.75000  1.0000
  Cr  Cr8       1.0  0.17400  0.65100  0.94100  1.0000
  Ir  Ir1       1.0  0.55600  0.88800  0.08890  1.0000
  Ir  Ir2       1.0  0.55600  0.88800  0.41100  1.0000
  Ir  Ir3       1.0  0.44400  0.11200  0.58900  1.0000
  Ir  Ir4       1.0  0.44400  0.11200  0.91100  1.0000
