data_image0
_chemical_formula_structural       C8Mo4Pr8
_chemical_formula_sum              "C8 Mo4 Pr8"
_cell_length_a       5.85504
_cell_length_b       5.85504
_cell_length_c       10.4841
_cell_angle_alpha    90
_cell_angle_beta     90
_cell_angle_gamma    90

_space_group_name_H-M_alt    "P 1"
_space_group_IT_number       1

loop_
  _space_group_symop_operation_xyz
  'x, y, z'

loop_
  _atom_site_type_symbol
  _atom_site_label
  _atom_site_symmetry_multiplicity
  _atom_site_fract_x
  _atom_site_fract_y
  _atom_site_fract_z
  _atom_site_occupancy
  C   C1        1.0  0.50000  0.00000  0.00000  1.0000
  C   C2        1.0  0.00000  0.50000  0.00000  1.0000
  C   C3        1.0  0.00000  0.00000  0.14200  1.0000
  C   C4        1.0  0.50000  0.50000  0.35800  1.0000
  C   C5        1.0  0.50000  0.00000  0.50000  1.0000
  C   C6        1.0  0.00000  0.50000  0.50000  1.0000
  C   C7        1.0  0.50000  0.50000  0.64200  1.0000
  C   C8        1.0  0.00000  0.00000  0.85800  1.0000
  Mo  Mo1       1.0  0.17500  0.17500  0.00000  1.0000
  Mo  Mo2       1.0  0.82500  0.82500  0.00000  1.0000
  Mo  Mo3       1.0  0.67500  0.32500  0.50000  1.0000
  Mo  Mo4       1.0  0.32500  0.67500  0.50000  1.0000
  Pr  Pr1       1.0  0.69700  0.30300  0.15600  1.0000
  Pr  Pr2       1.0  0.30300  0.69700  0.15600  1.0000
  Pr  Pr3       1.0  0.19700  0.19700  0.34400  1.0000
  Pr  Pr4       1.0  0.80300  0.80300  0.34400  1.0000
  Pr  Pr5       1.0  0.19700  0.19700  0.65600  1.0000
  Pr  Pr6       1.0  0.80300  0.80300  0.65600  1.0000
  Pr  Pr7       1.0  0.69700  0.30300  0.84400  1.0000
  Pr  Pr8       1.0  0.30300  0.69700  0.84400  1.0000
