data_image0
_chemical_formula_structural       Au8In8Sr4
_chemical_formula_sum              "Au8 In8 Sr4"
_cell_length_a       8.65986
_cell_length_b       4.66043
_cell_length_c       12.435
_cell_angle_alpha    90
_cell_angle_beta     90
_cell_angle_gamma    90

_space_group_name_H-M_alt    "P 1"
_space_group_IT_number       1

loop_
  _space_group_symop_operation_xyz
  'x, y, z'

loop_
  _atom_site_type_symbol
  _atom_site_label
  _atom_site_symmetry_multiplicity
  _atom_site_fract_x
  _atom_site_fract_y
  _atom_site_fract_z
  _atom_site_occupancy
  Au  Au1       1.0  0.09450  0.25000  0.01500  1.0000
  Au  Au2       1.0  0.49100  0.75000  0.17000  1.0000
  Au  Au3       1.0  0.99100  0.75000  0.33000  1.0000
  Au  Au4       1.0  0.59400  0.25000  0.48500  1.0000
  Au  Au5       1.0  0.40600  0.75000  0.51500  1.0000
  Au  Au6       1.0  0.00913  0.25000  0.67000  1.0000
  Au  Au7       1.0  0.50900  0.25000  0.83000  1.0000
  Au  Au8       1.0  0.90600  0.75000  0.98500  1.0000
  In  In1       1.0  0.40600  0.25000  0.05230  1.0000
  In  In2       1.0  0.15500  0.75000  0.13900  1.0000
  In  In3       1.0  0.65500  0.75000  0.36100  1.0000
  In  In4       1.0  0.90600  0.25000  0.44800  1.0000
  In  In5       1.0  0.09450  0.75000  0.55200  1.0000
  In  In6       1.0  0.34500  0.25000  0.63900  1.0000
  In  In7       1.0  0.84500  0.25000  0.86100  1.0000
  In  In8       1.0  0.59400  0.75000  0.94800  1.0000
  Sr  Sr1       1.0  0.78900  0.25000  0.16700  1.0000
  Sr  Sr2       1.0  0.28900  0.25000  0.33300  1.0000
  Sr  Sr3       1.0  0.71100  0.75000  0.66700  1.0000
  Sr  Sr4       1.0  0.21100  0.75000  0.83300  1.0000
