data_image0
_chemical_formula_structural       Fe2O12Sr4U2
_chemical_formula_sum              "Fe2 O12 Sr4 U2"
_cell_length_a       5.79526
_cell_length_b       5.80784
_cell_length_c       8.1814
_cell_angle_alpha    90
_cell_angle_beta     90.2317
_cell_angle_gamma    90

_space_group_name_H-M_alt    "P 1"
_space_group_IT_number       1

loop_
  _space_group_symop_operation_xyz
  'x, y, z'

loop_
  _atom_site_type_symbol
  _atom_site_label
  _atom_site_symmetry_multiplicity
  _atom_site_fract_x
  _atom_site_fract_y
  _atom_site_fract_z
  _atom_site_occupancy
  Fe  Fe1       1.0  0.50000  0.00000  0.00000  1.0000
  Fe  Fe2       1.0  0.00000  0.50000  0.50000  1.0000
  O   O1        1.0  0.70700  0.27700  0.03930  1.0000
  O   O2        1.0  0.77600  0.79200  0.04050  1.0000
  O   O3        1.0  0.42400  0.98300  0.24100  1.0000
  O   O4        1.0  0.07550  0.48300  0.25900  1.0000
  O   O5        1.0  0.72400  0.29200  0.46000  1.0000
  O   O6        1.0  0.79300  0.77700  0.46100  1.0000
  O   O7        1.0  0.20700  0.22300  0.53900  1.0000
  O   O8        1.0  0.27600  0.70800  0.54000  1.0000
  O   O9        1.0  0.92400  0.51700  0.74100  1.0000
  O   O10       1.0  0.57600  0.01670  0.75900  1.0000
  O   O11       1.0  0.22400  0.20800  0.96000  1.0000
  O   O12       1.0  0.29300  0.72300  0.96100  1.0000
  Sr  Sr1       1.0  0.50700  0.53000  0.24900  1.0000
  Sr  Sr2       1.0  0.99300  0.03020  0.25100  1.0000
  Sr  Sr3       1.0  0.00714  0.97000  0.74900  1.0000
  Sr  Sr4       1.0  0.49300  0.47000  0.75100  1.0000
  U   U1        1.0  0.00000  0.50000  0.00000  1.0000
  U   U2        1.0  0.50000  0.00000  0.50000  1.0000
