data_image0
_chemical_formula_structural       O12Sb2Sm2Sr4
_chemical_formula_sum              "O12 Sb2 Sm2 Sr4"
_cell_length_a       5.84683
_cell_length_b       5.94708
_cell_length_c       8.32297
_cell_angle_alpha    90
_cell_angle_beta     90.2867
_cell_angle_gamma    90

_space_group_name_H-M_alt    "P 1"
_space_group_IT_number       1

loop_
  _space_group_symop_operation_xyz
  'x, y, z'

loop_
  _atom_site_type_symbol
  _atom_site_label
  _atom_site_symmetry_multiplicity
  _atom_site_fract_x
  _atom_site_fract_y
  _atom_site_fract_z
  _atom_site_occupancy
  O   O1        1.0  0.27500  0.30700  0.04370  1.0000
  O   O2        1.0  0.18900  0.77400  0.04930  1.0000
  O   O3        1.0  0.91200  0.47100  0.23200  1.0000
  O   O4        1.0  0.58800  0.97100  0.26800  1.0000
  O   O5        1.0  0.31100  0.27400  0.45100  1.0000
  O   O6        1.0  0.22500  0.80700  0.45600  1.0000
  O   O7        1.0  0.77500  0.19300  0.54400  1.0000
  O   O8        1.0  0.68900  0.72600  0.54900  1.0000
  O   O9        1.0  0.41200  0.02910  0.73200  1.0000
  O   O10       1.0  0.08770  0.52900  0.76800  1.0000
  O   O11       1.0  0.81100  0.22600  0.95100  1.0000
  O   O12       1.0  0.72500  0.69300  0.95600  1.0000
  Sb  Sb1       1.0  0.00000  0.50000  0.00000  1.0000
  Sb  Sb2       1.0  0.50000  0.00000  0.50000  1.0000
  Sm  Sm1       1.0  0.50000  0.00000  0.00000  1.0000
  Sm  Sm2       1.0  0.00000  0.50000  0.50000  1.0000
  Sr  Sr1       1.0  0.48900  0.54000  0.25000  1.0000
  Sr  Sr2       1.0  0.01050  0.04020  0.25000  1.0000
  Sr  Sr3       1.0  0.98900  0.96000  0.75000  1.0000
  Sr  Sr4       1.0  0.51100  0.46000  0.75000  1.0000
