data_image0
_chemical_formula_structural       Ag4I4Se12
_chemical_formula_sum              "Ag4 I4 Se12"
_cell_length_a       15.07
_cell_length_b       4.74012
_cell_length_c       8.3067
_cell_angle_alpha    90
_cell_angle_beta     90
_cell_angle_gamma    90

_space_group_name_H-M_alt    "P 1"
_space_group_IT_number       1

loop_
  _space_group_symop_operation_xyz
  'x, y, z'

loop_
  _atom_site_type_symbol
  _atom_site_label
  _atom_site_symmetry_multiplicity
  _atom_site_fract_x
  _atom_site_fract_y
  _atom_site_fract_z
  _atom_site_occupancy
  Ag  Ag1       1.0  0.25000  0.69700  0.25000  1.0000
  Ag  Ag2       1.0  0.75000  0.69700  0.25000  1.0000
  Ag  Ag3       1.0  0.25000  0.30300  0.75000  1.0000
  Ag  Ag4       1.0  0.75000  0.30300  0.75000  1.0000
  I   I1        1.0  0.33800  0.00000  0.00000  1.0000
  I   I2        1.0  0.66200  0.00000  0.00000  1.0000
  I   I3        1.0  0.16200  0.00000  0.50000  1.0000
  I   I4        1.0  0.83800  0.00000  0.50000  1.0000
  Se  Se1       1.0  0.12000  0.37400  0.12800  1.0000
  Se  Se2       1.0  0.88000  0.37400  0.12800  1.0000
  Se  Se3       1.0  0.50000  0.60300  0.23800  1.0000
  Se  Se4       1.0  0.00000  0.60300  0.26200  1.0000
  Se  Se5       1.0  0.38000  0.37400  0.37200  1.0000
  Se  Se6       1.0  0.62000  0.37400  0.37200  1.0000
  Se  Se7       1.0  0.38000  0.62600  0.62800  1.0000
  Se  Se8       1.0  0.62000  0.62600  0.62800  1.0000
  Se  Se9       1.0  0.00000  0.39700  0.73800  1.0000
  Se  Se10      1.0  0.50000  0.39700  0.76200  1.0000
  Se  Se11      1.0  0.12000  0.62600  0.87200  1.0000
  Se  Se12      1.0  0.88000  0.62600  0.87200  1.0000
