data_image0
_chemical_formula_structural       Br12Na6Sc2
_chemical_formula_sum              "Br12 Na6 Sc2"
_cell_length_a       7.2865
_cell_length_b       7.2867
_cell_length_c       13.0636
_cell_angle_alpha    90.0004
_cell_angle_beta     89.9998
_cell_angle_gamma    120.001

_space_group_name_H-M_alt    "P 1"
_space_group_IT_number       1

loop_
  _space_group_symop_operation_xyz
  'x, y, z'

loop_
  _atom_site_type_symbol
  _atom_site_label
  _atom_site_symmetry_multiplicity
  _atom_site_fract_x
  _atom_site_fract_y
  _atom_site_fract_z
  _atom_site_occupancy
  Br  Br1       1.0  0.04560  0.36400  0.12900  1.0000
  Br  Br2       1.0  0.63600  0.68200  0.12900  1.0000
  Br  Br3       1.0  0.31800  0.95400  0.12900  1.0000
  Br  Br4       1.0  0.31800  0.36400  0.37100  1.0000
  Br  Br5       1.0  0.63600  0.95400  0.37100  1.0000
  Br  Br6       1.0  0.04560  0.68200  0.37100  1.0000
  Br  Br7       1.0  0.95400  0.31800  0.62900  1.0000
  Br  Br8       1.0  0.36400  0.04560  0.62900  1.0000
  Br  Br9       1.0  0.68200  0.63600  0.62900  1.0000
  Br  Br10      1.0  0.68200  0.04560  0.87100  1.0000
  Br  Br11      1.0  0.36400  0.31800  0.87100  1.0000
  Br  Br12      1.0  0.95400  0.63600  0.87100  1.0000
  Na  Na1       1.0  0.66700  0.33300  0.03890  1.0000
  Na  Na2       1.0  0.99999  0.99999  0.25000  1.0000
  Na  Na3       1.0  0.66700  0.33300  0.46100  1.0000
  Na  Na4       1.0  0.33300  0.66700  0.53900  1.0000
  Na  Na5       1.0  0.00001  0.00001  0.75000  1.0000
  Na  Na6       1.0  0.33300  0.66700  0.96100  1.0000
  Sc  Sc1       1.0  0.33400  0.66700  0.25000  1.0000
  Sc  Sc2       1.0  0.66600  0.33300  0.75000  1.0000
