data_image0
_chemical_formula_structural       Cl9Cs5Nb2S4
_chemical_formula_sum              "Cl9 Cs5 Nb2 S4"
_cell_length_a       7.28506
_cell_length_b       10.4079
_cell_length_c       10.4081
_cell_angle_alpha    119.999
_cell_angle_beta     110.485
_cell_angle_gamma    90

_space_group_name_H-M_alt    "P 1"
_space_group_IT_number       1

loop_
  _space_group_symop_operation_xyz
  'x, y, z'

loop_
  _atom_site_type_symbol
  _atom_site_label
  _atom_site_symmetry_multiplicity
  _atom_site_fract_x
  _atom_site_fract_y
  _atom_site_fract_z
  _atom_site_occupancy
  Cl  Cl1       1.0  0.50000  0.50000  0.00000  1.0000
  Cl  Cl2       1.0  0.12900  0.37500  0.25800  1.0000
  Cl  Cl3       1.0  0.12900  0.88200  0.25800  1.0000
  Cl  Cl4       1.0  0.44100  0.20200  0.40500  1.0000
  Cl  Cl5       1.0  0.96400  0.20200  0.40500  1.0000
  Cl  Cl6       1.0  0.03600  0.79800  0.59500  1.0000
  Cl  Cl7       1.0  0.55900  0.79800  0.59500  1.0000
  Cl  Cl8       1.0  0.87100  0.11800  0.74200  1.0000
  Cl  Cl9       1.0  0.87100  0.62500  0.74200  1.0000
  Cs  Cs1       1.0  0.00000  0.50000  0.00000  1.0000
  Cs  Cs2       1.0  0.66400  0.44400  0.32800  1.0000
  Cs  Cs3       1.0  0.66400  0.88400  0.32800  1.0000
  Cs  Cs4       1.0  0.33600  0.11600  0.67200  1.0000
  Cs  Cs5       1.0  0.33600  0.55600  0.67200  1.0000
  Nb  Nb1       1.0  0.08920  0.08920  0.17800  1.0000
  Nb  Nb2       1.0  0.91100  0.91100  0.82200  1.0000
  S   S1        1.0  0.24400  0.09670  0.00000  1.0000
  S   S2        1.0  0.75600  0.09670  0.00000  1.0000
  S   S3        1.0  0.24400  0.90300  0.00000  1.0000
  S   S4        1.0  0.75600  0.90300  0.00000  1.0000
