data_image0
_chemical_formula_structural       Al4Ba7Ge9
_chemical_formula_sum              "Al4 Ba7 Ge9"
_cell_length_a       6.78905
_cell_length_b       6.78905
_cell_length_c       13.6859
_cell_angle_alpha    101.843
_cell_angle_beta     101.843
_cell_angle_gamma    99.937

_space_group_name_H-M_alt    "P 1"
_space_group_IT_number       1

loop_
  _space_group_symop_operation_xyz
  'x, y, z'

loop_
  _atom_site_type_symbol
  _atom_site_label
  _atom_site_symmetry_multiplicity
  _atom_site_fract_x
  _atom_site_fract_y
  _atom_site_fract_z
  _atom_site_occupancy
  Al  Al1       1.0  0.06190  0.06190  0.12100  1.0000
  Al  Al2       1.0  0.41300  0.41300  0.40100  1.0000
  Al  Al3       1.0  0.01160  0.01160  0.59900  1.0000
  Al  Al4       1.0  0.94100  0.94100  0.87900  1.0000
  Ba  Ba1       1.0  0.37200  0.37200  0.00000  1.0000
  Ba  Ba2       1.0  0.58800  0.03690  0.20600  1.0000
  Ba  Ba3       1.0  0.03690  0.58800  0.20600  1.0000
  Ba  Ba4       1.0  0.95600  0.45600  0.50000  1.0000
  Ba  Ba5       1.0  0.45600  0.95600  0.50000  1.0000
  Ba  Ba6       1.0  0.83100  0.38200  0.79400  1.0000
  Ba  Ba7       1.0  0.38200  0.83100  0.79400  1.0000
  Ge  Ge1       1.0  0.78800  0.17400  0.00000  1.0000
  Ge  Ge2       1.0  0.76100  0.76100  0.00000  1.0000
  Ge  Ge3       1.0  0.17400  0.78800  0.00000  1.0000
  Ge  Ge4       1.0  0.58800  0.58800  0.28800  1.0000
  Ge  Ge5       1.0  0.11700  0.11700  0.31100  1.0000
  Ge  Ge6       1.0  0.89900  0.89900  0.40500  1.0000
  Ge  Ge7       1.0  0.49300  0.49300  0.59500  1.0000
  Ge  Ge8       1.0  0.80600  0.80600  0.68900  1.0000
  Ge  Ge9       1.0  0.30000  0.30000  0.71200  1.0000
