data_image0
_chemical_formula_structural       C4Dy2K2O12
_chemical_formula_sum              "C4 Dy2 K2 O12"
_cell_length_a       6.33953
_cell_length_b       6.33953
_cell_length_c       6.82577
_cell_angle_alpha    103.435
_cell_angle_beta     103.435
_cell_angle_gamma    96.5769

_space_group_name_H-M_alt    "P 1"
_space_group_IT_number       1

loop_
  _space_group_symop_operation_xyz
  'x, y, z'

loop_
  _atom_site_type_symbol
  _atom_site_label
  _atom_site_symmetry_multiplicity
  _atom_site_fract_x
  _atom_site_fract_y
  _atom_site_fract_z
  _atom_site_occupancy
  C   C1        1.0  0.39000  0.14500  0.24200  1.0000
  C   C2        1.0  0.85500  0.61000  0.25800  1.0000
  C   C3        1.0  0.14500  0.39000  0.74200  1.0000
  C   C4        1.0  0.61000  0.85500  0.75800  1.0000
  Dy  Dy1       1.0  0.40400  0.59600  0.25000  1.0000
  Dy  Dy2       1.0  0.59600  0.40400  0.75000  1.0000
  K   K1        1.0  0.87900  0.12100  0.25000  1.0000
  K   K2        1.0  0.12100  0.87900  0.75000  1.0000
  O   O1        1.0  0.70300  0.46500  0.10800  1.0000
  O   O2        1.0  0.24700  0.21500  0.11500  1.0000
  O   O3        1.0  0.39600  0.94100  0.22000  1.0000
  O   O4        1.0  0.05880  0.60400  0.28000  1.0000
  O   O5        1.0  0.78500  0.75300  0.38500  1.0000
  O   O6        1.0  0.53500  0.29700  0.39200  1.0000
  O   O7        1.0  0.46500  0.70300  0.60800  1.0000
  O   O8        1.0  0.21500  0.24700  0.61500  1.0000
  O   O9        1.0  0.94100  0.39600  0.72000  1.0000
  O   O10       1.0  0.60400  0.05880  0.78000  1.0000
  O   O11       1.0  0.75300  0.78500  0.88500  1.0000
  O   O12       1.0  0.29700  0.53500  0.89200  1.0000
