data_image0
_chemical_formula_structural       Na2O12Pr4Ru2
_chemical_formula_sum              "Na2 O12 Pr4 Ru2"
_cell_length_a       5.51008
_cell_length_b       5.94233
_cell_length_c       7.92466
_cell_angle_alpha    90
_cell_angle_beta     90.9244
_cell_angle_gamma    90

_space_group_name_H-M_alt    "P 1"
_space_group_IT_number       1

loop_
  _space_group_symop_operation_xyz
  'x, y, z'

loop_
  _atom_site_type_symbol
  _atom_site_label
  _atom_site_symmetry_multiplicity
  _atom_site_fract_x
  _atom_site_fract_y
  _atom_site_fract_z
  _atom_site_occupancy
  Na  Na1       1.0  0.00000  0.00000  0.00000  1.0000
  Na  Na2       1.0  0.50000  0.50000  0.50000  1.0000
  O   O1        1.0  0.20700  0.32400  0.04980  1.0000
  O   O2        1.0  0.33300  0.78200  0.06450  1.0000
  O   O3        1.0  0.61500  0.45500  0.23400  1.0000
  O   O4        1.0  0.88500  0.95500  0.26600  1.0000
  O   O5        1.0  0.16700  0.28200  0.43600  1.0000
  O   O6        1.0  0.29300  0.82400  0.45000  1.0000
  O   O7        1.0  0.70700  0.17600  0.55000  1.0000
  O   O8        1.0  0.83300  0.71800  0.56400  1.0000
  O   O9        1.0  0.11500  0.04460  0.73400  1.0000
  O   O10       1.0  0.38500  0.54500  0.76600  1.0000
  O   O11       1.0  0.66700  0.21800  0.93600  1.0000
  O   O12       1.0  0.79300  0.67600  0.95000  1.0000
  Pr  Pr1       1.0  0.02100  0.57300  0.24700  1.0000
  Pr  Pr2       1.0  0.47900  0.07280  0.25300  1.0000
  Pr  Pr3       1.0  0.52100  0.92700  0.74700  1.0000
  Pr  Pr4       1.0  0.97900  0.42700  0.75300  1.0000
  Ru  Ru1       1.0  0.50000  0.50000  0.00000  1.0000
  Ru  Ru2       1.0  0.00000  0.00000  0.50000  1.0000
