data_image0
_chemical_formula_structural       C4Cl4Hg4N4S4
_chemical_formula_sum              "C4 Cl4 Hg4 N4 S4"
_cell_length_a       10.5791
_cell_length_b       4.19448
_cell_length_c       10.218
_cell_angle_alpha    90
_cell_angle_beta     90
_cell_angle_gamma    90

_space_group_name_H-M_alt    "P 1"
_space_group_IT_number       1

loop_
  _space_group_symop_operation_xyz
  'x, y, z'

loop_
  _atom_site_type_symbol
  _atom_site_label
  _atom_site_symmetry_multiplicity
  _atom_site_fract_x
  _atom_site_fract_y
  _atom_site_fract_z
  _atom_site_occupancy
  C   C1        1.0  0.85000  0.75000  0.11500  1.0000
  C   C2        1.0  0.35000  0.75000  0.38500  1.0000
  C   C3        1.0  0.65000  0.25000  0.61500  1.0000
  C   C4        1.0  0.15000  0.25000  0.88500  1.0000
  Cl  Cl1       1.0  0.58400  0.25000  0.12700  1.0000
  Cl  Cl2       1.0  0.08370  0.25000  0.37300  1.0000
  Cl  Cl3       1.0  0.91600  0.75000  0.62700  1.0000
  Cl  Cl4       1.0  0.41600  0.75000  0.87300  1.0000
  Hg  Hg1       1.0  0.35900  0.25000  0.09570  1.0000
  Hg  Hg2       1.0  0.85900  0.25000  0.40400  1.0000
  Hg  Hg3       1.0  0.14100  0.75000  0.59600  1.0000
  Hg  Hg4       1.0  0.64100  0.75000  0.90400  1.0000
  N   N1        1.0  0.84900  0.75000  0.23000  1.0000
  N   N2        1.0  0.34900  0.75000  0.27000  1.0000
  N   N3        1.0  0.65100  0.25000  0.73000  1.0000
  N   N4        1.0  0.15100  0.25000  0.77000  1.0000
  S   S1        1.0  0.13600  0.25000  0.04700  1.0000
  S   S2        1.0  0.63600  0.25000  0.45300  1.0000
  S   S3        1.0  0.36400  0.75000  0.54700  1.0000
  S   S4        1.0  0.86400  0.75000  0.95300  1.0000
