data_image0
_chemical_formula_structural       KO12Sb3Zn4
_chemical_formula_sum              "K1 O12 Sb3 Zn4"
_cell_length_a       6.75435
_cell_length_b       6.75435
_cell_length_c       6.75435
_cell_angle_alpha    107.699
_cell_angle_beta     107.699
_cell_angle_gamma    107.699

_space_group_name_H-M_alt    "P 1"
_space_group_IT_number       1

loop_
  _space_group_symop_operation_xyz
  'x, y, z'

loop_
  _atom_site_type_symbol
  _atom_site_label
  _atom_site_symmetry_multiplicity
  _atom_site_fract_x
  _atom_site_fract_y
  _atom_site_fract_z
  _atom_site_occupancy
  K   K1        1.0  0.49100  0.49100  0.49100  1.0000
  O   O1        1.0  0.68000  0.88200  0.01180  1.0000
  O   O2        1.0  0.34700  0.11000  0.04090  1.0000
  O   O3        1.0  0.04090  0.34700  0.11000  1.0000
  O   O4        1.0  0.46300  0.83400  0.26500  1.0000
  O   O5        1.0  0.74800  0.60900  0.27300  1.0000
  O   O6        1.0  0.11000  0.04090  0.34700  1.0000
  O   O7        1.0  0.83400  0.26500  0.46300  1.0000
  O   O8        1.0  0.27300  0.74800  0.60900  1.0000
  O   O9        1.0  0.88200  0.01180  0.68000  1.0000
  O   O10       1.0  0.60900  0.27300  0.74800  1.0000
  O   O11       1.0  0.26500  0.46300  0.83400  1.0000
  O   O12       1.0  0.01180  0.68000  0.88200  1.0000
  Sb  Sb1       1.0  0.80600  0.93300  0.34600  1.0000
  Sb  Sb2       1.0  0.93300  0.34600  0.80600  1.0000
  Sb  Sb3       1.0  0.34600  0.80600  0.93300  1.0000
  Zn  Zn1       1.0  0.01150  0.01150  0.01150  1.0000
  Zn  Zn2       1.0  0.97600  0.49200  0.36300  1.0000
  Zn  Zn3       1.0  0.36300  0.97600  0.49200  1.0000
  Zn  Zn4       1.0  0.49200  0.36300  0.97600  1.0000
