data_image0
_chemical_formula_structural       Eu6Nb2O12
_chemical_formula_sum              "Eu6 Nb2 O12"
_cell_length_a       5.71334
_cell_length_b       5.95831
_cell_length_c       8.16
_cell_angle_alpha    90
_cell_angle_beta     89.471
_cell_angle_gamma    90

_space_group_name_H-M_alt    "P 1"
_space_group_IT_number       1

loop_
  _space_group_symop_operation_xyz
  'x, y, z'

loop_
  _atom_site_type_symbol
  _atom_site_label
  _atom_site_symmetry_multiplicity
  _atom_site_fract_x
  _atom_site_fract_y
  _atom_site_fract_z
  _atom_site_occupancy
  Eu  Eu1       1.0  0.50000  0.00000  0.00000  1.0000
  Eu  Eu2       1.0  0.47900  0.56200  0.24400  1.0000
  Eu  Eu3       1.0  0.02130  0.06210  0.25600  1.0000
  Eu  Eu4       1.0  1.00000  0.50000  0.50000  1.0000
  Eu  Eu5       1.0  0.97900  0.93800  0.74400  1.0000
  Eu  Eu6       1.0  0.52100  0.43800  0.75600  1.0000
  Nb  Nb1       1.0  0.00000  0.50000  0.00000  1.0000
  Nb  Nb2       1.0  0.50000  0.00000  0.50000  1.0000
  O   O1        1.0  0.28400  0.32200  0.05590  1.0000
  O   O2        1.0  0.17100  0.77900  0.07280  1.0000
  O   O3        1.0  0.87600  0.44500  0.22800  1.0000
  O   O4        1.0  0.62400  0.94500  0.27200  1.0000
  O   O5        1.0  0.32900  0.27900  0.42700  1.0000
  O   O6        1.0  0.21600  0.82200  0.44400  1.0000
  O   O7        1.0  0.78400  0.17800  0.55600  1.0000
  O   O8        1.0  0.67100  0.72100  0.57300  1.0000
  O   O9        1.0  0.37600  0.05490  0.72800  1.0000
  O   O10       1.0  0.12400  0.55500  0.77200  1.0000
  O   O11       1.0  0.82900  0.22100  0.92700  1.0000
  O   O12       1.0  0.71600  0.67800  0.94400  1.0000
