data_image0
_chemical_formula_structural       C8Mo4Nd8
_chemical_formula_sum              "C8 Mo4 Nd8"
_cell_length_a       5.83742
_cell_length_b       5.83742
_cell_length_c       10.3629
_cell_angle_alpha    90
_cell_angle_beta     90
_cell_angle_gamma    90

_space_group_name_H-M_alt    "P 1"
_space_group_IT_number       1

loop_
  _space_group_symop_operation_xyz
  'x, y, z'

loop_
  _atom_site_type_symbol
  _atom_site_label
  _atom_site_symmetry_multiplicity
  _atom_site_fract_x
  _atom_site_fract_y
  _atom_site_fract_z
  _atom_site_occupancy
  C   C1        1.0  0.50000  0.00000  0.00000  1.0000
  C   C2        1.0  0.00000  0.50000  0.00000  1.0000
  C   C3        1.0  0.00000  0.00000  0.14500  1.0000
  C   C4        1.0  0.50000  0.50000  0.35500  1.0000
  C   C5        1.0  0.50000  0.00000  0.50000  1.0000
  C   C6        1.0  0.00000  0.50000  0.50000  1.0000
  C   C7        1.0  0.50000  0.50000  0.64500  1.0000
  C   C8        1.0  0.00000  0.00000  0.85500  1.0000
  Mo  Mo1       1.0  0.17600  0.17600  0.00000  1.0000
  Mo  Mo2       1.0  0.82400  0.82400  0.00000  1.0000
  Mo  Mo3       1.0  0.67600  0.32400  0.50000  1.0000
  Mo  Mo4       1.0  0.32400  0.67600  0.50000  1.0000
  Nd  Nd1       1.0  0.69800  0.30200  0.15600  1.0000
  Nd  Nd2       1.0  0.30200  0.69800  0.15600  1.0000
  Nd  Nd3       1.0  0.19800  0.19800  0.34400  1.0000
  Nd  Nd4       1.0  0.80200  0.80200  0.34400  1.0000
  Nd  Nd5       1.0  0.19800  0.19800  0.65600  1.0000
  Nd  Nd6       1.0  0.80200  0.80200  0.65600  1.0000
  Nd  Nd7       1.0  0.69800  0.30200  0.84400  1.0000
  Nd  Nd8       1.0  0.30200  0.69800  0.84400  1.0000
