data_image0
_chemical_formula_structural       Nb6O12Ti2
_chemical_formula_sum              "Nb6 O12 Ti2"
_cell_length_a       6.64874
_cell_length_b       6.64877
_cell_length_c       6.64885
_cell_angle_alpha    73.257
_cell_angle_beta     106.743
_cell_angle_gamma    106.744

_space_group_name_H-M_alt    "P 1"
_space_group_IT_number       1

loop_
  _space_group_symop_operation_xyz
  'x, y, z'

loop_
  _atom_site_type_symbol
  _atom_site_label
  _atom_site_symmetry_multiplicity
  _atom_site_fract_x
  _atom_site_fract_y
  _atom_site_fract_z
  _atom_site_occupancy
  Nb  Nb1       1.0  0.70200  0.88200  0.05400  1.0000
  Nb  Nb2       1.0  0.05400  0.70200  0.11800  1.0000
  Nb  Nb3       1.0  0.11800  0.05400  0.29800  1.0000
  Nb  Nb4       1.0  0.88200  0.94600  0.70200  1.0000
  Nb  Nb5       1.0  0.94600  0.29800  0.88200  1.0000
  Nb  Nb6       1.0  0.29800  0.11800  0.94600  1.0000
  O   O1        1.0  0.35300  0.79600  0.03660  1.0000
  O   O2        1.0  0.73600  0.57100  0.16900  1.0000
  O   O3        1.0  0.03650  0.35300  0.20400  1.0000
  O   O4        1.0  0.42900  0.16900  0.26400  1.0000
  O   O5        1.0  0.79600  0.96300  0.35300  1.0000
  O   O6        1.0  0.16900  0.73600  0.42900  1.0000
  O   O7        1.0  0.83100  0.26400  0.57100  1.0000
  O   O8        1.0  0.20400  0.03650  0.64700  1.0000
  O   O9        1.0  0.57100  0.83100  0.73600  1.0000
  O   O10       1.0  0.96300  0.64700  0.79600  1.0000
  O   O11       1.0  0.26400  0.42900  0.83100  1.0000
  O   O12       1.0  0.64700  0.20400  0.96300  1.0000
  Ti  Ti1       1.0  0.72800  0.27200  0.27200  1.0000
  Ti  Ti2       1.0  0.27200  0.72800  0.72800  1.0000
