data_image0
_chemical_formula_structural       O6Pb2SbTm
_chemical_formula_sum              "O6 Pb2 Sb1 Tm1"
_cell_length_a       5.59307
_cell_length_b       5.1945
_cell_length_c       7.37478
_cell_angle_alpha    85.404
_cell_angle_beta     44.2644
_cell_angle_gamma    96.1868

_space_group_name_H-M_alt    "P 1"
_space_group_IT_number       1

loop_
  _space_group_symop_operation_xyz
  'x, y, z'

loop_
  _atom_site_type_symbol
  _atom_site_label
  _atom_site_symmetry_multiplicity
  _atom_site_fract_x
  _atom_site_fract_y
  _atom_site_fract_z
  _atom_site_occupancy
  O   O1        1.0  0.71800  0.27100  0.24400  1.0000
  O   O2        1.0  0.45200  0.70700  0.28700  1.0000
  O   O3        1.0  0.96600  0.75300  0.29300  1.0000
  O   O4        1.0  0.03370  0.24700  0.70700  1.0000
  O   O5        1.0  0.54800  0.29300  0.71300  1.0000
  O   O6        1.0  0.28200  0.72900  0.75600  1.0000
  Pb  Pb1       1.0  0.21500  0.28900  0.29100  1.0000
  Pb  Pb2       1.0  0.78500  0.71100  0.70900  1.0000
  Sb  Sb1       1.0  0.50000  0.50000  0.50000  1.0000
  Tm  Tm1       1.0  0.00000  0.00000  0.00000  1.0000
