data_image0
_chemical_formula_structural       Na2Nd4O12Ru2
_chemical_formula_sum              "Na2 Nd4 O12 Ru2"
_cell_length_a       5.48344
_cell_length_b       5.92393
_cell_length_c       7.8931
_cell_angle_alpha    90
_cell_angle_beta     91.021
_cell_angle_gamma    90

_space_group_name_H-M_alt    "P 1"
_space_group_IT_number       1

loop_
  _space_group_symop_operation_xyz
  'x, y, z'

loop_
  _atom_site_type_symbol
  _atom_site_label
  _atom_site_symmetry_multiplicity
  _atom_site_fract_x
  _atom_site_fract_y
  _atom_site_fract_z
  _atom_site_occupancy
  Na  Na1       1.0  0.00000  0.00000  0.00000  1.0000
  Na  Na2       1.0  0.50000  0.50000  0.50000  1.0000
  Nd  Nd1       1.0  0.02190  0.57400  0.24700  1.0000
  Nd  Nd2       1.0  0.47800  0.07420  0.25300  1.0000
  Nd  Nd3       1.0  0.52200  0.92600  0.74700  1.0000
  Nd  Nd4       1.0  0.97800  0.42600  0.75300  1.0000
  O   O1        1.0  0.20500  0.32500  0.05150  1.0000
  O   O2        1.0  0.33400  0.78300  0.06700  1.0000
  O   O3        1.0  0.61900  0.45200  0.23400  1.0000
  O   O4        1.0  0.88100  0.95200  0.26600  1.0000
  O   O5        1.0  0.16600  0.28300  0.43300  1.0000
  O   O6        1.0  0.29500  0.82500  0.44900  1.0000
  O   O7        1.0  0.70500  0.17500  0.55100  1.0000
  O   O8        1.0  0.83400  0.71700  0.56700  1.0000
  O   O9        1.0  0.11900  0.04770  0.73400  1.0000
  O   O10       1.0  0.38100  0.54800  0.76600  1.0000
  O   O11       1.0  0.66600  0.21700  0.93300  1.0000
  O   O12       1.0  0.79500  0.67500  0.94900  1.0000
  Ru  Ru1       1.0  0.50000  0.50000  0.00000  1.0000
  Ru  Ru2       1.0  0.00000  0.00000  0.50000  1.0000
