data_image0
_chemical_formula_structural       Fe2Gd6O12
_chemical_formula_sum              "Fe2 Gd6 O12"
_cell_length_a       5.48535
_cell_length_b       7.15027
_cell_length_c       7.15027
_cell_angle_alpha    102.817
_cell_angle_beta     90
_cell_angle_gamma    90

_space_group_name_H-M_alt    "P 1"
_space_group_IT_number       1

loop_
  _space_group_symop_operation_xyz
  'x, y, z'

loop_
  _atom_site_type_symbol
  _atom_site_label
  _atom_site_symmetry_multiplicity
  _atom_site_fract_x
  _atom_site_fract_y
  _atom_site_fract_z
  _atom_site_occupancy
  Fe  Fe1       1.0  0.57100  0.69200  0.30800  1.0000
  Fe  Fe2       1.0  0.07140  0.30800  0.69200  1.0000
  Gd  Gd1       1.0  0.99600  0.89700  0.10300  1.0000
  Gd  Gd2       1.0  0.04190  0.41300  0.20200  1.0000
  Gd  Gd3       1.0  0.54200  0.20200  0.41300  1.0000
  Gd  Gd4       1.0  0.04190  0.79800  0.58700  1.0000
  Gd  Gd5       1.0  0.54200  0.58700  0.79800  1.0000
  Gd  Gd6       1.0  0.49600  0.10300  0.89700  1.0000
  O   O1        1.0  0.75100  0.60400  0.07920  1.0000
  O   O2        1.0  0.76900  0.17500  0.14500  1.0000
  O   O3        1.0  0.26900  0.14500  0.17500  1.0000
  O   O4        1.0  0.23200  0.71700  0.28300  1.0000
  O   O5        1.0  0.75100  0.92100  0.39600  1.0000
  O   O6        1.0  0.72100  0.53800  0.46200  1.0000
  O   O7        1.0  0.22100  0.46200  0.53800  1.0000
  O   O8        1.0  0.25100  0.07920  0.60400  1.0000
  O   O9        1.0  0.73200  0.28300  0.71700  1.0000
  O   O10       1.0  0.76900  0.85500  0.82500  1.0000
  O   O11       1.0  0.26900  0.82500  0.85500  1.0000
  O   O12       1.0  0.25100  0.39600  0.92100  1.0000
