data_image0
_chemical_formula_structural       Hf8In4Ni8
_chemical_formula_sum              "Hf8 In4 Ni8"
_cell_length_a       7.16534
_cell_length_b       7.16534
_cell_length_c       6.59658
_cell_angle_alpha    90
_cell_angle_beta     90
_cell_angle_gamma    90

_space_group_name_H-M_alt    "P 1"
_space_group_IT_number       1

loop_
  _space_group_symop_operation_xyz
  'x, y, z'

loop_
  _atom_site_type_symbol
  _atom_site_label
  _atom_site_symmetry_multiplicity
  _atom_site_fract_x
  _atom_site_fract_y
  _atom_site_fract_z
  _atom_site_occupancy
  Hf  Hf1       1.0  0.17300  0.17300  0.00000  1.0000
  Hf  Hf2       1.0  0.65800  0.34200  0.00000  1.0000
  Hf  Hf3       1.0  0.34200  0.65800  0.00000  1.0000
  Hf  Hf4       1.0  0.82700  0.82700  0.00000  1.0000
  Hf  Hf5       1.0  0.15800  0.15800  0.50000  1.0000
  Hf  Hf6       1.0  0.67300  0.32700  0.50000  1.0000
  Hf  Hf7       1.0  0.32700  0.67300  0.50000  1.0000
  Hf  Hf8       1.0  0.84200  0.84200  0.50000  1.0000
  In  In1       1.0  0.50000  0.00000  0.25000  1.0000
  In  In2       1.0  0.00000  0.50000  0.25000  1.0000
  In  In3       1.0  0.50000  0.00000  0.75000  1.0000
  In  In4       1.0  0.00000  0.50000  0.75000  1.0000
  Ni  Ni1       1.0  0.87400  0.12600  0.23200  1.0000
  Ni  Ni2       1.0  0.12600  0.87400  0.23200  1.0000
  Ni  Ni3       1.0  0.37400  0.37400  0.26800  1.0000
  Ni  Ni4       1.0  0.62600  0.62600  0.26800  1.0000
  Ni  Ni5       1.0  0.37400  0.37400  0.73200  1.0000
  Ni  Ni6       1.0  0.62600  0.62600  0.73200  1.0000
  Ni  Ni7       1.0  0.87400  0.12600  0.76800  1.0000
  Ni  Ni8       1.0  0.12600  0.87400  0.76800  1.0000
