data_image0
_chemical_formula_structural       B2C8Cs2N8
_chemical_formula_sum              "B2 C8 Cs2 N8"
_cell_length_a       9.10598
_cell_length_b       7.20654
_cell_length_c       7.20654
_cell_angle_alpha    90
_cell_angle_beta     113.31
_cell_angle_gamma    113.31

_space_group_name_H-M_alt    "P 1"
_space_group_IT_number       1

loop_
  _space_group_symop_operation_xyz
  'x, y, z'

loop_
  _atom_site_type_symbol
  _atom_site_label
  _atom_site_symmetry_multiplicity
  _atom_site_fract_x
  _atom_site_fract_y
  _atom_site_fract_z
  _atom_site_occupancy
  B   B1        1.0  0.75000  0.87500  0.12500  1.0000
  B   B2        1.0  0.25000  0.12500  0.87500  1.0000
  C   C1        1.0  0.86900  0.78900  0.07870  1.0000
  C   C2        1.0  0.36900  0.07870  0.08030  1.0000
  C   C3        1.0  0.63100  0.70900  0.21100  1.0000
  C   C4        1.0  0.86900  0.08030  0.29100  1.0000
  C   C5        1.0  0.13100  0.92000  0.70900  1.0000
  C   C6        1.0  0.36900  0.29100  0.78900  1.0000
  C   C7        1.0  0.63100  0.92100  0.92000  1.0000
  C   C8        1.0  0.13100  0.21100  0.92100  1.0000
  Cs  Cs1       1.0  0.25000  0.62500  0.37500  1.0000
  Cs  Cs2       1.0  0.75000  0.37500  0.62500  1.0000
  N   N1        1.0  0.95400  0.72200  0.04150  1.0000
  N   N2        1.0  0.45400  0.04150  0.23200  1.0000
  N   N3        1.0  0.54600  0.58700  0.27800  1.0000
  N   N4        1.0  0.95400  0.23200  0.41300  1.0000
  N   N5        1.0  0.04580  0.76800  0.58700  1.0000
  N   N6        1.0  0.45400  0.41300  0.72200  1.0000
  N   N7        1.0  0.54600  0.95900  0.76800  1.0000
  N   N8        1.0  0.04580  0.27800  0.95800  1.0000
