data_image0
_chemical_formula_structural       C4K2O12Yb2
_chemical_formula_sum              "C4 K2 O12 Yb2"
_cell_length_a       6.34334
_cell_length_b       6.34334
_cell_length_c       6.77646
_cell_angle_alpha    103.233
_cell_angle_beta     103.233
_cell_angle_gamma    97.151

_space_group_name_H-M_alt    "P 1"
_space_group_IT_number       1

loop_
  _space_group_symop_operation_xyz
  'x, y, z'

loop_
  _atom_site_type_symbol
  _atom_site_label
  _atom_site_symmetry_multiplicity
  _atom_site_fract_x
  _atom_site_fract_y
  _atom_site_fract_z
  _atom_site_occupancy
  C   C1        1.0  0.38800  0.14100  0.24000  1.0000
  C   C2        1.0  0.85900  0.61200  0.26000  1.0000
  C   C3        1.0  0.14100  0.38800  0.74000  1.0000
  C   C4        1.0  0.61200  0.85900  0.76000  1.0000
  K   K1        1.0  0.87200  0.12800  0.25000  1.0000
  K   K2        1.0  0.12800  0.87200  0.75000  1.0000
  O   O1        1.0  0.71000  0.47100  0.10700  1.0000
  O   O2        1.0  0.23200  0.20300  0.12300  1.0000
  O   O3        1.0  0.41100  0.94000  0.20300  1.0000
  O   O4        1.0  0.06020  0.58900  0.29700  1.0000
  O   O5        1.0  0.79700  0.76800  0.37700  1.0000
  O   O6        1.0  0.52900  0.29000  0.39300  1.0000
  O   O7        1.0  0.47100  0.71000  0.60700  1.0000
  O   O8        1.0  0.20300  0.23200  0.62300  1.0000
  O   O9        1.0  0.94000  0.41100  0.70300  1.0000
  O   O10       1.0  0.58900  0.06020  0.79700  1.0000
  O   O11       1.0  0.76800  0.79700  0.87700  1.0000
  O   O12       1.0  0.29000  0.52900  0.89300  1.0000
  Yb  Yb1       1.0  0.40600  0.59400  0.25000  1.0000
  Yb  Yb2       1.0  0.59400  0.40600  0.75000  1.0000
