data_image0
_chemical_formula_structural       Cd8Cl8P4
_chemical_formula_sum              "Cd8 Cl8 P4"
_cell_length_a       7.79465
_cell_length_b       9.01946
_cell_length_c       7.9537
_cell_angle_alpha    90
_cell_angle_beta     118.838
_cell_angle_gamma    90

_space_group_name_H-M_alt    "P 1"
_space_group_IT_number       1

loop_
  _space_group_symop_operation_xyz
  'x, y, z'

loop_
  _atom_site_type_symbol
  _atom_site_label
  _atom_site_symmetry_multiplicity
  _atom_site_fract_x
  _atom_site_fract_y
  _atom_site_fract_z
  _atom_site_occupancy
  Cd  Cd1       1.0  0.17600  0.29800  0.20500  1.0000
  Cd  Cd2       1.0  0.79500  0.92000  0.22700  1.0000
  Cd  Cd3       1.0  0.70500  0.42000  0.27300  1.0000
  Cd  Cd4       1.0  0.32400  0.79800  0.29500  1.0000
  Cd  Cd5       1.0  0.67600  0.20200  0.70500  1.0000
  Cd  Cd6       1.0  0.29500  0.58000  0.72700  1.0000
  Cd  Cd7       1.0  0.20500  0.08020  0.77300  1.0000
  Cd  Cd8       1.0  0.82400  0.70200  0.79500  1.0000
  Cl  Cl1       1.0  0.49600  0.69800  0.07750  1.0000
  Cl  Cl2       1.0  0.95300  0.53200  0.19500  1.0000
  Cl  Cl3       1.0  0.54700  0.03230  0.30500  1.0000
  Cl  Cl4       1.0  0.00360  0.19800  0.42300  1.0000
  Cl  Cl5       1.0  0.99600  0.80200  0.57700  1.0000
  Cl  Cl6       1.0  0.45300  0.96800  0.69500  1.0000
  Cl  Cl7       1.0  0.04670  0.46800  0.80500  1.0000
  Cl  Cl8       1.0  0.50400  0.30200  0.92300  1.0000
  P   P1        1.0  0.99000  0.89200  0.05720  1.0000
  P   P2        1.0  0.51000  0.39200  0.44300  1.0000
  P   P3        1.0  0.49000  0.60800  0.55700  1.0000
  P   P4        1.0  0.00979  0.10800  0.94300  1.0000
