data_image0
_chemical_formula_structural       Al2Ni8Zr10
_chemical_formula_sum              "Al2 Ni8 Zr10"
_cell_length_a       7.18613
_cell_length_b       7.18613
_cell_length_c       6.63479
_cell_angle_alpha    90
_cell_angle_beta     90
_cell_angle_gamma    90

_space_group_name_H-M_alt    "P 1"
_space_group_IT_number       1

loop_
  _space_group_symop_operation_xyz
  'x, y, z'

loop_
  _atom_site_type_symbol
  _atom_site_label
  _atom_site_symmetry_multiplicity
  _atom_site_fract_x
  _atom_site_fract_y
  _atom_site_fract_z
  _atom_site_occupancy
  Al  Al1       1.0  0.50000  0.50000  0.25000  1.0000
  Al  Al2       1.0  0.50000  0.50000  0.75000  1.0000
  Ni  Ni1       1.0  0.36900  0.12200  0.24300  1.0000
  Ni  Ni2       1.0  0.63100  0.87800  0.24300  1.0000
  Ni  Ni3       1.0  0.87800  0.36900  0.25700  1.0000
  Ni  Ni4       1.0  0.12200  0.63100  0.25700  1.0000
  Ni  Ni5       1.0  0.87800  0.36900  0.74300  1.0000
  Ni  Ni6       1.0  0.12200  0.63100  0.74300  1.0000
  Ni  Ni7       1.0  0.36900  0.12200  0.75700  1.0000
  Ni  Ni8       1.0  0.63100  0.87800  0.75700  1.0000
  Zr  Zr1       1.0  0.65200  0.19100  0.00000  1.0000
  Zr  Zr2       1.0  0.18600  0.35300  0.00000  1.0000
  Zr  Zr3       1.0  0.81400  0.64700  0.00000  1.0000
  Zr  Zr4       1.0  0.34800  0.80900  0.00000  1.0000
  Zr  Zr5       1.0  0.00000  0.00000  0.25000  1.0000
  Zr  Zr6       1.0  0.64700  0.18600  0.50000  1.0000
  Zr  Zr7       1.0  0.19100  0.34800  0.50000  1.0000
  Zr  Zr8       1.0  0.80900  0.65200  0.50000  1.0000
  Zr  Zr9       1.0  0.35300  0.81400  0.50000  1.0000
  Zr  Zr10      1.0  0.00000  0.00000  0.75000  1.0000
