data_image0
_chemical_formula_structural       Nb4O14U2
_chemical_formula_sum              "Nb4 O14 U2"
_cell_length_a       3.81914
_cell_length_b       6.49266
_cell_length_c       10.8501
_cell_angle_alpha    90
_cell_angle_beta     79.8634
_cell_angle_gamma    90

_space_group_name_H-M_alt    "P 1"
_space_group_IT_number       1

loop_
  _space_group_symop_operation_xyz
  'x, y, z'

loop_
  _atom_site_type_symbol
  _atom_site_label
  _atom_site_symmetry_multiplicity
  _atom_site_fract_x
  _atom_site_fract_y
  _atom_site_fract_z
  _atom_site_occupancy
  Nb  Nb1       1.0  0.97600  0.25000  0.04760  1.0000
  Nb  Nb2       1.0  0.33600  0.25000  0.32800  1.0000
  Nb  Nb3       1.0  0.66400  0.75000  0.67200  1.0000
  Nb  Nb4       1.0  0.02380  0.75000  0.95200  1.0000
  O   O1        1.0  0.45200  0.25000  0.09620  1.0000
  O   O2        1.0  0.94900  0.56300  0.10200  1.0000
  O   O3        1.0  0.94900  0.93700  0.10200  1.0000
  O   O4        1.0  0.86400  0.25000  0.27200  1.0000
  O   O5        1.0  0.34800  0.55100  0.30500  1.0000
  O   O6        1.0  0.34800  0.94900  0.30500  1.0000
  O   O7        1.0  0.25100  0.25000  0.49800  1.0000
  O   O8        1.0  0.74900  0.75000  0.50200  1.0000
  O   O9        1.0  0.65200  0.05060  0.69500  1.0000
  O   O10       1.0  0.65200  0.44900  0.69500  1.0000
  O   O11       1.0  0.13600  0.75000  0.72800  1.0000
  O   O12       1.0  0.05120  0.06300  0.89800  1.0000
  O   O13       1.0  0.05120  0.43700  0.89800  1.0000
  O   O14       1.0  0.54800  0.75000  0.90400  1.0000
  U   U1        1.0  0.85700  0.75000  0.28700  1.0000
  U   U2        1.0  0.14300  0.25000  0.71300  1.0000
