data_image0
_chemical_formula_structural       CaMn7O12
_chemical_formula_sum              "Ca1 Mn7 O12"
_cell_length_a       6.40472
_cell_length_b       6.40995
_cell_length_c       6.40995
_cell_angle_alpha    109.488
_cell_angle_beta     109.455
_cell_angle_gamma    109.455

_space_group_name_H-M_alt    "P 1"
_space_group_IT_number       1

loop_
  _space_group_symop_operation_xyz
  'x, y, z'

loop_
  _atom_site_type_symbol
  _atom_site_label
  _atom_site_symmetry_multiplicity
  _atom_site_fract_x
  _atom_site_fract_y
  _atom_site_fract_z
  _atom_site_occupancy
  Ca  Ca1       1.0  0.00000  0.00000  0.00000  1.0000
  Mn  Mn1       1.0  0.50000  0.50000  1.00000  1.0000
  Mn  Mn2       1.0  0.00000  0.50000  1.00000  1.0000
  Mn  Mn3       1.0  0.50000  1.00000  1.00000  1.0000
  Mn  Mn4       1.0  0.50000  1.00000  0.50000  1.0000
  Mn  Mn5       1.0  0.00000  1.00000  0.50000  1.0000
  Mn  Mn6       1.0  0.50000  0.50000  0.50000  1.0000
  Mn  Mn7       1.0  1.00000  0.50000  0.50000  1.0000
  O   O1        1.0  0.82200  0.30700  0.12900  1.0000
  O   O2        1.0  0.69300  0.87100  0.17800  1.0000
  O   O3        1.0  0.30900  0.49000  0.18000  1.0000
  O   O4        1.0  0.48500  0.17800  0.30700  1.0000
  O   O5        1.0  0.12900  0.82000  0.30900  1.0000
  O   O6        1.0  0.18000  0.30900  0.49000  1.0000
  O   O7        1.0  0.82000  0.69100  0.51000  1.0000
  O   O8        1.0  0.87100  0.18000  0.69100  1.0000
  O   O9        1.0  0.51500  0.82200  0.69300  1.0000
  O   O10       1.0  0.69100  0.51000  0.82000  1.0000
  O   O11       1.0  0.30700  0.12900  0.82200  1.0000
  O   O12       1.0  0.17800  0.69300  0.87100  1.0000
