data_image0
_chemical_formula_structural       Ag2Cs2N4O12
_chemical_formula_sum              "Ag2 Cs2 N4 O12"
_cell_length_a       5.33062
_cell_length_b       5.44464
_cell_length_c       10.4483
_cell_angle_alpha    105.103
_cell_angle_beta     93.004
_cell_angle_gamma    90

_space_group_name_H-M_alt    "P 1"
_space_group_IT_number       1

loop_
  _space_group_symop_operation_xyz
  'x, y, z'

loop_
  _atom_site_type_symbol
  _atom_site_label
  _atom_site_symmetry_multiplicity
  _atom_site_fract_x
  _atom_site_fract_y
  _atom_site_fract_z
  _atom_site_occupancy
  Ag  Ag1       1.0  0.81200  0.18000  0.36000  1.0000
  Ag  Ag2       1.0  0.18800  0.82000  0.64000  1.0000
  Cs  Cs1       1.0  0.26800  0.58900  0.17900  1.0000
  Cs  Cs2       1.0  0.73200  0.41100  0.82100  1.0000
  N   N1        1.0  0.75900  0.03890  0.07790  1.0000
  N   N2        1.0  0.31900  0.24100  0.48200  1.0000
  N   N3        1.0  0.68100  0.75900  0.51800  1.0000
  N   N4        1.0  0.24100  0.96100  0.92200  1.0000
  O   O1        1.0  0.25600  0.02310  0.04630  1.0000
  O   O2        1.0  0.76700  0.27300  0.14200  1.0000
  O   O3        1.0  0.76700  0.86900  0.14200  1.0000
  O   O4        1.0  0.27600  0.17900  0.35700  1.0000
  O   O5        1.0  0.86100  0.72000  0.44000  1.0000
  O   O6        1.0  0.45600  0.73500  0.46900  1.0000
  O   O7        1.0  0.54400  0.26500  0.53100  1.0000
  O   O8        1.0  0.13900  0.28000  0.56000  1.0000
  O   O9        1.0  0.72400  0.82100  0.64300  1.0000
  O   O10       1.0  0.23300  0.13100  0.85800  1.0000
  O   O11       1.0  0.23300  0.72700  0.85800  1.0000
  O   O12       1.0  0.74400  0.97700  0.95400  1.0000
