data_image0
_chemical_formula_structural       B4Nd4S12
_chemical_formula_sum              "B4 Nd4 S12"
_cell_length_a       7.61308
_cell_length_b       6.01448
_cell_length_c       8.95532
_cell_angle_alpha    90
_cell_angle_beta     90
_cell_angle_gamma    90

_space_group_name_H-M_alt    "P 1"
_space_group_IT_number       1

loop_
  _space_group_symop_operation_xyz
  'x, y, z'

loop_
  _atom_site_type_symbol
  _atom_site_label
  _atom_site_symmetry_multiplicity
  _atom_site_fract_x
  _atom_site_fract_y
  _atom_site_fract_z
  _atom_site_occupancy
  B   B1        1.0  0.64600  0.59800  0.42800  1.0000
  B   B2        1.0  0.14600  0.90200  0.42800  1.0000
  B   B3        1.0  0.85400  0.09780  0.92800  1.0000
  B   B4        1.0  0.35400  0.40200  0.92800  1.0000
  Nd  Nd1       1.0  0.61600  0.06930  0.25700  1.0000
  Nd  Nd2       1.0  0.11600  0.43100  0.25700  1.0000
  Nd  Nd3       1.0  0.88400  0.56900  0.75700  1.0000
  Nd  Nd4       1.0  0.38400  0.93100  0.75700  1.0000
  S   S1        1.0  0.32800  0.16500  0.05260  1.0000
  S   S2        1.0  0.82800  0.33500  0.05260  1.0000
  S   S3        1.0  0.50000  0.60000  0.26900  1.0000
  S   S4        1.0  0.00020  0.90000  0.26900  1.0000
  S   S5        1.0  0.29700  0.13400  0.45900  1.0000
  S   S6        1.0  0.79700  0.36600  0.45900  1.0000
  S   S7        1.0  0.17200  0.66500  0.55300  1.0000
  S   S8        1.0  0.67200  0.83500  0.55300  1.0000
  S   S9        1.0  0.00000  0.09970  0.76900  1.0000
  S   S10       1.0  0.50000  0.40000  0.76900  1.0000
  S   S11       1.0  0.20300  0.63400  0.95900  1.0000
  S   S12       1.0  0.70300  0.86600  0.95900  1.0000
