data_image0
_chemical_formula_structural       In14Pd6
_chemical_formula_sum              "In14 Pd6"
_cell_length_a       8.27385
_cell_length_b       8.27385
_cell_length_c       8.27385
_cell_angle_alpha    109.471
_cell_angle_beta     109.471
_cell_angle_gamma    109.471

_space_group_name_H-M_alt    "P 1"
_space_group_IT_number       1

loop_
  _space_group_symop_operation_xyz
  'x, y, z'

loop_
  _atom_site_type_symbol
  _atom_site_label
  _atom_site_symmetry_multiplicity
  _atom_site_fract_x
  _atom_site_fract_y
  _atom_site_fract_z
  _atom_site_occupancy
  In  In1       1.0  0.32500  0.00000  0.00000  1.0000
  In  In2       1.0  0.67500  0.00000  0.00000  1.0000
  In  In3       1.0  0.00000  0.32500  0.00000  1.0000
  In  In4       1.0  0.00000  0.67500  0.00000  1.0000
  In  In5       1.0  0.75000  0.50000  0.25000  1.0000
  In  In6       1.0  0.50000  0.75000  0.25000  1.0000
  In  In7       1.0  0.00000  0.00000  0.32500  1.0000
  In  In8       1.0  0.32500  0.32500  0.32500  1.0000
  In  In9       1.0  0.75000  0.25000  0.50000  1.0000
  In  In10      1.0  0.25000  0.75000  0.50000  1.0000
  In  In11      1.0  0.00000  0.00000  0.67500  1.0000
  In  In12      1.0  0.67500  0.67500  0.67500  1.0000
  In  In13      1.0  0.50000  0.25000  0.75000  1.0000
  In  In14      1.0  0.25000  0.50000  0.75000  1.0000
  Pd  Pd1       1.0  0.34800  0.34800  0.00000  1.0000
  Pd  Pd2       1.0  0.65200  0.65200  0.00000  1.0000
  Pd  Pd3       1.0  0.34800  0.00000  0.34800  1.0000
  Pd  Pd4       1.0  0.00000  0.34800  0.34800  1.0000
  Pd  Pd5       1.0  0.65200  0.00000  0.65200  1.0000
  Pd  Pd6       1.0  0.00000  0.65200  0.65200  1.0000
