data_image0
_chemical_formula_structural       Ge4O4Sr12
_chemical_formula_sum              "Ge4 O4 Sr12"
_cell_length_a       7.16101
_cell_length_b       7.15228
_cell_length_c       10.1139
_cell_angle_alpha    90
_cell_angle_beta     90
_cell_angle_gamma    90

_space_group_name_H-M_alt    "P 1"
_space_group_IT_number       1

loop_
  _space_group_symop_operation_xyz
  'x, y, z'

loop_
  _atom_site_type_symbol
  _atom_site_label
  _atom_site_symmetry_multiplicity
  _atom_site_fract_x
  _atom_site_fract_y
  _atom_site_fract_z
  _atom_site_occupancy
  Ge  Ge1       1.0  0.50500  0.48200  0.25000  1.0000
  Ge  Ge2       1.0  0.99500  0.98200  0.25000  1.0000
  Ge  Ge3       1.0  0.00501  0.01820  0.75000  1.0000
  Ge  Ge4       1.0  0.49500  0.51800  0.75000  1.0000
  O   O1        1.0  0.50000  0.00000  0.00000  1.0000
  O   O2        1.0  0.00000  0.50000  0.00000  1.0000
  O   O3        1.0  0.50000  0.00000  0.50000  1.0000
  O   O4        1.0  0.00000  0.50000  0.50000  1.0000
  Sr  Sr1       1.0  0.77600  0.22500  0.03050  1.0000
  Sr  Sr2       1.0  0.72400  0.72500  0.03050  1.0000
  Sr  Sr3       1.0  0.44000  0.00765  0.25000  1.0000
  Sr  Sr4       1.0  0.05950  0.50800  0.25000  1.0000
  Sr  Sr5       1.0  0.77600  0.22500  0.47000  1.0000
  Sr  Sr6       1.0  0.72400  0.72500  0.47000  1.0000
  Sr  Sr7       1.0  0.27600  0.27500  0.53000  1.0000
  Sr  Sr8       1.0  0.22400  0.77500  0.53000  1.0000
  Sr  Sr9       1.0  0.94000  0.49200  0.75000  1.0000
  Sr  Sr10      1.0  0.56000  0.99200  0.75000  1.0000
  Sr  Sr11      1.0  0.27600  0.27500  0.97000  1.0000
  Sr  Sr12      1.0  0.22400  0.77500  0.97000  1.0000
