data_image0
_chemical_formula_structural       Ge10Ir6Pr4
_chemical_formula_sum              "Ge10 Ir6 Pr4"
_cell_length_a       6.117
_cell_length_b       8.48348
_cell_length_c       8.48348
_cell_angle_alpha    90.0917
_cell_angle_beta     111.132
_cell_angle_gamma    111.132

_space_group_name_H-M_alt    "P 1"
_space_group_IT_number       1

loop_
  _space_group_symop_operation_xyz
  'x, y, z'

loop_
  _atom_site_type_symbol
  _atom_site_label
  _atom_site_symmetry_multiplicity
  _atom_site_fract_x
  _atom_site_fract_y
  _atom_site_fract_z
  _atom_site_occupancy
  Ge  Ge1       1.0  0.16000  0.25900  0.06100  1.0000
  Ge  Ge2       1.0  0.25000  0.77600  0.22400  1.0000
  Ge  Ge3       1.0  0.75000  0.77600  0.22400  1.0000
  Ge  Ge4       1.0  0.66000  0.06100  0.25900  1.0000
  Ge  Ge5       1.0  0.25000  0.50000  0.50000  1.0000
  Ge  Ge6       1.0  0.75000  0.50000  0.50000  1.0000
  Ge  Ge7       1.0  0.34000  0.93900  0.74100  1.0000
  Ge  Ge8       1.0  0.25000  0.22400  0.77600  1.0000
  Ge  Ge9       1.0  0.75000  0.22400  0.77600  1.0000
  Ge  Ge10      1.0  0.84000  0.74100  0.93900  1.0000
  Ir  Ir1       1.0  0.25000  0.00000  0.00000  1.0000
  Ir  Ir2       1.0  0.75000  0.00000  0.00000  1.0000
  Ir  Ir3       1.0  0.39000  0.53100  0.24900  1.0000
  Ir  Ir4       1.0  0.11000  0.75100  0.46900  1.0000
  Ir  Ir5       1.0  0.89000  0.24900  0.53100  1.0000
  Ir  Ir6       1.0  0.61000  0.46900  0.75100  1.0000
  Pr  Pr1       1.0  0.77300  0.40600  0.13900  1.0000
  Pr  Pr2       1.0  0.27300  0.13900  0.40600  1.0000
  Pr  Pr3       1.0  0.72700  0.86100  0.59400  1.0000
  Pr  Pr4       1.0  0.22700  0.59400  0.86100  1.0000
