data_image0
_chemical_formula_structural       Ru6Si10U4
_chemical_formula_sum              "Ru6 Si10 U4"
_cell_length_a       5.70463
_cell_length_b       8.12051
_cell_length_c       8.12051
_cell_angle_alpha    93.0607
_cell_angle_beta     109.779
_cell_angle_gamma    109.779

_space_group_name_H-M_alt    "P 1"
_space_group_IT_number       1

loop_
  _space_group_symop_operation_xyz
  'x, y, z'

loop_
  _atom_site_type_symbol
  _atom_site_label
  _atom_site_symmetry_multiplicity
  _atom_site_fract_x
  _atom_site_fract_y
  _atom_site_fract_z
  _atom_site_occupancy
  Ru  Ru1       1.0  0.75000  0.99900  0.00057  1.0000
  Ru  Ru2       1.0  0.36500  0.54500  0.25500  1.0000
  Ru  Ru3       1.0  0.13500  0.74500  0.45500  1.0000
  Ru  Ru4       1.0  0.86500  0.25500  0.54500  1.0000
  Ru  Ru5       1.0  0.63500  0.45500  0.74500  1.0000
  Ru  Ru6       1.0  0.25000  0.00057  0.99900  1.0000
  Si  Si1       1.0  0.16500  0.26300  0.06530  1.0000
  Si  Si2       1.0  0.25000  0.79600  0.20400  1.0000
  Si  Si3       1.0  0.75000  0.77900  0.22100  1.0000
  Si  Si4       1.0  0.66500  0.06530  0.26300  1.0000
  Si  Si5       1.0  0.75000  0.51400  0.48600  1.0000
  Si  Si6       1.0  0.25000  0.48600  0.51400  1.0000
  Si  Si7       1.0  0.33500  0.93500  0.73700  1.0000
  Si  Si8       1.0  0.25000  0.22100  0.77900  1.0000
  Si  Si9       1.0  0.75000  0.20400  0.79600  1.0000
  Si  Si10      1.0  0.83500  0.73700  0.93500  1.0000
  U   U1        1.0  0.76400  0.40600  0.13100  1.0000
  U   U2        1.0  0.26400  0.13100  0.40600  1.0000
  U   U3        1.0  0.73600  0.86900  0.59400  1.0000
  U   U4        1.0  0.23600  0.59400  0.86900  1.0000
