data_image0
_chemical_formula_structural       Ge10Ru6Sm4
_chemical_formula_sum              "Ge10 Ru6 Sm4"
_cell_length_a       5.84209
_cell_length_b       8.51225
_cell_length_c       8.51225
_cell_angle_alpha    94.6505
_cell_angle_beta     110.069
_cell_angle_gamma    110.069

_space_group_name_H-M_alt    "P 1"
_space_group_IT_number       1

loop_
  _space_group_symop_operation_xyz
  'x, y, z'

loop_
  _atom_site_type_symbol
  _atom_site_label
  _atom_site_symmetry_multiplicity
  _atom_site_fract_x
  _atom_site_fract_y
  _atom_site_fract_z
  _atom_site_occupancy
  Ge  Ge1       1.0  0.17300  0.26300  0.08280  1.0000
  Ge  Ge2       1.0  0.25000  0.79100  0.20900  1.0000
  Ge  Ge3       1.0  0.75000  0.79100  0.20900  1.0000
  Ge  Ge4       1.0  0.67300  0.08280  0.26300  1.0000
  Ge  Ge5       1.0  0.25000  0.50000  0.50000  1.0000
  Ge  Ge6       1.0  0.75000  0.50000  0.50000  1.0000
  Ge  Ge7       1.0  0.32700  0.91700  0.73700  1.0000
  Ge  Ge8       1.0  0.25000  0.20900  0.79100  1.0000
  Ge  Ge9       1.0  0.75000  0.20900  0.79100  1.0000
  Ge  Ge10      1.0  0.82700  0.73700  0.91700  1.0000
  Ru  Ru1       1.0  0.25000  0.00000  0.00000  1.0000
  Ru  Ru2       1.0  0.75000  0.00000  0.00000  1.0000
  Ru  Ru3       1.0  0.40700  0.55400  0.26100  1.0000
  Ru  Ru4       1.0  0.09260  0.73900  0.44600  1.0000
  Ru  Ru5       1.0  0.90700  0.26100  0.55400  1.0000
  Ru  Ru6       1.0  0.59300  0.44600  0.73900  1.0000
  Sm  Sm1       1.0  0.76800  0.40600  0.13100  1.0000
  Sm  Sm2       1.0  0.26800  0.13100  0.40600  1.0000
  Sm  Sm3       1.0  0.73200  0.86900  0.59400  1.0000
  Sm  Sm4       1.0  0.23200  0.59400  0.86900  1.0000
