data_image0
_chemical_formula_structural       Au16Hf4
_chemical_formula_sum              "Au16 Hf4"
_cell_length_a       5.0546
_cell_length_b       4.88431
_cell_length_c       14.4301
_cell_angle_alpha    90
_cell_angle_beta     90
_cell_angle_gamma    90

_space_group_name_H-M_alt    "P 1"
_space_group_IT_number       1

loop_
  _space_group_symop_operation_xyz
  'x, y, z'

loop_
  _atom_site_type_symbol
  _atom_site_label
  _atom_site_symmetry_multiplicity
  _atom_site_fract_x
  _atom_site_fract_y
  _atom_site_fract_z
  _atom_site_occupancy
  Au  Au1       1.0  0.16300  0.25000  0.00108  1.0000
  Au  Au2       1.0  0.34300  0.75000  0.09980  1.0000
  Au  Au3       1.0  0.82700  0.75000  0.19600  1.0000
  Au  Au4       1.0  0.16300  0.25000  0.20100  1.0000
  Au  Au5       1.0  0.66300  0.25000  0.29900  1.0000
  Au  Au6       1.0  0.32700  0.75000  0.30400  1.0000
  Au  Au7       1.0  0.84300  0.75000  0.40000  1.0000
  Au  Au8       1.0  0.66300  0.25000  0.49900  1.0000
  Au  Au9       1.0  0.33700  0.75000  0.50100  1.0000
  Au  Au10      1.0  0.15700  0.25000  0.60000  1.0000
  Au  Au11      1.0  0.67300  0.25000  0.69600  1.0000
  Au  Au12      1.0  0.33700  0.75000  0.70100  1.0000
  Au  Au13      1.0  0.83700  0.75000  0.79900  1.0000
  Au  Au14      1.0  0.17300  0.25000  0.80400  1.0000
  Au  Au15      1.0  0.65700  0.25000  0.90000  1.0000
  Au  Au16      1.0  0.83700  0.75000  0.99900  1.0000
  Hf  Hf1       1.0  0.66000  0.25000  0.09870  1.0000
  Hf  Hf2       1.0  0.16000  0.25000  0.40100  1.0000
  Hf  Hf3       1.0  0.84000  0.75000  0.59900  1.0000
  Hf  Hf4       1.0  0.34000  0.75000  0.90100  1.0000
