data_image0
_chemical_formula_structural       Au6Gd6Sb8
_chemical_formula_sum              "Au6 Gd6 Sb8"
_cell_length_a       8.61365
_cell_length_b       8.61365
_cell_length_c       8.61365
_cell_angle_alpha    109.471
_cell_angle_beta     109.471
_cell_angle_gamma    109.471

_space_group_name_H-M_alt    "P 1"
_space_group_IT_number       1

loop_
  _space_group_symop_operation_xyz
  'x, y, z'

loop_
  _atom_site_type_symbol
  _atom_site_label
  _atom_site_symmetry_multiplicity
  _atom_site_fract_x
  _atom_site_fract_y
  _atom_site_fract_z
  _atom_site_occupancy
  Au  Au1       1.0  0.75000  0.37500  0.12500  1.0000
  Au  Au2       1.0  0.62500  0.87500  0.25000  1.0000
  Au  Au3       1.0  0.25000  0.12500  0.37500  1.0000
  Au  Au4       1.0  0.37500  0.75000  0.62500  1.0000
  Au  Au5       1.0  0.87500  0.62500  0.75000  1.0000
  Au  Au6       1.0  0.12500  0.25000  0.87500  1.0000
  Gd  Gd1       1.0  0.87500  0.75000  0.12500  1.0000
  Gd  Gd2       1.0  0.12500  0.37500  0.25000  1.0000
  Gd  Gd3       1.0  0.62500  0.25000  0.37500  1.0000
  Gd  Gd4       1.0  0.75000  0.87500  0.62500  1.0000
  Gd  Gd5       1.0  0.37500  0.12500  0.75000  1.0000
  Gd  Gd6       1.0  0.25000  0.62500  0.87500  1.0000
  Sb  Sb1       1.0  0.17800  0.00000  0.00000  1.0000
  Sb  Sb2       1.0  0.67800  0.00000  0.00000  1.0000
  Sb  Sb3       1.0  0.50000  0.50000  0.17800  1.0000
  Sb  Sb4       1.0  0.32200  0.82200  0.32200  1.0000
  Sb  Sb5       1.0  0.00000  0.17800  0.50000  1.0000
  Sb  Sb6       1.0  0.00000  0.67800  0.50000  1.0000
  Sb  Sb7       1.0  0.50000  0.50000  0.67800  1.0000
  Sb  Sb8       1.0  0.82200  0.32200  0.82200  1.0000
