data_image0
_chemical_formula_structural       P4Se12Sr4
_chemical_formula_sum              "P4 Se12 Sr4"
_cell_length_a       9.91659
_cell_length_b       7.88513
_cell_length_c       7.07646
_cell_angle_alpha    90
_cell_angle_beta     91.7909
_cell_angle_gamma    90

_space_group_name_H-M_alt    "P 1"
_space_group_IT_number       1

loop_
  _space_group_symop_operation_xyz
  'x, y, z'

loop_
  _atom_site_type_symbol
  _atom_site_label
  _atom_site_symmetry_multiplicity
  _atom_site_fract_x
  _atom_site_fract_y
  _atom_site_fract_z
  _atom_site_occupancy
  P   P1        1.0  0.43600  0.89400  0.05810  1.0000
  P   P2        1.0  0.06360  0.39400  0.44200  1.0000
  P   P3        1.0  0.93600  0.60600  0.55800  1.0000
  P   P4        1.0  0.56400  0.10600  0.94200  1.0000
  Se  Se1       1.0  0.23400  0.00127  0.10000  1.0000
  Se  Se2       1.0  0.55500  0.30200  0.16400  1.0000
  Se  Se3       1.0  0.95900  0.29900  0.18100  1.0000
  Se  Se4       1.0  0.54100  0.79900  0.31900  1.0000
  Se  Se5       1.0  0.94500  0.80200  0.33600  1.0000
  Se  Se6       1.0  0.26600  0.50100  0.40000  1.0000
  Se  Se7       1.0  0.73400  0.49900  0.60000  1.0000
  Se  Se8       1.0  0.05450  0.19800  0.66400  1.0000
  Se  Se9       1.0  0.45900  0.20100  0.68100  1.0000
  Se  Se10      1.0  0.04060  0.70100  0.81900  1.0000
  Se  Se11      1.0  0.44500  0.69800  0.83600  1.0000
  Se  Se12      1.0  0.76600  0.99900  0.90000  1.0000
  Sr  Sr1       1.0  0.75000  0.60800  0.03700  1.0000
  Sr  Sr2       1.0  0.75000  0.10800  0.46300  1.0000
  Sr  Sr3       1.0  0.25000  0.89200  0.53700  1.0000
  Sr  Sr4       1.0  0.25000  0.39200  0.96300  1.0000
