data_image0
_chemical_formula_structural       Eu6Fe2O12
_chemical_formula_sum              "Eu6 Fe2 O12"
_cell_length_a       5.44758
_cell_length_b       7.34683
_cell_length_c       7.34683
_cell_angle_alpha    103.06
_cell_angle_beta     90
_cell_angle_gamma    90

_space_group_name_H-M_alt    "P 1"
_space_group_IT_number       1

loop_
  _space_group_symop_operation_xyz
  'x, y, z'

loop_
  _atom_site_type_symbol
  _atom_site_label
  _atom_site_symmetry_multiplicity
  _atom_site_fract_x
  _atom_site_fract_y
  _atom_site_fract_z
  _atom_site_occupancy
  Eu  Eu1       1.0  0.01110  0.89300  0.10700  1.0000
  Eu  Eu2       1.0  0.04110  0.41500  0.20700  1.0000
  Eu  Eu3       1.0  0.54100  0.20700  0.41500  1.0000
  Eu  Eu4       1.0  0.04110  0.79300  0.58500  1.0000
  Eu  Eu5       1.0  0.54100  0.58500  0.79300  1.0000
  Eu  Eu6       1.0  0.51100  0.10700  0.89300  1.0000
  Fe  Fe1       1.0  0.58000  0.69000  0.31000  1.0000
  Fe  Fe2       1.0  0.08030  0.31000  0.69000  1.0000
  O   O1        1.0  0.71900  0.60500  0.10100  1.0000
  O   O2        1.0  0.77800  0.16900  0.15200  1.0000
  O   O3        1.0  0.27800  0.15200  0.16900  1.0000
  O   O4        1.0  0.26500  0.71400  0.28600  1.0000
  O   O5        1.0  0.71900  0.89900  0.39500  1.0000
  O   O6        1.0  0.71500  0.55200  0.44800  1.0000
  O   O7        1.0  0.21500  0.44800  0.55200  1.0000
  O   O8        1.0  0.21900  0.10100  0.60500  1.0000
  O   O9        1.0  0.76500  0.28600  0.71400  1.0000
  O   O10       1.0  0.77800  0.84800  0.83100  1.0000
  O   O11       1.0  0.27800  0.83100  0.84800  1.0000
  O   O12       1.0  0.21900  0.39500  0.89900  1.0000
