data_image0
_chemical_formula_structural       Cd4Ce8Cu8
_chemical_formula_sum              "Cd4 Ce8 Cu8"
_cell_length_a       5.71561
_cell_length_b       5.71561
_cell_length_c       15.181
_cell_angle_alpha    99.4176
_cell_angle_beta     99.3412
_cell_angle_gamma    97.7166

_space_group_name_H-M_alt    "P 1"
_space_group_IT_number       1

loop_
  _space_group_symop_operation_xyz
  'x, y, z'

loop_
  _atom_site_type_symbol
  _atom_site_label
  _atom_site_symmetry_multiplicity
  _atom_site_fract_x
  _atom_site_fract_y
  _atom_site_fract_z
  _atom_site_occupancy
  Cd  Cd1       1.0  0.77800  0.77800  0.00024  1.0000
  Cd  Cd2       1.0  0.27800  0.77800  0.50000  1.0000
  Cd  Cd3       1.0  0.72200  0.22200  0.50000  1.0000
  Cd  Cd4       1.0  0.22200  0.22200  0.00000  1.0000
  Ce  Ce1       1.0  0.32900  0.79700  0.12800  1.0000
  Ce  Ce2       1.0  0.80100  0.33000  0.13300  1.0000
  Ce  Ce3       1.0  0.69700  0.66800  0.36700  1.0000
  Ce  Ce4       1.0  0.16900  0.20100  0.37200  1.0000
  Ce  Ce5       1.0  0.83100  0.79900  0.62800  1.0000
  Ce  Ce6       1.0  0.30300  0.33200  0.63300  1.0000
  Ce  Ce7       1.0  0.19900  0.67000  0.86700  1.0000
  Ce  Ce8       1.0  0.67100  0.20300  0.87200  1.0000
  Cu  Cu1       1.0  0.32800  0.32800  0.20300  1.0000
  Cu  Cu2       1.0  0.87200  0.87200  0.20300  1.0000
  Cu  Cu3       1.0  0.16900  0.66900  0.29700  1.0000
  Cu  Cu4       1.0  0.62500  0.12600  0.29700  1.0000
  Cu  Cu5       1.0  0.37500  0.87400  0.70300  1.0000
  Cu  Cu6       1.0  0.83100  0.33100  0.70300  1.0000
  Cu  Cu7       1.0  0.12800  0.12800  0.79700  1.0000
  Cu  Cu8       1.0  0.67200  0.67200  0.79700  1.0000
