data_image0
_chemical_formula_structural       Br3Gd5O10Se2
_chemical_formula_sum              "Br3 Gd5 O10 Se2"
_cell_length_a       5.48577
_cell_length_b       6.74576
_cell_length_c       9.97845
_cell_angle_alpha    92.2916
_cell_angle_beta     90
_cell_angle_gamma    113.992

_space_group_name_H-M_alt    "P 1"
_space_group_IT_number       1

loop_
  _space_group_symop_operation_xyz
  'x, y, z'

loop_
  _atom_site_type_symbol
  _atom_site_label
  _atom_site_symmetry_multiplicity
  _atom_site_fract_x
  _atom_site_fract_y
  _atom_site_fract_z
  _atom_site_occupancy
  Br  Br1       1.0  0.17800  0.35600  0.36800  1.0000
  Br  Br2       1.0  0.50000  0.00000  0.50000  1.0000
  Br  Br3       1.0  0.82200  0.64400  0.63200  1.0000
  Gd  Gd1       1.0  0.00000  0.00000  0.00000  1.0000
  Gd  Gd2       1.0  0.29300  0.58600  0.10300  1.0000
  Gd  Gd3       1.0  0.60900  0.21800  0.23300  1.0000
  Gd  Gd4       1.0  0.39100  0.78200  0.76700  1.0000
  Gd  Gd5       1.0  0.70700  0.41400  0.89700  1.0000
  O   O1        1.0  0.40100  0.29500  0.05960  1.0000
  O   O2        1.0  0.89400  0.29500  0.05960  1.0000
  O   O3        1.0  0.19300  0.90800  0.20100  1.0000
  O   O4        1.0  0.71500  0.90800  0.20100  1.0000
  O   O5        1.0  0.78700  0.57400  0.27600  1.0000
  O   O6        1.0  0.21300  0.42600  0.72400  1.0000
  O   O7        1.0  0.28500  0.09230  0.79900  1.0000
  O   O8        1.0  0.80700  0.09230  0.79900  1.0000
  O   O9        1.0  0.10600  0.70500  0.94000  1.0000
  O   O10       1.0  0.59900  0.70500  0.94000  1.0000
  Se  Se1       1.0  0.92200  0.84400  0.31200  1.0000
  Se  Se2       1.0  0.07810  0.15600  0.68800  1.0000
