data_image0
_chemical_formula_structural       Nb2O12Sr4Yb2
_chemical_formula_sum              "Nb2 O12 Sr4 Yb2"
_cell_length_a       5.78433
_cell_length_b       5.90683
_cell_length_c       8.21814
_cell_angle_alpha    90
_cell_angle_beta     89.9417
_cell_angle_gamma    90

_space_group_name_H-M_alt    "P 1"
_space_group_IT_number       1

loop_
  _space_group_symop_operation_xyz
  'x, y, z'

loop_
  _atom_site_type_symbol
  _atom_site_label
  _atom_site_symmetry_multiplicity
  _atom_site_fract_x
  _atom_site_fract_y
  _atom_site_fract_z
  _atom_site_occupancy
  Nb  Nb1       1.0  0.00000  0.50000  0.00000  1.0000
  Nb  Nb2       1.0  0.50000  0.00000  0.50000  1.0000
  O   O1        1.0  0.28000  0.30900  0.04420  1.0000
  O   O2        1.0  0.18800  0.77700  0.05230  1.0000
  O   O3        1.0  0.90800  0.46800  0.23400  1.0000
  O   O4        1.0  0.59200  0.96800  0.26600  1.0000
  O   O5        1.0  0.31200  0.27700  0.44800  1.0000
  O   O6        1.0  0.22000  0.80900  0.45600  1.0000
  O   O7        1.0  0.78000  0.19100  0.54400  1.0000
  O   O8        1.0  0.68800  0.72300  0.55200  1.0000
  O   O9        1.0  0.40800  0.03170  0.73400  1.0000
  O   O10       1.0  0.09230  0.53200  0.76600  1.0000
  O   O11       1.0  0.81200  0.22300  0.94800  1.0000
  O   O12       1.0  0.72000  0.69100  0.95600  1.0000
  Sr  Sr1       1.0  0.48800  0.54800  0.24800  1.0000
  Sr  Sr2       1.0  0.01230  0.04790  0.25200  1.0000
  Sr  Sr3       1.0  0.98800  0.95200  0.74800  1.0000
  Sr  Sr4       1.0  0.51200  0.45200  0.75200  1.0000
  Yb  Yb1       1.0  0.50000  0.00000  0.00000  1.0000
  Yb  Yb2       1.0  0.00000  0.50000  0.50000  1.0000
