data_image0
_chemical_formula_structural       As8Hf12
_chemical_formula_sum              "As8 Hf12"
_cell_length_a       10.5115
_cell_length_b       3.66574
_cell_length_c       10.1168
_cell_angle_alpha    90
_cell_angle_beta     90
_cell_angle_gamma    90

_space_group_name_H-M_alt    "P 1"
_space_group_IT_number       1

loop_
  _space_group_symop_operation_xyz
  'x, y, z'

loop_
  _atom_site_type_symbol
  _atom_site_label
  _atom_site_symmetry_multiplicity
  _atom_site_fract_x
  _atom_site_fract_y
  _atom_site_fract_z
  _atom_site_occupancy
  As  As1       1.0  0.19500  0.75000  0.00113  1.0000
  As  As2       1.0  0.46800  0.25000  0.17800  1.0000
  As  As3       1.0  0.96800  0.25000  0.32200  1.0000
  As  As4       1.0  0.69500  0.75000  0.49900  1.0000
  As  As5       1.0  0.30500  0.25000  0.50100  1.0000
  As  As6       1.0  0.03210  0.75000  0.67800  1.0000
  As  As7       1.0  0.53200  0.75000  0.82200  1.0000
  As  As8       1.0  0.80500  0.25000  0.99900  1.0000
  Hf  Hf1       1.0  0.62600  0.75000  0.06810  1.0000
  Hf  Hf2       1.0  0.95500  0.75000  0.12500  1.0000
  Hf  Hf3       1.0  0.21300  0.25000  0.20600  1.0000
  Hf  Hf4       1.0  0.71300  0.25000  0.29400  1.0000
  Hf  Hf5       1.0  0.45500  0.75000  0.37500  1.0000
  Hf  Hf6       1.0  0.12600  0.75000  0.43200  1.0000
  Hf  Hf7       1.0  0.87400  0.25000  0.56800  1.0000
  Hf  Hf8       1.0  0.54500  0.25000  0.62500  1.0000
  Hf  Hf9       1.0  0.28700  0.75000  0.70600  1.0000
  Hf  Hf10      1.0  0.78700  0.75000  0.79400  1.0000
  Hf  Hf11      1.0  0.04470  0.25000  0.87500  1.0000
  Hf  Hf12      1.0  0.37400  0.25000  0.93200  1.0000
