data_image0
_chemical_formula_structural       Cd4Cu8Pr8
_chemical_formula_sum              "Cd4 Cu8 Pr8"
_cell_length_a       5.69046
_cell_length_b       5.69046
_cell_length_c       15.1308
_cell_angle_alpha    99.3831
_cell_angle_beta     99.28
_cell_angle_gamma    97.9154

_space_group_name_H-M_alt    "P 1"
_space_group_IT_number       1

loop_
  _space_group_symop_operation_xyz
  'x, y, z'

loop_
  _atom_site_type_symbol
  _atom_site_label
  _atom_site_symmetry_multiplicity
  _atom_site_fract_x
  _atom_site_fract_y
  _atom_site_fract_z
  _atom_site_occupancy
  Cd  Cd1       1.0  0.77800  0.77800  0.00024  1.0000
  Cd  Cd2       1.0  0.27700  0.77800  0.50000  1.0000
  Cd  Cd3       1.0  0.72300  0.22200  0.50000  1.0000
  Cd  Cd4       1.0  0.22200  0.22200  0.00000  1.0000
  Cu  Cu1       1.0  0.32700  0.32600  0.20200  1.0000
  Cu  Cu2       1.0  0.87200  0.87300  0.20300  1.0000
  Cu  Cu3       1.0  0.17000  0.66900  0.29700  1.0000
  Cu  Cu4       1.0  0.62400  0.12500  0.29800  1.0000
  Cu  Cu5       1.0  0.37600  0.87500  0.70200  1.0000
  Cu  Cu6       1.0  0.83000  0.33100  0.70300  1.0000
  Cu  Cu7       1.0  0.12800  0.12700  0.79700  1.0000
  Cu  Cu8       1.0  0.67300  0.67400  0.79800  1.0000
  Pr  Pr1       1.0  0.32900  0.79600  0.12800  1.0000
  Pr  Pr2       1.0  0.80100  0.33000  0.13400  1.0000
  Pr  Pr3       1.0  0.69700  0.66700  0.36600  1.0000
  Pr  Pr4       1.0  0.16800  0.20100  0.37200  1.0000
  Pr  Pr5       1.0  0.83200  0.79900  0.62800  1.0000
  Pr  Pr6       1.0  0.30300  0.33300  0.63400  1.0000
  Pr  Pr7       1.0  0.19900  0.67000  0.86600  1.0000
  Pr  Pr8       1.0  0.67100  0.20400  0.87200  1.0000
