data_image0
_chemical_formula_structural       Ge10Ru6Tm4
_chemical_formula_sum              "Ge10 Ru6 Tm4"
_cell_length_a       5.72183
_cell_length_b       8.44803
_cell_length_c       8.44803
_cell_angle_alpha    95.5677
_cell_angle_beta     109.795
_cell_angle_gamma    109.795

_space_group_name_H-M_alt    "P 1"
_space_group_IT_number       1

loop_
  _space_group_symop_operation_xyz
  'x, y, z'

loop_
  _atom_site_type_symbol
  _atom_site_label
  _atom_site_symmetry_multiplicity
  _atom_site_fract_x
  _atom_site_fract_y
  _atom_site_fract_z
  _atom_site_occupancy
  Ge  Ge1       1.0  0.17800  0.26400  0.09240  1.0000
  Ge  Ge2       1.0  0.25000  0.79500  0.20500  1.0000
  Ge  Ge3       1.0  0.75000  0.79500  0.20500  1.0000
  Ge  Ge4       1.0  0.67800  0.09240  0.26400  1.0000
  Ge  Ge5       1.0  0.25000  0.50000  0.50000  1.0000
  Ge  Ge6       1.0  0.75000  0.50000  0.50000  1.0000
  Ge  Ge7       1.0  0.32200  0.90800  0.73600  1.0000
  Ge  Ge8       1.0  0.25000  0.20500  0.79500  1.0000
  Ge  Ge9       1.0  0.75000  0.20500  0.79500  1.0000
  Ge  Ge10      1.0  0.82200  0.73600  0.90800  1.0000
  Ru  Ru1       1.0  0.25000  0.00000  0.00000  1.0000
  Ru  Ru2       1.0  0.75000  0.00000  0.00000  1.0000
  Ru  Ru3       1.0  0.41000  0.55900  0.26100  1.0000
  Ru  Ru4       1.0  0.08980  0.73900  0.44100  1.0000
  Ru  Ru5       1.0  0.91000  0.26100  0.55900  1.0000
  Ru  Ru6       1.0  0.59000  0.44100  0.73900  1.0000
  Tm  Tm1       1.0  0.76900  0.41100  0.12700  1.0000
  Tm  Tm2       1.0  0.26900  0.12700  0.41100  1.0000
  Tm  Tm3       1.0  0.73100  0.87300  0.58900  1.0000
  Tm  Tm4       1.0  0.23100  0.58900  0.87300  1.0000
