data_image0
_chemical_formula_structural       Ce4Ge10Ir6
_chemical_formula_sum              "Ce4 Ge10 Ir6"
_cell_length_a       6.15209
_cell_length_b       8.52595
_cell_length_c       8.52595
_cell_angle_alpha    90.2268
_cell_angle_beta     111.148
_cell_angle_gamma    111.148

_space_group_name_H-M_alt    "P 1"
_space_group_IT_number       1

loop_
  _space_group_symop_operation_xyz
  'x, y, z'

loop_
  _atom_site_type_symbol
  _atom_site_label
  _atom_site_symmetry_multiplicity
  _atom_site_fract_x
  _atom_site_fract_y
  _atom_site_fract_z
  _atom_site_occupancy
  Ce  Ce1       1.0  0.77200  0.40500  0.13900  1.0000
  Ce  Ce2       1.0  0.27200  0.13900  0.40500  1.0000
  Ce  Ce3       1.0  0.72800  0.86100  0.59500  1.0000
  Ce  Ce4       1.0  0.22800  0.59500  0.86100  1.0000
  Ge  Ge1       1.0  0.15900  0.25900  0.06020  1.0000
  Ge  Ge2       1.0  0.25000  0.77500  0.22500  1.0000
  Ge  Ge3       1.0  0.75000  0.77500  0.22500  1.0000
  Ge  Ge4       1.0  0.65900  0.06020  0.25900  1.0000
  Ge  Ge5       1.0  0.25000  0.50000  0.50000  1.0000
  Ge  Ge6       1.0  0.75000  0.50000  0.50000  1.0000
  Ge  Ge7       1.0  0.34100  0.94000  0.74100  1.0000
  Ge  Ge8       1.0  0.25000  0.22500  0.77500  1.0000
  Ge  Ge9       1.0  0.75000  0.22500  0.77500  1.0000
  Ge  Ge10      1.0  0.84100  0.74100  0.94000  1.0000
  Ir  Ir1       1.0  0.25000  0.00000  0.00000  1.0000
  Ir  Ir2       1.0  0.75000  0.00000  0.00000  1.0000
  Ir  Ir3       1.0  0.39100  0.53100  0.25000  1.0000
  Ir  Ir4       1.0  0.10900  0.75000  0.46900  1.0000
  Ir  Ir5       1.0  0.89100  0.25000  0.53100  1.0000
  Ir  Ir6       1.0  0.60900  0.46900  0.75000  1.0000
