data_image0
_chemical_formula_structural       GdRbSe2
_chemical_formula_sum              "Gd1 Rb1 Se2"
_cell_length_a       4.26962
_cell_length_b       4.26962
_cell_length_c       8.3242
_cell_angle_alpha    90
_cell_angle_beta     104.86
_cell_angle_gamma    60

_space_group_name_H-M_alt    "P 1"
_space_group_IT_number       1

loop_
  _space_group_symop_operation_xyz
  'x, y, z'

loop_
  _atom_site_type_symbol
  _atom_site_label
  _atom_site_symmetry_multiplicity
  _atom_site_fract_x
  _atom_site_fract_y
  _atom_site_fract_z
  _atom_site_occupancy
  Gd  Gd1       1.0  0.00000  0.50000  0.50000  1.0000
  Rb  Rb1       1.0  0.00000  0.00000  0.00000  1.0000
  Se  Se1       1.0  0.53400  0.23300  0.30100  1.0000
  Se  Se2       1.0  0.46600  0.76700  0.69900  1.0000
