data_image0
_chemical_formula_structural       Al15Er4Gd
_chemical_formula_sum              "Al15 Er4 Gd1"
_cell_length_a       6.08497
_cell_length_b       6.08497
_cell_length_c       12.4517
_cell_angle_alpha    104.143
_cell_angle_beta     75.857
_cell_angle_gamma    120

_space_group_name_H-M_alt    "P 1"
_space_group_IT_number       1

loop_
  _space_group_symop_operation_xyz
  'x, y, z'

loop_
  _atom_site_type_symbol
  _atom_site_label
  _atom_site_symmetry_multiplicity
  _atom_site_fract_x
  _atom_site_fract_y
  _atom_site_fract_z
  _atom_site_occupancy
  Al  Al1       1.0  0.50000  0.00000  0.00000  1.0000
  Al  Al2       1.0  0.00000  0.50000  0.00000  1.0000
  Al  Al3       1.0  0.50000  0.50000  0.00000  1.0000
  Al  Al4       1.0  0.11700  0.43300  0.20000  1.0000
  Al  Al5       1.0  0.11700  0.88300  0.20000  1.0000
  Al  Al6       1.0  0.56700  0.88300  0.20000  1.0000
  Al  Al7       1.0  0.36500  0.13000  0.40100  1.0000
  Al  Al8       1.0  0.36500  0.63500  0.40100  1.0000
  Al  Al9       1.0  0.87000  0.63500  0.40100  1.0000
  Al  Al10      1.0  0.13000  0.36500  0.59900  1.0000
  Al  Al11      1.0  0.63500  0.36500  0.59900  1.0000
  Al  Al12      1.0  0.63500  0.87000  0.59900  1.0000
  Al  Al13      1.0  0.43300  0.11700  0.80000  1.0000
  Al  Al14      1.0  0.88300  0.11700  0.80000  1.0000
  Al  Al15      1.0  0.88300  0.56700  0.80000  1.0000
  Er  Er1       1.0  0.60000  0.40000  0.20000  1.0000
  Er  Er2       1.0  0.86900  0.13100  0.39400  1.0000
  Er  Er3       1.0  0.13100  0.86900  0.60600  1.0000
  Er  Er4       1.0  0.40000  0.60000  0.80000  1.0000
  Gd  Gd1       1.0  0.00000  0.00000  0.00000  1.0000
