data_image0
_chemical_formula_structural       C8Nd8W4
_chemical_formula_sum              "C8 Nd8 W4"
_cell_length_a       5.82578
_cell_length_b       5.82578
_cell_length_c       10.3931
_cell_angle_alpha    90
_cell_angle_beta     90
_cell_angle_gamma    90

_space_group_name_H-M_alt    "P 1"
_space_group_IT_number       1

loop_
  _space_group_symop_operation_xyz
  'x, y, z'

loop_
  _atom_site_type_symbol
  _atom_site_label
  _atom_site_symmetry_multiplicity
  _atom_site_fract_x
  _atom_site_fract_y
  _atom_site_fract_z
  _atom_site_occupancy
  C   C1        1.0  0.50000  0.00000  0.00000  1.0000
  C   C2        1.0  0.00000  0.50000  0.00000  1.0000
  C   C3        1.0  0.00000  0.00000  0.14300  1.0000
  C   C4        1.0  0.50000  0.50000  0.35700  1.0000
  C   C5        1.0  0.50000  0.00000  0.50000  1.0000
  C   C6        1.0  0.00000  0.50000  0.50000  1.0000
  C   C7        1.0  0.50000  0.50000  0.64300  1.0000
  C   C8        1.0  0.00000  0.00000  0.85700  1.0000
  Nd  Nd1       1.0  0.69700  0.30300  0.15700  1.0000
  Nd  Nd2       1.0  0.30300  0.69700  0.15700  1.0000
  Nd  Nd3       1.0  0.19700  0.19700  0.34300  1.0000
  Nd  Nd4       1.0  0.80300  0.80300  0.34300  1.0000
  Nd  Nd5       1.0  0.19700  0.19700  0.65700  1.0000
  Nd  Nd6       1.0  0.80300  0.80300  0.65700  1.0000
  Nd  Nd7       1.0  0.69700  0.30300  0.84300  1.0000
  Nd  Nd8       1.0  0.30300  0.69700  0.84300  1.0000
  W   W1        1.0  0.17700  0.17700  0.00000  1.0000
  W   W2        1.0  0.82300  0.82300  0.00000  1.0000
  W   W3        1.0  0.67700  0.32300  0.50000  1.0000
  W   W4        1.0  0.32300  0.67700  0.50000  1.0000
