data_image0
_chemical_formula_structural       Fe2Nd6O12
_chemical_formula_sum              "Fe2 Nd6 O12"
_cell_length_a       5.6122
_cell_length_b       7.35726
_cell_length_c       7.35726
_cell_angle_alpha    102.833
_cell_angle_beta     90
_cell_angle_gamma    90

_space_group_name_H-M_alt    "P 1"
_space_group_IT_number       1

loop_
  _space_group_symop_operation_xyz
  'x, y, z'

loop_
  _atom_site_type_symbol
  _atom_site_label
  _atom_site_symmetry_multiplicity
  _atom_site_fract_x
  _atom_site_fract_y
  _atom_site_fract_z
  _atom_site_occupancy
  Fe  Fe1       1.0  0.00079  0.69200  0.30800  1.0000
  Fe  Fe2       1.0  0.50100  0.30800  0.69200  1.0000
  Nd  Nd1       1.0  0.57600  0.89600  0.10400  1.0000
  Nd  Nd2       1.0  0.53200  0.41300  0.20200  1.0000
  Nd  Nd3       1.0  0.03240  0.20200  0.41300  1.0000
  Nd  Nd4       1.0  0.53200  0.79800  0.58700  1.0000
  Nd  Nd5       1.0  0.03240  0.58700  0.79800  1.0000
  Nd  Nd6       1.0  0.07620  0.10400  0.89600  1.0000
  O   O1        1.0  0.82900  0.60500  0.08380  1.0000
  O   O2        1.0  0.80300  0.17300  0.14600  1.0000
  O   O3        1.0  0.30300  0.14600  0.17300  1.0000
  O   O4        1.0  0.33300  0.71600  0.28400  1.0000
  O   O5        1.0  0.82900  0.91600  0.39500  1.0000
  O   O6        1.0  0.86200  0.54000  0.46000  1.0000
  O   O7        1.0  0.36200  0.46000  0.54000  1.0000
  O   O8        1.0  0.32900  0.08380  0.60500  1.0000
  O   O9        1.0  0.83300  0.28400  0.71600  1.0000
  O   O10       1.0  0.80300  0.85400  0.82700  1.0000
  O   O11       1.0  0.30300  0.82700  0.85400  1.0000
  O   O12       1.0  0.32900  0.39500  0.91600  1.0000
