data_image0
_chemical_formula_structural       Ge10Ir6La4
_chemical_formula_sum              "Ge10 Ir6 La4"
_cell_length_a       6.13813
_cell_length_b       8.53177
_cell_length_c       8.53177
_cell_angle_alpha    90.4847
_cell_angle_beta     111.083
_cell_angle_gamma    111.083

_space_group_name_H-M_alt    "P 1"
_space_group_IT_number       1

loop_
  _space_group_symop_operation_xyz
  'x, y, z'

loop_
  _atom_site_type_symbol
  _atom_site_label
  _atom_site_symmetry_multiplicity
  _atom_site_fract_x
  _atom_site_fract_y
  _atom_site_fract_z
  _atom_site_occupancy
  Ge  Ge1       1.0  0.15800  0.25900  0.05590  1.0000
  Ge  Ge2       1.0  0.25000  0.77300  0.22700  1.0000
  Ge  Ge3       1.0  0.75000  0.77300  0.22700  1.0000
  Ge  Ge4       1.0  0.65800  0.05590  0.25900  1.0000
  Ge  Ge5       1.0  0.25000  0.50000  0.50000  1.0000
  Ge  Ge6       1.0  0.75000  0.50000  0.50000  1.0000
  Ge  Ge7       1.0  0.34200  0.94400  0.74100  1.0000
  Ge  Ge8       1.0  0.25000  0.22700  0.77300  1.0000
  Ge  Ge9       1.0  0.75000  0.22700  0.77300  1.0000
  Ge  Ge10      1.0  0.84200  0.74100  0.94400  1.0000
  Ir  Ir1       1.0  0.25000  0.00000  0.00000  1.0000
  Ir  Ir2       1.0  0.75000  0.00000  0.00000  1.0000
  Ir  Ir3       1.0  0.39000  0.53000  0.24900  1.0000
  Ir  Ir4       1.0  0.11000  0.75100  0.47000  1.0000
  Ir  Ir5       1.0  0.89000  0.24900  0.53000  1.0000
  Ir  Ir6       1.0  0.61000  0.47000  0.75100  1.0000
  La  La1       1.0  0.76900  0.40100  0.13700  1.0000
  La  La2       1.0  0.26900  0.13700  0.40100  1.0000
  La  La3       1.0  0.73100  0.86300  0.59900  1.0000
  La  La4       1.0  0.23100  0.59900  0.86300  1.0000
