data_image0
_chemical_formula_structural       Ge10Ir6Sm4
_chemical_formula_sum              "Ge10 Ir6 Sm4"
_cell_length_a       6.07397
_cell_length_b       8.42793
_cell_length_c       8.42793
_cell_angle_alpha    89.7596
_cell_angle_beta     111.122
_cell_angle_gamma    111.122

_space_group_name_H-M_alt    "P 1"
_space_group_IT_number       1

loop_
  _space_group_symop_operation_xyz
  'x, y, z'

loop_
  _atom_site_type_symbol
  _atom_site_label
  _atom_site_symmetry_multiplicity
  _atom_site_fract_x
  _atom_site_fract_y
  _atom_site_fract_z
  _atom_site_occupancy
  Ge  Ge1       1.0  0.16200  0.26000  0.06280  1.0000
  Ge  Ge2       1.0  0.25000  0.77600  0.22400  1.0000
  Ge  Ge3       1.0  0.75000  0.77600  0.22400  1.0000
  Ge  Ge4       1.0  0.66200  0.06280  0.26000  1.0000
  Ge  Ge5       1.0  0.25000  0.50000  0.50000  1.0000
  Ge  Ge6       1.0  0.75000  0.50000  0.50000  1.0000
  Ge  Ge7       1.0  0.33800  0.93700  0.74000  1.0000
  Ge  Ge8       1.0  0.25000  0.22400  0.77600  1.0000
  Ge  Ge9       1.0  0.75000  0.22400  0.77600  1.0000
  Ge  Ge10      1.0  0.83800  0.74000  0.93700  1.0000
  Ir  Ir1       1.0  0.25000  0.00000  0.00000  1.0000
  Ir  Ir2       1.0  0.75000  0.00000  0.00000  1.0000
  Ir  Ir3       1.0  0.39000  0.53200  0.24800  1.0000
  Ir  Ir4       1.0  0.11000  0.75200  0.46800  1.0000
  Ir  Ir5       1.0  0.89000  0.24800  0.53200  1.0000
  Ir  Ir6       1.0  0.61000  0.46800  0.75200  1.0000
  Sm  Sm1       1.0  0.77300  0.40700  0.13900  1.0000
  Sm  Sm2       1.0  0.27300  0.13900  0.40700  1.0000
  Sm  Sm3       1.0  0.72700  0.86100  0.59300  1.0000
  Sm  Sm4       1.0  0.22700  0.59300  0.86100  1.0000
