data_image0
_chemical_formula_structural       Au4Ga4V12
_chemical_formula_sum              "Au4 Ga4 V12"
_cell_length_a       6.64784
_cell_length_b       6.64784
_cell_length_c       6.64784
_cell_angle_alpha    90
_cell_angle_beta     90
_cell_angle_gamma    90

_space_group_name_H-M_alt    "P 1"
_space_group_IT_number       1

loop_
  _space_group_symop_operation_xyz
  'x, y, z'

loop_
  _atom_site_type_symbol
  _atom_site_label
  _atom_site_symmetry_multiplicity
  _atom_site_fract_x
  _atom_site_fract_y
  _atom_site_fract_z
  _atom_site_occupancy
  Au  Au1       1.0  0.06410  0.06410  0.06410  1.0000
  Au  Au2       1.0  0.93600  0.56400  0.43600  1.0000
  Au  Au3       1.0  0.43600  0.93600  0.56400  1.0000
  Au  Au4       1.0  0.56400  0.43600  0.93600  1.0000
  Ga  Ga1       1.0  0.81100  0.31100  0.18900  1.0000
  Ga  Ga2       1.0  0.18900  0.81100  0.31100  1.0000
  Ga  Ga3       1.0  0.68900  0.68900  0.68900  1.0000
  Ga  Ga4       1.0  0.31100  0.18900  0.81100  1.0000
  V   V1        1.0  0.87000  0.70600  0.04070  1.0000
  V   V2        1.0  0.20600  0.45900  0.13000  1.0000
  V   V3        1.0  0.45900  0.13000  0.20600  1.0000
  V   V4        1.0  0.54100  0.63000  0.29400  1.0000
  V   V5        1.0  0.79400  0.95900  0.37000  1.0000
  V   V6        1.0  0.13000  0.20600  0.45900  1.0000
  V   V7        1.0  0.63000  0.29400  0.54100  1.0000
  V   V8        1.0  0.29400  0.54100  0.63000  1.0000
  V   V9        1.0  0.04070  0.87000  0.70600  1.0000
  V   V10       1.0  0.95900  0.37000  0.79400  1.0000
  V   V11       1.0  0.70600  0.04070  0.87000  1.0000
  V   V12       1.0  0.37000  0.79400  0.95900  1.0000
