data_image0
_chemical_formula_structural       K2P4S12Sb2
_chemical_formula_sum              "K2 P4 S12 Sb2"
_cell_length_a       6.68201
_cell_length_b       7.78798
_cell_length_c       9.79868
_cell_angle_alpha    90
_cell_angle_beta     92.027
_cell_angle_gamma    90

_space_group_name_H-M_alt    "P 1"
_space_group_IT_number       1

loop_
  _space_group_symop_operation_xyz
  'x, y, z'

loop_
  _atom_site_type_symbol
  _atom_site_label
  _atom_site_symmetry_multiplicity
  _atom_site_fract_x
  _atom_site_fract_y
  _atom_site_fract_z
  _atom_site_occupancy
  K   K1        1.0  0.30500  0.55500  0.49300  1.0000
  K   K2        1.0  0.69500  0.05510  0.50700  1.0000
  P   P1        1.0  0.30700  0.85000  0.17000  1.0000
  P   P2        1.0  0.20300  0.06740  0.30300  1.0000
  P   P3        1.0  0.79700  0.56700  0.69700  1.0000
  P   P4        1.0  0.69300  0.35000  0.83000  1.0000
  S   S1        1.0  0.67100  0.46400  0.02140  1.0000
  S   S2        1.0  0.09200  0.66000  0.17100  1.0000
  S   S3        1.0  0.94700  0.14100  0.19300  1.0000
  S   S4        1.0  0.57100  0.76500  0.24700  1.0000
  S   S5        1.0  0.41000  0.25300  0.26900  1.0000
  S   S6        1.0  0.17400  0.98500  0.49100  1.0000
  S   S7        1.0  0.82600  0.48500  0.50900  1.0000
  S   S8        1.0  0.59000  0.75300  0.73100  1.0000
  S   S9        1.0  0.42900  0.26500  0.75300  1.0000
  S   S10       1.0  0.05350  0.64100  0.80700  1.0000
  S   S11       1.0  0.90800  0.16000  0.82900  1.0000
  S   S12       1.0  0.32900  0.96400  0.97900  1.0000
  Sb  Sb1       1.0  0.18800  0.26800  0.01680  1.0000
  Sb  Sb2       1.0  0.81200  0.76800  0.98300  1.0000
