data_image0
_chemical_formula_structural       Ga8Gd12
_chemical_formula_sum              "Ga8 Gd12"
_cell_length_a       8.20504
_cell_length_b       8.20504
_cell_length_c       7.58354
_cell_angle_alpha    90
_cell_angle_beta     90
_cell_angle_gamma    90

_space_group_name_H-M_alt    "P 1"
_space_group_IT_number       1

loop_
  _space_group_symop_operation_xyz
  'x, y, z'

loop_
  _atom_site_type_symbol
  _atom_site_label
  _atom_site_symmetry_multiplicity
  _atom_site_fract_x
  _atom_site_fract_y
  _atom_site_fract_z
  _atom_site_occupancy
  Ga  Ga1       1.0  0.37900  0.37900  0.05260  1.0000
  Ga  Ga2       1.0  0.62100  0.62100  0.05260  1.0000
  Ga  Ga3       1.0  0.38000  0.38000  0.45900  1.0000
  Ga  Ga4       1.0  0.62000  0.62000  0.45900  1.0000
  Ga  Ga5       1.0  0.87900  0.12100  0.55300  1.0000
  Ga  Ga6       1.0  0.12100  0.87900  0.55300  1.0000
  Ga  Ga7       1.0  0.88000  0.12000  0.95900  1.0000
  Ga  Ga8       1.0  0.12000  0.88000  0.95900  1.0000
  Gd  Gd1       1.0  0.50000  0.00000  0.00702  1.0000
  Gd  Gd2       1.0  0.00000  0.50000  0.00702  1.0000
  Gd  Gd3       1.0  0.69600  0.30400  0.25600  1.0000
  Gd  Gd4       1.0  0.30400  0.69600  0.25600  1.0000
  Gd  Gd5       1.0  0.15400  0.15400  0.25700  1.0000
  Gd  Gd6       1.0  0.84600  0.84600  0.25700  1.0000
  Gd  Gd7       1.0  0.50000  0.00000  0.50700  1.0000
  Gd  Gd8       1.0  0.00000  0.50000  0.50700  1.0000
  Gd  Gd9       1.0  0.19600  0.19600  0.75600  1.0000
  Gd  Gd10      1.0  0.80400  0.80400  0.75600  1.0000
  Gd  Gd11      1.0  0.65400  0.34600  0.75700  1.0000
  Gd  Gd12      1.0  0.34600  0.65400  0.75700  1.0000
