data_image0
_chemical_formula_structural       Na2Nd4O12Os2
_chemical_formula_sum              "Na2 Nd4 O12 Os2"
_cell_length_a       5.50229
_cell_length_b       5.9331
_cell_length_c       7.9238
_cell_angle_alpha    90
_cell_angle_beta     91.0843
_cell_angle_gamma    90

_space_group_name_H-M_alt    "P 1"
_space_group_IT_number       1

loop_
  _space_group_symop_operation_xyz
  'x, y, z'

loop_
  _atom_site_type_symbol
  _atom_site_label
  _atom_site_symmetry_multiplicity
  _atom_site_fract_x
  _atom_site_fract_y
  _atom_site_fract_z
  _atom_site_occupancy
  Na  Na1       1.0  0.00000  0.00000  0.00000  1.0000
  Na  Na2       1.0  0.50000  0.50000  0.50000  1.0000
  Nd  Nd1       1.0  0.02210  0.57300  0.24700  1.0000
  Nd  Nd2       1.0  0.47800  0.07250  0.25300  1.0000
  Nd  Nd3       1.0  0.52200  0.92700  0.74700  1.0000
  Nd  Nd4       1.0  0.97800  0.42700  0.75300  1.0000
  O   O1        1.0  0.20400  0.32500  0.05150  1.0000
  O   O2        1.0  0.33500  0.78300  0.06800  1.0000
  O   O3        1.0  0.62100  0.45000  0.23300  1.0000
  O   O4        1.0  0.87900  0.95000  0.26700  1.0000
  O   O5        1.0  0.16500  0.28300  0.43200  1.0000
  O   O6        1.0  0.29600  0.82500  0.44800  1.0000
  O   O7        1.0  0.70400  0.17500  0.55200  1.0000
  O   O8        1.0  0.83500  0.71700  0.56800  1.0000
  O   O9        1.0  0.12100  0.04980  0.73300  1.0000
  O   O10       1.0  0.37900  0.55000  0.76700  1.0000
  O   O11       1.0  0.66500  0.21700  0.93200  1.0000
  O   O12       1.0  0.79600  0.67500  0.94800  1.0000
  Os  Os1       1.0  0.50000  0.50000  0.00000  1.0000
  Os  Os2       1.0  0.00000  0.00000  0.50000  1.0000
