data_image0
_chemical_formula_structural       Ir4Sn16
_chemical_formula_sum              "Ir4 Sn16"
_cell_length_a       12.3876
_cell_length_b       6.37802
_cell_length_c       6.37802
_cell_angle_alpha    90
_cell_angle_beta     104.918
_cell_angle_gamma    104.918

_space_group_name_H-M_alt    "P 1"
_space_group_IT_number       1

loop_
  _space_group_symop_operation_xyz
  'x, y, z'

loop_
  _atom_site_type_symbol
  _atom_site_label
  _atom_site_symmetry_multiplicity
  _atom_site_fract_x
  _atom_site_fract_y
  _atom_site_fract_z
  _atom_site_occupancy
  Ir  Ir1       1.0  0.75000  0.87500  0.12500  1.0000
  Ir  Ir2       1.0  0.25000  0.62500  0.37500  1.0000
  Ir  Ir3       1.0  0.75000  0.37500  0.62500  1.0000
  Ir  Ir4       1.0  0.25000  0.12500  0.87500  1.0000
  Sn  Sn1       1.0  0.87700  0.26600  0.01510  1.0000
  Sn  Sn2       1.0  0.37700  0.51500  0.11100  1.0000
  Sn  Sn3       1.0  0.12300  0.23400  0.13800  1.0000
  Sn  Sn4       1.0  0.62300  0.13800  0.23400  1.0000
  Sn  Sn5       1.0  0.37700  0.01510  0.26600  1.0000
  Sn  Sn6       1.0  0.87700  0.61100  0.36200  1.0000
  Sn  Sn7       1.0  0.62300  0.63800  0.38900  1.0000
  Sn  Sn8       1.0  0.12300  0.88900  0.48500  1.0000
  Sn  Sn9       1.0  0.87700  0.11100  0.51500  1.0000
  Sn  Sn10      1.0  0.37700  0.36200  0.61100  1.0000
  Sn  Sn11      1.0  0.12300  0.38900  0.63800  1.0000
  Sn  Sn12      1.0  0.62300  0.98500  0.73400  1.0000
  Sn  Sn13      1.0  0.37700  0.86200  0.76600  1.0000
  Sn  Sn14      1.0  0.87700  0.76600  0.86200  1.0000
  Sn  Sn15      1.0  0.62300  0.48500  0.88900  1.0000
  Sn  Sn16      1.0  0.12300  0.73400  0.98500  1.0000
