data_image0
_chemical_formula_structural       Ir2La4Li2O12
_chemical_formula_sum              "Ir2 La4 Li2 O12"
_cell_length_a       5.53374
_cell_length_b       5.62053
_cell_length_c       7.83236
_cell_angle_alpha    90
_cell_angle_beta     90.2495
_cell_angle_gamma    90

_space_group_name_H-M_alt    "P 1"
_space_group_IT_number       1

loop_
  _space_group_symop_operation_xyz
  'x, y, z'

loop_
  _atom_site_type_symbol
  _atom_site_label
  _atom_site_symmetry_multiplicity
  _atom_site_fract_x
  _atom_site_fract_y
  _atom_site_fract_z
  _atom_site_occupancy
  Ir  Ir1       1.0  0.50000  0.50000  0.00000  1.0000
  Ir  Ir2       1.0  1.00000  0.00000  0.50000  1.0000
  La  La1       1.0  0.00947  0.55000  0.24900  1.0000
  La  La2       1.0  0.49100  0.04990  0.25100  1.0000
  La  La3       1.0  0.50900  0.95000  0.74900  1.0000
  La  La4       1.0  0.99100  0.45000  0.75100  1.0000
  Li  Li1       1.0  0.00000  0.00000  0.00000  1.0000
  Li  Li2       1.0  0.50000  0.50000  0.50000  1.0000
  O   O1        1.0  0.21100  0.29900  0.04290  1.0000
  O   O2        1.0  0.30100  0.78600  0.04460  1.0000
  O   O3        1.0  0.58200  0.48400  0.24600  1.0000
  O   O4        1.0  0.91800  0.98400  0.25400  1.0000
  O   O5        1.0  0.19900  0.28600  0.45500  1.0000
  O   O6        1.0  0.28900  0.79900  0.45700  1.0000
  O   O7        1.0  0.71100  0.20100  0.54300  1.0000
  O   O8        1.0  0.80100  0.71400  0.54500  1.0000
  O   O9        1.0  0.08180  0.01570  0.74600  1.0000
  O   O10       1.0  0.41800  0.51600  0.75400  1.0000
  O   O11       1.0  0.69900  0.21400  0.95500  1.0000
  O   O12       1.0  0.78900  0.70100  0.95700  1.0000
