data_image0
_chemical_formula_structural       Bi4Cl14Tl2
_chemical_formula_sum              "Bi4 Cl14 Tl2"
_cell_length_a       8.81752
_cell_length_b       10.8347
_cell_length_c       7.01461
_cell_angle_alpha    107.945
_cell_angle_beta     107.24
_cell_angle_gamma    75.6483

_space_group_name_H-M_alt    "P 1"
_space_group_IT_number       1

loop_
  _space_group_symop_operation_xyz
  'x, y, z'

loop_
  _atom_site_type_symbol
  _atom_site_label
  _atom_site_symmetry_multiplicity
  _atom_site_fract_x
  _atom_site_fract_y
  _atom_site_fract_z
  _atom_site_occupancy
  Bi  Bi1       1.0  0.86900  0.83800  0.31300  1.0000
  Bi  Bi2       1.0  0.24500  0.47300  0.43100  1.0000
  Bi  Bi3       1.0  0.75500  0.52700  0.56900  1.0000
  Bi  Bi4       1.0  0.13100  0.16200  0.68700  1.0000
  Cl  Cl1       1.0  0.24600  0.20200  0.08580  1.0000
  Cl  Cl2       1.0  0.14900  0.64100  0.19100  1.0000
  Cl  Cl3       1.0  0.01250  0.01520  0.26100  1.0000
  Cl  Cl4       1.0  0.65200  0.68000  0.28500  1.0000
  Cl  Cl5       1.0  0.54700  0.38100  0.29600  1.0000
  Cl  Cl6       1.0  0.94900  0.35600  0.34400  1.0000
  Cl  Cl7       1.0  0.62700  0.02780  0.34500  1.0000
  Cl  Cl8       1.0  0.37300  0.97200  0.65500  1.0000
  Cl  Cl9       1.0  0.05070  0.64400  0.65600  1.0000
  Cl  Cl10      1.0  0.45300  0.61900  0.70400  1.0000
  Cl  Cl11      1.0  0.34800  0.32000  0.71500  1.0000
  Cl  Cl12      1.0  0.98700  0.98500  0.73900  1.0000
  Cl  Cl13      1.0  0.85100  0.35900  0.80900  1.0000
  Cl  Cl14      1.0  0.75400  0.79800  0.91400  1.0000
  Tl  Tl1       1.0  0.33200  0.86900  0.07990  1.0000
  Tl  Tl2       1.0  0.66800  0.13100  0.92000  1.0000
