data_image0
_chemical_formula_structural       B4Ce4S12
_chemical_formula_sum              "B4 Ce4 S12"
_cell_length_a       7.78451
_cell_length_b       6.03357
_cell_length_c       9.05235
_cell_angle_alpha    90
_cell_angle_beta     90
_cell_angle_gamma    90

_space_group_name_H-M_alt    "P 1"
_space_group_IT_number       1

loop_
  _space_group_symop_operation_xyz
  'x, y, z'

loop_
  _atom_site_type_symbol
  _atom_site_label
  _atom_site_symmetry_multiplicity
  _atom_site_fract_x
  _atom_site_fract_y
  _atom_site_fract_z
  _atom_site_occupancy
  B   B1        1.0  0.64800  0.59400  0.42700  1.0000
  B   B2        1.0  0.14800  0.90600  0.42700  1.0000
  B   B3        1.0  0.85200  0.09410  0.92700  1.0000
  B   B4        1.0  0.35200  0.40600  0.92700  1.0000
  Ce  Ce1       1.0  0.61500  0.07230  0.25600  1.0000
  Ce  Ce2       1.0  0.11500  0.42800  0.25600  1.0000
  Ce  Ce3       1.0  0.88500  0.57200  0.75600  1.0000
  Ce  Ce4       1.0  0.38500  0.92800  0.75600  1.0000
  S   S1        1.0  0.32900  0.16600  0.04820  1.0000
  S   S2        1.0  0.82900  0.33400  0.04820  1.0000
  S   S3        1.0  0.50500  0.58900  0.27000  1.0000
  S   S4        1.0  0.00538  0.91100  0.27000  1.0000
  S   S5        1.0  0.29800  0.13400  0.45800  1.0000
  S   S6        1.0  0.79800  0.36600  0.45800  1.0000
  S   S7        1.0  0.17100  0.66600  0.54800  1.0000
  S   S8        1.0  0.67100  0.83400  0.54800  1.0000
  S   S9        1.0  0.99500  0.08900  0.77000  1.0000
  S   S10       1.0  0.49500  0.41100  0.77000  1.0000
  S   S11       1.0  0.20200  0.63400  0.95800  1.0000
  S   S12       1.0  0.70200  0.86600  0.95800  1.0000
