data_image0
_chemical_formula_structural       Se12U4V4
_chemical_formula_sum              "Se12 U4 V4"
_cell_length_a       7.31979
_cell_length_b       6.37536
_cell_length_c       9.4467
_cell_angle_alpha    90
_cell_angle_beta     90
_cell_angle_gamma    90

_space_group_name_H-M_alt    "P 1"
_space_group_IT_number       1

loop_
  _space_group_symop_operation_xyz
  'x, y, z'

loop_
  _atom_site_type_symbol
  _atom_site_label
  _atom_site_symmetry_multiplicity
  _atom_site_fract_x
  _atom_site_fract_y
  _atom_site_fract_z
  _atom_site_occupancy
  Se  Se1       1.0  0.68000  0.15700  0.06040  1.0000
  Se  Se2       1.0  0.18000  0.34300  0.06040  1.0000
  Se  Se3       1.0  0.54100  0.65100  0.25000  1.0000
  Se  Se4       1.0  0.04050  0.84900  0.25000  1.0000
  Se  Se5       1.0  0.68000  0.15700  0.44000  1.0000
  Se  Se6       1.0  0.18000  0.34300  0.44000  1.0000
  Se  Se7       1.0  0.82000  0.65700  0.56000  1.0000
  Se  Se8       1.0  0.32000  0.84300  0.56000  1.0000
  Se  Se9       1.0  0.95900  0.15100  0.75000  1.0000
  Se  Se10      1.0  0.45900  0.34900  0.75000  1.0000
  Se  Se11      1.0  0.82000  0.65700  0.94000  1.0000
  Se  Se12      1.0  0.32000  0.84300  0.94000  1.0000
  U   U1        1.0  0.37800  0.06290  0.25000  1.0000
  U   U2        1.0  0.87800  0.43700  0.25000  1.0000
  U   U3        1.0  0.12200  0.56300  0.75000  1.0000
  U   U4        1.0  0.62200  0.93700  0.75000  1.0000
  V   V1        1.0  0.00000  0.00000  0.00000  1.0000
  V   V2        1.0  0.50000  0.50000  0.00000  1.0000
  V   V3        1.0  0.00000  0.00000  0.50000  1.0000
  V   V4        1.0  0.50000  0.50000  0.50000  1.0000
