data_image0
_chemical_formula_structural       Ir6Si10Tb4
_chemical_formula_sum              "Ir6 Si10 Tb4"
_cell_length_a       5.84628
_cell_length_b       8.15856
_cell_length_c       8.15856
_cell_angle_alpha    89.5896
_cell_angle_beta     110.995
_cell_angle_gamma    110.995

_space_group_name_H-M_alt    "P 1"
_space_group_IT_number       1

loop_
  _space_group_symop_operation_xyz
  'x, y, z'

loop_
  _atom_site_type_symbol
  _atom_site_label
  _atom_site_symmetry_multiplicity
  _atom_site_fract_x
  _atom_site_fract_y
  _atom_site_fract_z
  _atom_site_occupancy
  Ir  Ir1       1.0  0.25000  0.00000  0.00000  1.0000
  Ir  Ir2       1.0  0.75000  0.00000  0.00000  1.0000
  Ir  Ir3       1.0  0.38600  0.52600  0.24700  1.0000
  Ir  Ir4       1.0  0.11400  0.75300  0.47400  1.0000
  Ir  Ir5       1.0  0.88600  0.24700  0.52600  1.0000
  Ir  Ir6       1.0  0.61400  0.47400  0.75300  1.0000
  Si  Si1       1.0  0.15500  0.26200  0.04930  1.0000
  Si  Si2       1.0  0.25000  0.77400  0.22600  1.0000
  Si  Si3       1.0  0.75000  0.77400  0.22600  1.0000
  Si  Si4       1.0  0.65500  0.04930  0.26200  1.0000
  Si  Si5       1.0  0.25000  0.50000  0.50000  1.0000
  Si  Si6       1.0  0.75000  0.50000  0.50000  1.0000
  Si  Si7       1.0  0.34500  0.95100  0.73800  1.0000
  Si  Si8       1.0  0.25000  0.22600  0.77400  1.0000
  Si  Si9       1.0  0.75000  0.22600  0.77400  1.0000
  Si  Si10      1.0  0.84500  0.73800  0.95100  1.0000
  Tb  Tb1       1.0  0.77000  0.40100  0.14000  1.0000
  Tb  Tb2       1.0  0.27000  0.14000  0.40100  1.0000
  Tb  Tb3       1.0  0.73000  0.86000  0.59900  1.0000
  Tb  Tb4       1.0  0.23000  0.59900  0.86000  1.0000
