data_image0
_chemical_formula_structural       Fe2O12Sm6
_chemical_formula_sum              "Fe2 O12 Sm6"
_cell_length_a       5.54524
_cell_length_b       7.25359
_cell_length_c       7.25359
_cell_angle_alpha    102.848
_cell_angle_beta     90
_cell_angle_gamma    90

_space_group_name_H-M_alt    "P 1"
_space_group_IT_number       1

loop_
  _space_group_symop_operation_xyz
  'x, y, z'

loop_
  _atom_site_type_symbol
  _atom_site_label
  _atom_site_symmetry_multiplicity
  _atom_site_fract_x
  _atom_site_fract_y
  _atom_site_fract_z
  _atom_site_occupancy
  Fe  Fe1       1.0  0.57400  0.69200  0.30800  1.0000
  Fe  Fe2       1.0  0.07360  0.30800  0.69200  1.0000
  O   O1        1.0  0.74900  0.60500  0.08130  1.0000
  O   O2        1.0  0.77100  0.17400  0.14500  1.0000
  O   O3        1.0  0.27100  0.14500  0.17400  1.0000
  O   O4        1.0  0.23800  0.71600  0.28400  1.0000
  O   O5        1.0  0.74900  0.91900  0.39500  1.0000
  O   O6        1.0  0.71900  0.53900  0.46100  1.0000
  O   O7        1.0  0.21900  0.46100  0.53900  1.0000
  O   O8        1.0  0.24900  0.08130  0.60500  1.0000
  O   O9        1.0  0.73800  0.28400  0.71600  1.0000
  O   O10       1.0  0.77100  0.85500  0.82600  1.0000
  O   O11       1.0  0.27100  0.82600  0.85500  1.0000
  O   O12       1.0  0.24900  0.39500  0.91900  1.0000
  Sm  Sm1       1.0  0.99800  0.89600  0.10400  1.0000
  Sm  Sm2       1.0  0.04280  0.41300  0.20200  1.0000
  Sm  Sm3       1.0  0.54300  0.20200  0.41300  1.0000
  Sm  Sm4       1.0  0.04280  0.79800  0.58700  1.0000
  Sm  Sm5       1.0  0.54300  0.58700  0.79800  1.0000
  Sm  Sm6       1.0  0.49800  0.10400  0.89600  1.0000
