data_image0
_chemical_formula_structural       O6Se2Sr2
_chemical_formula_sum              "O6 Se2 Sr2"
_cell_length_a       6.52255
_cell_length_b       5.46522
_cell_length_c       4.43378
_cell_angle_alpha    90
_cell_angle_beta     107.133
_cell_angle_gamma    90

_space_group_name_H-M_alt    "P 1"
_space_group_IT_number       1

loop_
  _space_group_symop_operation_xyz
  'x, y, z'

loop_
  _atom_site_type_symbol
  _atom_site_label
  _atom_site_symmetry_multiplicity
  _atom_site_fract_x
  _atom_site_fract_y
  _atom_site_fract_z
  _atom_site_occupancy
  O   O1        1.0  0.33000  0.00712  0.17800  1.0000
  O   O2        1.0  0.33000  0.49300  0.17800  1.0000
  O   O3        1.0  0.89300  0.75000  0.33600  1.0000
  O   O4        1.0  0.10700  0.25000  0.66400  1.0000
  O   O5        1.0  0.67000  0.50700  0.82200  1.0000
  O   O6        1.0  0.67000  0.99300  0.82200  1.0000
  Se  Se1       1.0  0.15500  0.25000  0.06730  1.0000
  Se  Se2       1.0  0.84500  0.75000  0.93300  1.0000
  Sr  Sr1       1.0  0.69800  0.25000  0.34300  1.0000
  Sr  Sr2       1.0  0.30200  0.75000  0.65700  1.0000
