data_image0
_chemical_formula_structural       B8Ir4V8
_chemical_formula_sum              "B8 Ir4 V8"
_cell_length_a       9.25071
_cell_length_b       7.16518
_cell_length_c       3.08585
_cell_angle_alpha    90
_cell_angle_beta     90
_cell_angle_gamma    90

_space_group_name_H-M_alt    "P 1"
_space_group_IT_number       1

loop_
  _space_group_symop_operation_xyz
  'x, y, z'

loop_
  _atom_site_type_symbol
  _atom_site_label
  _atom_site_symmetry_multiplicity
  _atom_site_fract_x
  _atom_site_fract_y
  _atom_site_fract_z
  _atom_site_occupancy
  B   B1        1.0  0.76800  0.37500  0.00000  1.0000
  B   B2        1.0  0.96000  0.38600  0.00000  1.0000
  B   B3        1.0  0.03990  0.61400  0.00000  1.0000
  B   B4        1.0  0.23200  0.62500  0.00000  1.0000
  B   B5        1.0  0.46000  0.11400  0.50000  1.0000
  B   B6        1.0  0.26800  0.12500  0.50000  1.0000
  B   B7        1.0  0.73200  0.87500  0.50000  1.0000
  B   B8        1.0  0.54000  0.88600  0.50000  1.0000
  Ir  Ir1       1.0  0.10500  0.12700  0.00000  1.0000
  Ir  Ir2       1.0  0.89500  0.87300  0.00000  1.0000
  Ir  Ir3       1.0  0.60500  0.37300  0.50000  1.0000
  Ir  Ir4       1.0  0.39500  0.62700  0.50000  1.0000
  V   V1        1.0  0.64000  0.07400  0.00000  1.0000
  V   V2        1.0  0.36800  0.31500  0.00000  1.0000
  V   V3        1.0  0.63200  0.68500  0.00000  1.0000
  V   V4        1.0  0.36000  0.92600  0.00000  1.0000
  V   V5        1.0  0.86800  0.18500  0.50000  1.0000
  V   V6        1.0  0.14000  0.42600  0.50000  1.0000
  V   V7        1.0  0.86000  0.57400  0.50000  1.0000
  V   V8        1.0  0.13200  0.81500  0.50000  1.0000
