data_image0
_chemical_formula_structural       Al4Cu16
_chemical_formula_sum              "Al4 Cu16"
_cell_length_a       6.28189
_cell_length_b       6.28189
_cell_length_c       6.28189
_cell_angle_alpha    90
_cell_angle_beta     90
_cell_angle_gamma    90

_space_group_name_H-M_alt    "P 1"
_space_group_IT_number       1

loop_
  _space_group_symop_operation_xyz
  'x, y, z'

loop_
  _atom_site_type_symbol
  _atom_site_label
  _atom_site_symmetry_multiplicity
  _atom_site_fract_x
  _atom_site_fract_y
  _atom_site_fract_z
  _atom_site_occupancy
  Al  Al1       1.0  0.06030  0.06030  0.06030  1.0000
  Al  Al2       1.0  0.94000  0.56000  0.44000  1.0000
  Al  Al3       1.0  0.44000  0.94000  0.56000  1.0000
  Al  Al4       1.0  0.56000  0.44000  0.94000  1.0000
  Cu  Cu1       1.0  0.87500  0.70100  0.04730  1.0000
  Cu  Cu2       1.0  0.20100  0.45300  0.12500  1.0000
  Cu  Cu3       1.0  0.80900  0.30900  0.19100  1.0000
  Cu  Cu4       1.0  0.45300  0.12500  0.20100  1.0000
  Cu  Cu5       1.0  0.54700  0.62500  0.29900  1.0000
  Cu  Cu6       1.0  0.19100  0.80900  0.30900  1.0000
  Cu  Cu7       1.0  0.79900  0.95300  0.37500  1.0000
  Cu  Cu8       1.0  0.12500  0.20100  0.45300  1.0000
  Cu  Cu9       1.0  0.62500  0.29900  0.54700  1.0000
  Cu  Cu10      1.0  0.29900  0.54700  0.62500  1.0000
  Cu  Cu11      1.0  0.69100  0.69100  0.69100  1.0000
  Cu  Cu12      1.0  0.04730  0.87500  0.70100  1.0000
  Cu  Cu13      1.0  0.95300  0.37500  0.79900  1.0000
  Cu  Cu14      1.0  0.30900  0.19100  0.80900  1.0000
  Cu  Cu15      1.0  0.70100  0.04730  0.87500  1.0000
  Cu  Cu16      1.0  0.37500  0.79900  0.95300  1.0000
