data_image0
_chemical_formula_structural       Ag9Ge2IO8
_chemical_formula_sum              "Ag9 Ge2 I1 O8"
_cell_length_a       5.73406
_cell_length_b       6.80555
_cell_length_c       9.54276
_cell_angle_alpha    110.89
_cell_angle_beta     104.544
_cell_angle_gamma    90

_space_group_name_H-M_alt    "P 1"
_space_group_IT_number       1

loop_
  _space_group_symop_operation_xyz
  'x, y, z'

loop_
  _atom_site_type_symbol
  _atom_site_label
  _atom_site_symmetry_multiplicity
  _atom_site_fract_x
  _atom_site_fract_y
  _atom_site_fract_z
  _atom_site_occupancy
  Ag  Ag1       1.0  0.00000  0.50000  0.00000  1.0000
  Ag  Ag2       1.0  0.50000  0.26700  0.00000  1.0000
  Ag  Ag3       1.0  0.50000  0.73300  0.00000  1.0000
  Ag  Ag4       1.0  0.28700  0.39800  0.35200  1.0000
  Ag  Ag5       1.0  0.28700  0.95300  0.35200  1.0000
  Ag  Ag6       1.0  0.71400  0.19400  0.38900  1.0000
  Ag  Ag7       1.0  0.28600  0.80600  0.61100  1.0000
  Ag  Ag8       1.0  0.71300  0.04650  0.64800  1.0000
  Ag  Ag9       1.0  0.71300  0.60200  0.64800  1.0000
  Ge  Ge1       1.0  0.78100  0.65700  0.31500  1.0000
  Ge  Ge2       1.0  0.21900  0.34300  0.68500  1.0000
  I   I1        1.0  0.00000  0.00000  0.00000  1.0000
  O   O1        1.0  0.60200  0.41200  0.24800  1.0000
  O   O2        1.0  0.60200  0.83600  0.24800  1.0000
  O   O3        1.0  0.04660  0.62400  0.24900  1.0000
  O   O4        1.0  0.12200  0.23900  0.47900  1.0000
  O   O5        1.0  0.87800  0.76100  0.52100  1.0000
  O   O6        1.0  0.95300  0.37600  0.75100  1.0000
  O   O7        1.0  0.39800  0.16400  0.75200  1.0000
  O   O8        1.0  0.39800  0.58800  0.75200  1.0000
