data_image0
_chemical_formula_structural       Al12Mn8
_chemical_formula_sum              "Al12 Mn8"
_cell_length_a       6.37749
_cell_length_b       6.37749
_cell_length_c       6.37749
_cell_angle_alpha    90
_cell_angle_beta     90
_cell_angle_gamma    90

_space_group_name_H-M_alt    "P 1"
_space_group_IT_number       1

loop_
  _space_group_symop_operation_xyz
  'x, y, z'

loop_
  _atom_site_type_symbol
  _atom_site_label
  _atom_site_symmetry_multiplicity
  _atom_site_fract_x
  _atom_site_fract_y
  _atom_site_fract_z
  _atom_site_occupancy
  Al  Al1       1.0  0.87500  0.70400  0.04620  1.0000
  Al  Al2       1.0  0.20400  0.45400  0.12500  1.0000
  Al  Al3       1.0  0.45400  0.12500  0.20400  1.0000
  Al  Al4       1.0  0.54600  0.62500  0.29600  1.0000
  Al  Al5       1.0  0.79600  0.95400  0.37500  1.0000
  Al  Al6       1.0  0.12500  0.20400  0.45400  1.0000
  Al  Al7       1.0  0.62500  0.29600  0.54600  1.0000
  Al  Al8       1.0  0.29600  0.54600  0.62500  1.0000
  Al  Al9       1.0  0.04620  0.87500  0.70400  1.0000
  Al  Al10      1.0  0.95400  0.37500  0.79600  1.0000
  Al  Al11      1.0  0.70400  0.04620  0.87500  1.0000
  Al  Al12      1.0  0.37500  0.79600  0.95400  1.0000
  Mn  Mn1       1.0  0.07120  0.07120  0.07120  1.0000
  Mn  Mn2       1.0  0.82100  0.32100  0.17900  1.0000
  Mn  Mn3       1.0  0.17900  0.82100  0.32100  1.0000
  Mn  Mn4       1.0  0.92900  0.57100  0.42900  1.0000
  Mn  Mn5       1.0  0.42900  0.92900  0.57100  1.0000
  Mn  Mn6       1.0  0.67900  0.67900  0.67900  1.0000
  Mn  Mn7       1.0  0.32100  0.17900  0.82100  1.0000
  Mn  Mn8       1.0  0.57100  0.42900  0.92900  1.0000
