data_image0
_chemical_formula_structural       Br12Nb4O4
_chemical_formula_sum              "Br12 Nb4 O4"
_cell_length_a       11.7721
_cell_length_b       11.7721
_cell_length_c       3.9535
_cell_angle_alpha    90
_cell_angle_beta     90
_cell_angle_gamma    90

_space_group_name_H-M_alt    "P 1"
_space_group_IT_number       1

loop_
  _space_group_symop_operation_xyz
  'x, y, z'

loop_
  _atom_site_type_symbol
  _atom_site_label
  _atom_site_symmetry_multiplicity
  _atom_site_fract_x
  _atom_site_fract_y
  _atom_site_fract_z
  _atom_site_occupancy
  Br  Br1       1.0  0.89600  0.16700  0.25300  1.0000
  Br  Br2       1.0  0.66700  0.39600  0.25300  1.0000
  Br  Br3       1.0  0.33300  0.60400  0.25300  1.0000
  Br  Br4       1.0  0.10400  0.83300  0.25300  1.0000
  Br  Br5       1.0  0.10400  0.39600  0.26100  1.0000
  Br  Br6       1.0  0.89600  0.60400  0.26100  1.0000
  Br  Br7       1.0  0.60400  0.10400  0.73900  1.0000
  Br  Br8       1.0  0.39600  0.89600  0.73900  1.0000
  Br  Br9       1.0  0.16700  0.10400  0.74700  1.0000
  Br  Br10      1.0  0.39600  0.33300  0.74700  1.0000
  Br  Br11      1.0  0.60400  0.66700  0.74700  1.0000
  Br  Br12      1.0  0.83300  0.89600  0.74700  1.0000
  Nb  Nb1       1.0  0.87400  0.37400  0.20000  1.0000
  Nb  Nb2       1.0  0.12600  0.62600  0.20000  1.0000
  Nb  Nb3       1.0  0.37400  0.12600  0.80000  1.0000
  Nb  Nb4       1.0  0.62600  0.87400  0.80000  1.0000
  O   O1        1.0  0.38200  0.11800  0.25700  1.0000
  O   O2        1.0  0.61800  0.88200  0.25700  1.0000
  O   O3        1.0  0.88200  0.38200  0.74300  1.0000
  O   O4        1.0  0.11800  0.61800  0.74300  1.0000
