data_image0
_chemical_formula_structural       Cd2Hg4O12S2
_chemical_formula_sum              "Cd2 Hg4 O12 S2"
_cell_length_a       6.8415
_cell_length_b       7.22386
_cell_length_c       7.32395
_cell_angle_alpha    73.335
_cell_angle_beta     66.0936
_cell_angle_gamma    62.888

_space_group_name_H-M_alt    "P 1"
_space_group_IT_number       1

loop_
  _space_group_symop_operation_xyz
  'x, y, z'

loop_
  _atom_site_type_symbol
  _atom_site_label
  _atom_site_symmetry_multiplicity
  _atom_site_fract_x
  _atom_site_fract_y
  _atom_site_fract_z
  _atom_site_occupancy
  Cd  Cd1       1.0  0.33100  0.12900  0.22500  1.0000
  Cd  Cd2       1.0  0.66900  0.87100  0.77500  1.0000
  Hg  Hg1       1.0  0.84200  0.63800  0.22100  1.0000
  Hg  Hg2       1.0  0.33900  0.63400  0.22200  1.0000
  Hg  Hg3       1.0  0.66100  0.36600  0.77800  1.0000
  Hg  Hg4       1.0  0.15800  0.36200  0.77900  1.0000
  O   O1        1.0  0.55000  0.79900  0.13500  1.0000
  O   O2        1.0  0.65900  0.18100  0.16400  1.0000
  O   O3        1.0  0.03630  0.11100  0.16500  1.0000
  O   O4        1.0  0.14500  0.46500  0.28100  1.0000
  O   O5        1.0  0.68900  0.31100  0.41900  1.0000
  O   O6        1.0  0.80100  0.93400  0.43000  1.0000
  O   O7        1.0  0.19900  0.06630  0.57000  1.0000
  O   O8        1.0  0.31100  0.68900  0.58100  1.0000
  O   O9        1.0  0.85500  0.53500  0.71900  1.0000
  O   O10       1.0  0.96400  0.88900  0.83500  1.0000
  O   O11       1.0  0.34100  0.81900  0.83600  1.0000
  O   O12       1.0  0.45000  0.20100  0.86500  1.0000
  S   S1        1.0  0.79500  0.13600  0.29800  1.0000
  S   S2        1.0  0.20500  0.86400  0.70200  1.0000
