data_image0
_chemical_formula_structural       Gd4Ge10Ir6
_chemical_formula_sum              "Gd4 Ge10 Ir6"
_cell_length_a       6.04474
_cell_length_b       8.39712
_cell_length_c       8.39712
_cell_angle_alpha    89.5264
_cell_angle_beta     111.096
_cell_angle_gamma    111.096

_space_group_name_H-M_alt    "P 1"
_space_group_IT_number       1

loop_
  _space_group_symop_operation_xyz
  'x, y, z'

loop_
  _atom_site_type_symbol
  _atom_site_label
  _atom_site_symmetry_multiplicity
  _atom_site_fract_x
  _atom_site_fract_y
  _atom_site_fract_z
  _atom_site_occupancy
  Gd  Gd1       1.0  0.77300  0.40700  0.14000  1.0000
  Gd  Gd2       1.0  0.27300  0.14000  0.40700  1.0000
  Gd  Gd3       1.0  0.72700  0.86000  0.59300  1.0000
  Gd  Gd4       1.0  0.22700  0.59300  0.86000  1.0000
  Ge  Ge1       1.0  0.16200  0.26100  0.06250  1.0000
  Ge  Ge2       1.0  0.25000  0.77600  0.22400  1.0000
  Ge  Ge3       1.0  0.75000  0.77600  0.22400  1.0000
  Ge  Ge4       1.0  0.66200  0.06250  0.26100  1.0000
  Ge  Ge5       1.0  0.25000  0.50000  0.50000  1.0000
  Ge  Ge6       1.0  0.75000  0.50000  0.50000  1.0000
  Ge  Ge7       1.0  0.33800  0.93800  0.73900  1.0000
  Ge  Ge8       1.0  0.25000  0.22400  0.77600  1.0000
  Ge  Ge9       1.0  0.75000  0.22400  0.77600  1.0000
  Ge  Ge10      1.0  0.83800  0.73900  0.93800  1.0000
  Ir  Ir1       1.0  0.25000  0.00000  0.00000  1.0000
  Ir  Ir2       1.0  0.75000  0.00000  0.00000  1.0000
  Ir  Ir3       1.0  0.38900  0.53100  0.24700  1.0000
  Ir  Ir4       1.0  0.11100  0.75300  0.46900  1.0000
  Ir  Ir5       1.0  0.88900  0.24700  0.53100  1.0000
  Ir  Ir6       1.0  0.61100  0.46900  0.75300  1.0000
