data_image0
_chemical_formula_structural       C4O12Rb2Sm2
_chemical_formula_sum              "C4 O12 Rb2 Sm2"
_cell_length_a       6.46407
_cell_length_b       6.46407
_cell_length_c       7.04657
_cell_angle_alpha    104.364
_cell_angle_beta     104.364
_cell_angle_gamma    93.616

_space_group_name_H-M_alt    "P 1"
_space_group_IT_number       1

loop_
  _space_group_symop_operation_xyz
  'x, y, z'

loop_
  _atom_site_type_symbol
  _atom_site_label
  _atom_site_symmetry_multiplicity
  _atom_site_fract_x
  _atom_site_fract_y
  _atom_site_fract_z
  _atom_site_occupancy
  C   C1        1.0  0.39300  0.15000  0.24400  1.0000
  C   C2        1.0  0.85000  0.60700  0.25600  1.0000
  C   C3        1.0  0.15000  0.39300  0.74400  1.0000
  C   C4        1.0  0.60700  0.85000  0.75600  1.0000
  O   O1        1.0  0.70500  0.46400  0.11000  1.0000
  O   O2        1.0  0.25900  0.22100  0.11400  1.0000
  O   O3        1.0  0.39100  0.95000  0.23000  1.0000
  O   O4        1.0  0.05040  0.60900  0.27000  1.0000
  O   O5        1.0  0.77900  0.74100  0.38600  1.0000
  O   O6        1.0  0.53600  0.29500  0.39000  1.0000
  O   O7        1.0  0.46400  0.70500  0.61000  1.0000
  O   O8        1.0  0.22100  0.25900  0.61400  1.0000
  O   O9        1.0  0.95000  0.39100  0.73000  1.0000
  O   O10       1.0  0.60900  0.05040  0.77000  1.0000
  O   O11       1.0  0.74100  0.77900  0.88600  1.0000
  O   O12       1.0  0.29500  0.53600  0.89000  1.0000
  Rb  Rb1       1.0  0.89000  0.11000  0.25000  1.0000
  Rb  Rb2       1.0  0.11000  0.89000  0.75000  1.0000
  Sm  Sm1       1.0  0.40100  0.59900  0.25000  1.0000
  Sm  Sm2       1.0  0.59900  0.40100  0.75000  1.0000
