data_image0
_chemical_formula_structural       Ce4Ge10Ru6
_chemical_formula_sum              "Ce4 Ge10 Ru6"
_cell_length_a       5.93598
_cell_length_b       8.59527
_cell_length_c       8.59527
_cell_angle_alpha    94.2001
_cell_angle_beta     110.2
_cell_angle_gamma    110.2

_space_group_name_H-M_alt    "P 1"
_space_group_IT_number       1

loop_
  _space_group_symop_operation_xyz
  'x, y, z'

loop_
  _atom_site_type_symbol
  _atom_site_label
  _atom_site_symmetry_multiplicity
  _atom_site_fract_x
  _atom_site_fract_y
  _atom_site_fract_z
  _atom_site_occupancy
  Ce  Ce1       1.0  0.76800  0.40400  0.13200  1.0000
  Ce  Ce2       1.0  0.26800  0.13200  0.40400  1.0000
  Ce  Ce3       1.0  0.73200  0.86800  0.59600  1.0000
  Ce  Ce4       1.0  0.23200  0.59600  0.86800  1.0000
  Ge  Ge1       1.0  0.16900  0.26100  0.07720  1.0000
  Ge  Ge2       1.0  0.25000  0.78900  0.21100  1.0000
  Ge  Ge3       1.0  0.75000  0.78900  0.21100  1.0000
  Ge  Ge4       1.0  0.66900  0.07720  0.26100  1.0000
  Ge  Ge5       1.0  0.25000  0.50000  0.50000  1.0000
  Ge  Ge6       1.0  0.75000  0.50000  0.50000  1.0000
  Ge  Ge7       1.0  0.33100  0.92300  0.73900  1.0000
  Ge  Ge8       1.0  0.25000  0.21100  0.78900  1.0000
  Ge  Ge9       1.0  0.75000  0.21100  0.78900  1.0000
  Ge  Ge10      1.0  0.83100  0.73900  0.92300  1.0000
  Ru  Ru1       1.0  0.25000  0.00000  0.00000  1.0000
  Ru  Ru2       1.0  0.75000  0.00000  0.00000  1.0000
  Ru  Ru3       1.0  0.40600  0.55100  0.26100  1.0000
  Ru  Ru4       1.0  0.09400  0.73900  0.44900  1.0000
  Ru  Ru5       1.0  0.90600  0.26100  0.55100  1.0000
  Ru  Ru6       1.0  0.59400  0.44900  0.73900  1.0000
