data_image0
_chemical_formula_structural       Au4Ga4Ta12
_chemical_formula_sum              "Au4 Ga4 Ta12"
_cell_length_a       7.01551
_cell_length_b       7.01551
_cell_length_c       7.01551
_cell_angle_alpha    90
_cell_angle_beta     90
_cell_angle_gamma    90

_space_group_name_H-M_alt    "P 1"
_space_group_IT_number       1

loop_
  _space_group_symop_operation_xyz
  'x, y, z'

loop_
  _atom_site_type_symbol
  _atom_site_label
  _atom_site_symmetry_multiplicity
  _atom_site_fract_x
  _atom_site_fract_y
  _atom_site_fract_z
  _atom_site_occupancy
  Au  Au1       1.0  0.06540  0.06540  0.06540  1.0000
  Au  Au2       1.0  0.93500  0.56500  0.43500  1.0000
  Au  Au3       1.0  0.43500  0.93500  0.56500  1.0000
  Au  Au4       1.0  0.56500  0.43500  0.93500  1.0000
  Ga  Ga1       1.0  0.81400  0.31400  0.18600  1.0000
  Ga  Ga2       1.0  0.18600  0.81400  0.31400  1.0000
  Ga  Ga3       1.0  0.68600  0.68600  0.68600  1.0000
  Ga  Ga4       1.0  0.31400  0.18600  0.81400  1.0000
  Ta  Ta1       1.0  0.86900  0.70400  0.04190  1.0000
  Ta  Ta2       1.0  0.20400  0.45800  0.13100  1.0000
  Ta  Ta3       1.0  0.45800  0.13100  0.20400  1.0000
  Ta  Ta4       1.0  0.54200  0.63100  0.29600  1.0000
  Ta  Ta5       1.0  0.79600  0.95800  0.36900  1.0000
  Ta  Ta6       1.0  0.13100  0.20400  0.45800  1.0000
  Ta  Ta7       1.0  0.63100  0.29600  0.54200  1.0000
  Ta  Ta8       1.0  0.29600  0.54200  0.63100  1.0000
  Ta  Ta9       1.0  0.04190  0.86900  0.70400  1.0000
  Ta  Ta10      1.0  0.95800  0.36900  0.79600  1.0000
  Ta  Ta11      1.0  0.70400  0.04190  0.86900  1.0000
  Ta  Ta12      1.0  0.36900  0.79600  0.95800  1.0000
