data_image0
_chemical_formula_structural       B2C8K2N8
_chemical_formula_sum              "B2 C8 K2 N8"
_cell_length_a       6.89012
_cell_length_b       6.89012
_cell_length_c       8.53217
_cell_angle_alpha    113.814
_cell_angle_beta     113.814
_cell_angle_gamma    90

_space_group_name_H-M_alt    "P 1"
_space_group_IT_number       1

loop_
  _space_group_symop_operation_xyz
  'x, y, z'

loop_
  _atom_site_type_symbol
  _atom_site_label
  _atom_site_symmetry_multiplicity
  _atom_site_fract_x
  _atom_site_fract_y
  _atom_site_fract_z
  _atom_site_occupancy
  B   B1        1.0  0.12500  0.37500  0.25000  1.0000
  B   B2        1.0  0.87500  0.62500  0.75000  1.0000
  C   C1        1.0  0.21600  0.20300  0.12200  1.0000
  C   C2        1.0  0.90600  0.41800  0.12200  1.0000
  C   C3        1.0  0.08160  0.28400  0.37800  1.0000
  C   C4        1.0  0.29700  0.59400  0.37800  1.0000
  C   C5        1.0  0.70300  0.40600  0.62200  1.0000
  C   C6        1.0  0.91800  0.71600  0.62200  1.0000
  C   C7        1.0  0.09430  0.58200  0.87800  1.0000
  C   C8        1.0  0.78400  0.79700  0.87800  1.0000
  K   K1        1.0  0.62500  0.87500  0.25000  1.0000
  K   K2        1.0  0.37500  0.12500  0.75000  1.0000
  N   N1        1.0  0.28700  0.07720  0.03100  1.0000
  N   N2        1.0  0.74400  0.45400  0.03100  1.0000
  N   N3        1.0  0.04620  0.21300  0.46900  1.0000
  N   N4        1.0  0.42300  0.75600  0.46900  1.0000
  N   N5        1.0  0.57700  0.24400  0.53100  1.0000
  N   N6        1.0  0.95400  0.78700  0.53100  1.0000
  N   N7        1.0  0.25600  0.54600  0.96900  1.0000
  N   N8        1.0  0.71300  0.92300  0.96900  1.0000
