data_image0
_chemical_formula_structural       Eu4Pt6Sn10
_chemical_formula_sum              "Eu4 Pt6 Sn10"
_cell_length_a       4.55417
_cell_length_b       7.38964
_cell_length_c       13.5797
_cell_angle_alpha    90
_cell_angle_beta     80.3469
_cell_angle_gamma    90

_space_group_name_H-M_alt    "P 1"
_space_group_IT_number       1

loop_
  _space_group_symop_operation_xyz
  'x, y, z'

loop_
  _atom_site_type_symbol
  _atom_site_label
  _atom_site_symmetry_multiplicity
  _atom_site_fract_x
  _atom_site_fract_y
  _atom_site_fract_z
  _atom_site_occupancy
  Eu  Eu1       1.0  0.47800  0.23600  0.04480  1.0000
  Eu  Eu2       1.0  0.82600  0.75900  0.34700  1.0000
  Eu  Eu3       1.0  0.17400  0.25900  0.65300  1.0000
  Eu  Eu4       1.0  0.52200  0.73600  0.95500  1.0000
  Pt  Pt1       1.0  0.94900  0.52000  0.10200  1.0000
  Pt  Pt2       1.0  0.39300  0.97900  0.21300  1.0000
  Pt  Pt3       1.0  0.77800  0.26400  0.44500  1.0000
  Pt  Pt4       1.0  0.22200  0.76400  0.55500  1.0000
  Pt  Pt5       1.0  0.60700  0.47900  0.78700  1.0000
  Pt  Pt6       1.0  0.05120  0.02020  0.89800  1.0000
  Sn  Sn1       1.0  0.95200  0.90000  0.09600  1.0000
  Sn  Sn2       1.0  0.40200  0.60900  0.19500  1.0000
  Sn  Sn3       1.0  0.88100  0.22900  0.23900  1.0000
  Sn  Sn4       1.0  0.29400  0.05000  0.41100  1.0000
  Sn  Sn5       1.0  0.29200  0.47600  0.41600  1.0000
  Sn  Sn6       1.0  0.70800  0.97600  0.58400  1.0000
  Sn  Sn7       1.0  0.70600  0.55000  0.58900  1.0000
  Sn  Sn8       1.0  0.11900  0.72900  0.76100  1.0000
  Sn  Sn9       1.0  0.59800  0.10900  0.80500  1.0000
  Sn  Sn10      1.0  0.04800  0.40000  0.90400  1.0000
