data_image0
_chemical_formula_structural       Al6La10Ni4
_chemical_formula_sum              "Al6 La10 Ni4"
_cell_length_a       6.88269
_cell_length_b       7.90794
_cell_length_c       10.4439
_cell_angle_alpha    90
_cell_angle_beta     90
_cell_angle_gamma    115.796

_space_group_name_H-M_alt    "P 1"
_space_group_IT_number       1

loop_
  _space_group_symop_operation_xyz
  'x, y, z'

loop_
  _atom_site_type_symbol
  _atom_site_label
  _atom_site_symmetry_multiplicity
  _atom_site_fract_x
  _atom_site_fract_y
  _atom_site_fract_z
  _atom_site_occupancy
  Al  Al1       1.0  0.64700  0.29400  0.00000  1.0000
  Al  Al2       1.0  0.35300  0.70600  0.00000  1.0000
  Al  Al3       1.0  0.88100  0.00000  0.25000  1.0000
  Al  Al4       1.0  0.64700  0.29400  0.50000  1.0000
  Al  Al5       1.0  0.35300  0.70600  0.50000  1.0000
  Al  Al6       1.0  0.11900  0.00000  0.75000  1.0000
  La  La1       1.0  0.12500  0.25100  0.00000  1.0000
  La  La2       1.0  0.87500  0.74900  0.00000  1.0000
  La  La3       1.0  0.39000  0.00000  0.25000  1.0000
  La  La4       1.0  0.96100  0.43600  0.25000  1.0000
  La  La5       1.0  0.52500  0.56400  0.25000  1.0000
  La  La6       1.0  0.12500  0.25100  0.50000  1.0000
  La  La7       1.0  0.87500  0.74900  0.50000  1.0000
  La  La8       1.0  0.61000  0.00000  0.75000  1.0000
  La  La9       1.0  0.47500  0.43600  0.75000  1.0000
  La  La10      1.0  0.03920  0.56400  0.75000  1.0000
  Ni  Ni1       1.0  0.67100  0.00000  0.06060  1.0000
  Ni  Ni2       1.0  0.67100  0.00000  0.43900  1.0000
  Ni  Ni3       1.0  0.32900  0.00000  0.56100  1.0000
  Ni  Ni4       1.0  0.32900  0.00000  0.93900  1.0000
