data_image0
_chemical_formula_structural       Eu4Ir2Li2O12
_chemical_formula_sum              "Eu4 Ir2 Li2 O12"
_cell_length_a       5.37495
_cell_length_b       5.55417
_cell_length_c       7.62095
_cell_angle_alpha    90
_cell_angle_beta     90.2419
_cell_angle_gamma    90

_space_group_name_H-M_alt    "P 1"
_space_group_IT_number       1

loop_
  _space_group_symop_operation_xyz
  'x, y, z'

loop_
  _atom_site_type_symbol
  _atom_site_label
  _atom_site_symmetry_multiplicity
  _atom_site_fract_x
  _atom_site_fract_y
  _atom_site_fract_z
  _atom_site_occupancy
  Eu  Eu1       1.0  0.01040  0.55000  0.24900  1.0000
  Eu  Eu2       1.0  0.49000  0.04990  0.25100  1.0000
  Eu  Eu3       1.0  0.51000  0.95000  0.74900  1.0000
  Eu  Eu4       1.0  0.99000  0.45000  0.75100  1.0000
  Ir  Ir1       1.0  0.50000  0.50000  1.00000  1.0000
  Ir  Ir2       1.0  0.00000  0.00000  0.50000  1.0000
  Li  Li1       1.0  0.00000  0.00000  0.00000  1.0000
  Li  Li2       1.0  0.50000  0.50000  0.50000  1.0000
  O   O1        1.0  0.21300  0.30100  0.03410  1.0000
  O   O2        1.0  0.30200  0.78100  0.03420  1.0000
  O   O3        1.0  0.56600  0.48900  0.24600  1.0000
  O   O4        1.0  0.93400  0.98900  0.25400  1.0000
  O   O5        1.0  0.19800  0.28100  0.46600  1.0000
  O   O6        1.0  0.28700  0.80100  0.46600  1.0000
  O   O7        1.0  0.71300  0.19900  0.53400  1.0000
  O   O8        1.0  0.80200  0.71900  0.53400  1.0000
  O   O9        1.0  0.06580  0.01150  0.74600  1.0000
  O   O10       1.0  0.43400  0.51100  0.75400  1.0000
  O   O11       1.0  0.69800  0.21900  0.96600  1.0000
  O   O12       1.0  0.78700  0.69900  0.96600  1.0000
