data_image0
_chemical_formula_structural       Ge10Nd4Ru6
_chemical_formula_sum              "Ge10 Nd4 Ru6"
_cell_length_a       5.87784
_cell_length_b       8.54322
_cell_length_c       8.54322
_cell_angle_alpha    94.4642
_cell_angle_beta     110.121
_cell_angle_gamma    110.121

_space_group_name_H-M_alt    "P 1"
_space_group_IT_number       1

loop_
  _space_group_symop_operation_xyz
  'x, y, z'

loop_
  _atom_site_type_symbol
  _atom_site_label
  _atom_site_symmetry_multiplicity
  _atom_site_fract_x
  _atom_site_fract_y
  _atom_site_fract_z
  _atom_site_occupancy
  Ge  Ge1       1.0  0.17100  0.26200  0.08010  1.0000
  Ge  Ge2       1.0  0.25000  0.79000  0.21000  1.0000
  Ge  Ge3       1.0  0.75000  0.79000  0.21000  1.0000
  Ge  Ge4       1.0  0.67100  0.08010  0.26200  1.0000
  Ge  Ge5       1.0  0.25000  0.50000  0.50000  1.0000
  Ge  Ge6       1.0  0.75000  0.50000  0.50000  1.0000
  Ge  Ge7       1.0  0.32900  0.92000  0.73800  1.0000
  Ge  Ge8       1.0  0.25000  0.21000  0.79000  1.0000
  Ge  Ge9       1.0  0.75000  0.21000  0.79000  1.0000
  Ge  Ge10      1.0  0.82900  0.73800  0.92000  1.0000
  Nd  Nd1       1.0  0.76800  0.40500  0.13200  1.0000
  Nd  Nd2       1.0  0.26800  0.13200  0.40500  1.0000
  Nd  Nd3       1.0  0.73200  0.86800  0.59500  1.0000
  Nd  Nd4       1.0  0.23200  0.59500  0.86800  1.0000
  Ru  Ru1       1.0  0.25000  0.00000  0.00000  1.0000
  Ru  Ru2       1.0  0.75000  0.00000  0.00000  1.0000
  Ru  Ru3       1.0  0.40700  0.55300  0.26100  1.0000
  Ru  Ru4       1.0  0.09310  0.73900  0.44700  1.0000
  Ru  Ru5       1.0  0.90700  0.26100  0.55300  1.0000
  Ru  Ru6       1.0  0.59300  0.44700  0.73900  1.0000
