data_image0
_chemical_formula_structural       Cl3Nd5O10Te2
_chemical_formula_sum              "Cl3 Nd5 O10 Te2"
_cell_length_a       5.64132
_cell_length_b       6.94381
_cell_length_c       10.0387
_cell_angle_alpha    90.9331
_cell_angle_beta     90
_cell_angle_gamma    113.967

_space_group_name_H-M_alt    "P 1"
_space_group_IT_number       1

loop_
  _space_group_symop_operation_xyz
  'x, y, z'

loop_
  _atom_site_type_symbol
  _atom_site_label
  _atom_site_symmetry_multiplicity
  _atom_site_fract_x
  _atom_site_fract_y
  _atom_site_fract_z
  _atom_site_occupancy
  Cl  Cl1       1.0  0.16400  0.32800  0.35600  1.0000
  Cl  Cl2       1.0  0.50000  0.00000  0.50000  1.0000
  Cl  Cl3       1.0  0.83600  0.67200  0.64400  1.0000
  Nd  Nd1       1.0  0.00000  0.00000  0.00000  1.0000
  Nd  Nd2       1.0  0.29300  0.58500  0.10700  1.0000
  Nd  Nd3       1.0  0.60400  0.20800  0.23500  1.0000
  Nd  Nd4       1.0  0.39600  0.79200  0.76500  1.0000
  Nd  Nd5       1.0  0.70700  0.41500  0.89300  1.0000
  O   O1        1.0  0.40000  0.29300  0.05970  1.0000
  O   O2        1.0  0.89300  0.29300  0.05970  1.0000
  O   O3        1.0  0.19200  0.89800  0.20600  1.0000
  O   O4        1.0  0.70500  0.89800  0.20600  1.0000
  O   O5        1.0  0.77700  0.55300  0.29400  1.0000
  O   O6        1.0  0.22300  0.44700  0.70600  1.0000
  O   O7        1.0  0.29500  0.10200  0.79400  1.0000
  O   O8        1.0  0.80800  0.10200  0.79400  1.0000
  O   O9        1.0  0.10700  0.70700  0.94000  1.0000
  O   O10       1.0  0.60000  0.70700  0.94000  1.0000
  Te  Te1       1.0  0.91900  0.83900  0.33400  1.0000
  Te  Te2       1.0  0.08060  0.16100  0.66600  1.0000
