data_image0
_chemical_formula_structural       Ba4P4S12
_chemical_formula_sum              "Ba4 P4 S12"
_cell_length_a       10.0576
_cell_length_b       7.71661
_cell_length_c       6.815
_cell_angle_alpha    90
_cell_angle_beta     91.4757
_cell_angle_gamma    90

_space_group_name_H-M_alt    "P 1"
_space_group_IT_number       1

loop_
  _space_group_symop_operation_xyz
  'x, y, z'

loop_
  _atom_site_type_symbol
  _atom_site_label
  _atom_site_symmetry_multiplicity
  _atom_site_fract_x
  _atom_site_fract_y
  _atom_site_fract_z
  _atom_site_occupancy
  Ba  Ba1       1.0  0.74900  0.59600  0.03920  1.0000
  Ba  Ba2       1.0  0.75100  0.09640  0.46100  1.0000
  Ba  Ba3       1.0  0.24900  0.90400  0.53900  1.0000
  Ba  Ba4       1.0  0.25100  0.40400  0.96100  1.0000
  P   P1        1.0  0.43900  0.88700  0.04650  1.0000
  P   P2        1.0  0.06150  0.38700  0.45300  1.0000
  P   P3        1.0  0.93900  0.61300  0.54700  1.0000
  P   P4        1.0  0.56100  0.11300  0.95300  1.0000
  S   S1        1.0  0.24900  0.97600  0.06420  1.0000
  S   S2        1.0  0.54100  0.29200  0.17100  1.0000
  S   S3        1.0  0.97800  0.30100  0.19600  1.0000
  S   S4        1.0  0.52200  0.80100  0.30400  1.0000
  S   S5        1.0  0.95900  0.79200  0.32900  1.0000
  S   S6        1.0  0.25100  0.47600  0.43600  1.0000
  S   S7        1.0  0.74900  0.52400  0.56400  1.0000
  S   S8        1.0  0.04090  0.20800  0.67100  1.0000
  S   S9        1.0  0.47800  0.19900  0.69600  1.0000
  S   S10       1.0  0.02240  0.69900  0.80400  1.0000
  S   S11       1.0  0.45900  0.70800  0.82900  1.0000
  S   S12       1.0  0.75100  0.02440  0.93600  1.0000
