data_image0
_chemical_formula_structural       Er6Se12Sm2
_chemical_formula_sum              "Er6 Se12 Sm2"
_cell_length_a       11.4991
_cell_length_b       4.08946
_cell_length_c       11.7908
_cell_angle_alpha    90
_cell_angle_beta     109.141
_cell_angle_gamma    90

_space_group_name_H-M_alt    "P 1"
_space_group_IT_number       1

loop_
  _space_group_symop_operation_xyz
  'x, y, z'

loop_
  _atom_site_type_symbol
  _atom_site_label
  _atom_site_symmetry_multiplicity
  _atom_site_fract_x
  _atom_site_fract_y
  _atom_site_fract_z
  _atom_site_occupancy
  Er  Er1       1.0  0.18100  0.25000  0.00103  1.0000
  Er  Er2       1.0  0.93700  0.25000  0.33300  1.0000
  Er  Er3       1.0  0.34100  0.75000  0.41500  1.0000
  Er  Er4       1.0  0.65900  0.25000  0.58500  1.0000
  Er  Er5       1.0  0.06350  0.75000  0.66700  1.0000
  Er  Er6       1.0  0.81900  0.75000  0.99900  1.0000
  Se  Se1       1.0  0.38400  0.75000  0.03420  1.0000
  Se  Se2       1.0  0.98000  0.25000  0.11500  1.0000
  Se  Se3       1.0  0.75900  0.75000  0.22500  1.0000
  Se  Se4       1.0  0.30400  0.25000  0.25000  1.0000
  Se  Se5       1.0  0.58400  0.75000  0.40400  1.0000
  Se  Se6       1.0  0.10600  0.75000  0.44000  1.0000
  Se  Se7       1.0  0.89400  0.25000  0.56000  1.0000
  Se  Se8       1.0  0.41600  0.25000  0.59600  1.0000
  Se  Se9       1.0  0.69600  0.75000  0.75000  1.0000
  Se  Se10      1.0  0.24100  0.25000  0.77500  1.0000
  Se  Se11      1.0  0.01950  0.75000  0.88500  1.0000
  Se  Se12      1.0  0.61600  0.25000  0.96600  1.0000
  Sm  Sm1       1.0  0.54700  0.25000  0.19500  1.0000
  Sm  Sm2       1.0  0.45300  0.75000  0.80500  1.0000
