data_image0
_chemical_formula_structural       Au4Ga4Nb12
_chemical_formula_sum              "Au4 Ga4 Nb12"
_cell_length_a       7.02835
_cell_length_b       7.02835
_cell_length_c       7.02835
_cell_angle_alpha    90
_cell_angle_beta     90
_cell_angle_gamma    90

_space_group_name_H-M_alt    "P 1"
_space_group_IT_number       1

loop_
  _space_group_symop_operation_xyz
  'x, y, z'

loop_
  _atom_site_type_symbol
  _atom_site_label
  _atom_site_symmetry_multiplicity
  _atom_site_fract_x
  _atom_site_fract_y
  _atom_site_fract_z
  _atom_site_occupancy
  Au  Au1       1.0  0.06510  0.06510  0.06510  1.0000
  Au  Au2       1.0  0.93500  0.56500  0.43500  1.0000
  Au  Au3       1.0  0.43500  0.93500  0.56500  1.0000
  Au  Au4       1.0  0.56500  0.43500  0.93500  1.0000
  Ga  Ga1       1.0  0.81400  0.31400  0.18600  1.0000
  Ga  Ga2       1.0  0.18600  0.81400  0.31400  1.0000
  Ga  Ga3       1.0  0.68600  0.68600  0.68600  1.0000
  Ga  Ga4       1.0  0.31400  0.18600  0.81400  1.0000
  Nb  Nb1       1.0  0.86800  0.70400  0.04260  1.0000
  Nb  Nb2       1.0  0.20400  0.45700  0.13200  1.0000
  Nb  Nb3       1.0  0.45700  0.13200  0.20400  1.0000
  Nb  Nb4       1.0  0.54300  0.63200  0.29600  1.0000
  Nb  Nb5       1.0  0.79600  0.95700  0.36800  1.0000
  Nb  Nb6       1.0  0.13200  0.20400  0.45700  1.0000
  Nb  Nb7       1.0  0.63200  0.29600  0.54300  1.0000
  Nb  Nb8       1.0  0.29600  0.54300  0.63200  1.0000
  Nb  Nb9       1.0  0.04260  0.86800  0.70400  1.0000
  Nb  Nb10      1.0  0.95700  0.36800  0.79600  1.0000
  Nb  Nb11      1.0  0.70400  0.04260  0.86800  1.0000
  Nb  Nb12      1.0  0.36800  0.79600  0.95700  1.0000
