data_image0
_chemical_formula_structural       Eu6Ga2O12
_chemical_formula_sum              "Eu6 Ga2 O12"
_cell_length_a       5.44799
_cell_length_b       7.34347
_cell_length_c       7.34347
_cell_angle_alpha    102.568
_cell_angle_beta     90
_cell_angle_gamma    90

_space_group_name_H-M_alt    "P 1"
_space_group_IT_number       1

loop_
  _space_group_symop_operation_xyz
  'x, y, z'

loop_
  _atom_site_type_symbol
  _atom_site_label
  _atom_site_symmetry_multiplicity
  _atom_site_fract_x
  _atom_site_fract_y
  _atom_site_fract_z
  _atom_site_occupancy
  Eu  Eu1       1.0  0.96800  0.29100  0.07730  1.0000
  Eu  Eu2       1.0  0.46800  0.07730  0.29100  1.0000
  Eu  Eu3       1.0  0.42600  0.61300  0.38700  1.0000
  Eu  Eu4       1.0  0.92600  0.38700  0.61300  1.0000
  Eu  Eu5       1.0  0.96800  0.92300  0.70900  1.0000
  Eu  Eu6       1.0  0.46800  0.70900  0.92300  1.0000
  Ga  Ga1       1.0  0.00362  0.80800  0.19200  1.0000
  Ga  Ga2       1.0  0.50400  0.19200  0.80800  1.0000
  O   O1        1.0  0.12900  0.96000  0.04030  1.0000
  O   O2        1.0  0.17000  0.58300  0.10700  1.0000
  O   O3        1.0  0.67400  0.78500  0.21500  1.0000
  O   O4        1.0  0.69600  0.35500  0.32900  1.0000
  O   O5        1.0  0.19600  0.32900  0.35500  1.0000
  O   O6        1.0  0.17000  0.89300  0.41700  1.0000
  O   O7        1.0  0.67000  0.10700  0.58300  1.0000
  O   O8        1.0  0.69600  0.67100  0.64500  1.0000
  O   O9        1.0  0.19600  0.64500  0.67100  1.0000
  O   O10       1.0  0.17400  0.21500  0.78500  1.0000
  O   O11       1.0  0.67000  0.41700  0.89300  1.0000
  O   O12       1.0  0.62900  0.04030  0.96000  1.0000
