data_image0
_chemical_formula_structural       B6Rh14
_chemical_formula_sum              "B6 Rh14"
_cell_length_a       7.5125
_cell_length_b       7.51242
_cell_length_c       4.85392
_cell_angle_alpha    90
_cell_angle_beta     90
_cell_angle_gamma    120

_space_group_name_H-M_alt    "P 1"
_space_group_IT_number       1

loop_
  _space_group_symop_operation_xyz
  'x, y, z'

loop_
  _atom_site_type_symbol
  _atom_site_label
  _atom_site_symmetry_multiplicity
  _atom_site_fract_x
  _atom_site_fract_y
  _atom_site_fract_z
  _atom_site_occupancy
  B   B1        1.0  0.81100  0.62200  0.33400  1.0000
  B   B2        1.0  0.37800  0.18900  0.33400  1.0000
  B   B3        1.0  0.81100  0.18900  0.33400  1.0000
  B   B4        1.0  0.18900  0.37800  0.83400  1.0000
  B   B5        1.0  0.18900  0.81100  0.83400  1.0000
  B   B6        1.0  0.62200  0.81100  0.83400  1.0000
  Rh  Rh1       1.0  0.33300  0.66700  0.07700  1.0000
  Rh  Rh2       1.0  0.54400  0.45600  0.08290  1.0000
  Rh  Rh3       1.0  0.91200  0.45600  0.08290  1.0000
  Rh  Rh4       1.0  0.54400  0.08770  0.08300  1.0000
  Rh  Rh5       1.0  0.12300  0.24600  0.22800  1.0000
  Rh  Rh6       1.0  0.12300  0.87700  0.22800  1.0000
  Rh  Rh7       1.0  0.75400  0.87700  0.22800  1.0000
  Rh  Rh8       1.0  0.66700  0.33300  0.57700  1.0000
  Rh  Rh9       1.0  0.08770  0.54400  0.58300  1.0000
  Rh  Rh10      1.0  0.45600  0.54400  0.58300  1.0000
  Rh  Rh11      1.0  0.45600  0.91200  0.58300  1.0000
  Rh  Rh12      1.0  0.87700  0.75400  0.72800  1.0000
  Rh  Rh13      1.0  0.24600  0.12300  0.72800  1.0000
  Rh  Rh14      1.0  0.87700  0.12300  0.72800  1.0000
