data_image0
_chemical_formula_structural       Eu5S12Zr3
_chemical_formula_sum              "Eu5 S12 Zr3"
_cell_length_a       11.7474
_cell_length_b       11.7474
_cell_length_c       3.88791
_cell_angle_alpha    90
_cell_angle_beta     90
_cell_angle_gamma    119.999

_space_group_name_H-M_alt    "P 1"
_space_group_IT_number       1

loop_
  _space_group_symop_operation_xyz
  'x, y, z'

loop_
  _atom_site_type_symbol
  _atom_site_label
  _atom_site_symmetry_multiplicity
  _atom_site_fract_x
  _atom_site_fract_y
  _atom_site_fract_z
  _atom_site_occupancy
  Eu  Eu1       1.0  0.71600  0.00001  0.00000  1.0000
  Eu  Eu2       1.0  0.28400  0.28400  0.00000  1.0000
  Eu  Eu3       1.0  0.66700  0.33300  0.00000  1.0000
  Eu  Eu4       1.0  0.33300  0.66700  0.00000  1.0000
  Eu  Eu5       1.0  0.00001  0.71600  0.00000  1.0000
  S   S1        1.0  0.46700  0.00000  0.00000  1.0000
  S   S2        1.0  0.17500  0.00001  0.00000  1.0000
  S   S3        1.0  0.00000  0.17500  0.00000  1.0000
  S   S4        1.0  1.00000  0.46700  0.00000  1.0000
  S   S5        1.0  0.53300  0.53300  0.00000  1.0000
  S   S6        1.0  0.82500  0.82500  0.00000  1.0000
  S   S7        1.0  0.75000  0.19900  0.50000  1.0000
  S   S8        1.0  0.44900  0.25000  0.50000  1.0000
  S   S9        1.0  0.25000  0.44900  0.50000  1.0000
  S   S10       1.0  0.80100  0.55100  0.50000  1.0000
  S   S11       1.0  0.19900  0.75000  0.50000  1.0000
  S   S12       1.0  0.55100  0.80100  0.50000  1.0000
  Zr  Zr1       1.0  0.32200  0.00000  0.50000  1.0000
  Zr  Zr2       1.0  0.00000  0.32200  0.50000  1.0000
  Zr  Zr3       1.0  0.67800  0.67800  0.50000  1.0000
