data_image0
_chemical_formula_structural       Fe2La6O12
_chemical_formula_sum              "Fe2 La6 O12"
_cell_length_a       5.68592
_cell_length_b       7.51163
_cell_length_c       7.51163
_cell_angle_alpha    102.998
_cell_angle_beta     90
_cell_angle_gamma    90

_space_group_name_H-M_alt    "P 1"
_space_group_IT_number       1

loop_
  _space_group_symop_operation_xyz
  'x, y, z'

loop_
  _atom_site_type_symbol
  _atom_site_label
  _atom_site_symmetry_multiplicity
  _atom_site_fract_x
  _atom_site_fract_y
  _atom_site_fract_z
  _atom_site_occupancy
  Fe  Fe1       1.0  0.00085  0.69200  0.30800  1.0000
  Fe  Fe2       1.0  0.50100  0.30800  0.69200  1.0000
  La  La1       1.0  0.57200  0.89500  0.10500  1.0000
  La  La2       1.0  0.53600  0.41400  0.19900  1.0000
  La  La3       1.0  0.03560  0.19900  0.41400  1.0000
  La  La4       1.0  0.53600  0.80100  0.58600  1.0000
  La  La5       1.0  0.03560  0.58600  0.80100  1.0000
  La  La6       1.0  0.07240  0.10500  0.89500  1.0000
  O   O1        1.0  0.83200  0.60700  0.08630  1.0000
  O   O2        1.0  0.80100  0.17100  0.14800  1.0000
  O   O3        1.0  0.30100  0.14800  0.17100  1.0000
  O   O4        1.0  0.33000  0.71500  0.28500  1.0000
  O   O5        1.0  0.83200  0.91400  0.39300  1.0000
  O   O6        1.0  0.86900  0.54400  0.45600  1.0000
  O   O7        1.0  0.36900  0.45600  0.54400  1.0000
  O   O8        1.0  0.33200  0.08630  0.60700  1.0000
  O   O9        1.0  0.83000  0.28500  0.71500  1.0000
  O   O10       1.0  0.80100  0.85200  0.82900  1.0000
  O   O11       1.0  0.30100  0.82900  0.85200  1.0000
  O   O12       1.0  0.33200  0.39300  0.91400  1.0000
