data_image0
_chemical_formula_structural       AuLiO14S4
_chemical_formula_sum              "Au1 Li1 O14 S4"
_cell_length_a       5.23882
_cell_length_b       6.37263
_cell_length_c       8.29293
_cell_angle_alpha    108.486
_cell_angle_beta     89.3441
_cell_angle_gamma    102.664

_space_group_name_H-M_alt    "P 1"
_space_group_IT_number       1

loop_
  _space_group_symop_operation_xyz
  'x, y, z'

loop_
  _atom_site_type_symbol
  _atom_site_label
  _atom_site_symmetry_multiplicity
  _atom_site_fract_x
  _atom_site_fract_y
  _atom_site_fract_z
  _atom_site_occupancy
  Au  Au1       1.0  0.50000  0.50000  0.50000  1.0000
  Li  Li1       1.0  0.50000  1.00000  1.00000  1.0000
  O   O1        1.0  0.39600  0.72300  0.07570  1.0000
  O   O2        1.0  0.20500  0.12400  0.12900  1.0000
  O   O3        1.0  0.06290  0.48500  0.19200  1.0000
  O   O4        1.0  0.76100  0.16000  0.22300  1.0000
  O   O5        1.0  0.54400  0.59200  0.28700  1.0000
  O   O6        1.0  0.26500  0.87400  0.37300  1.0000
  O   O7        1.0  0.12700  0.32700  0.42500  1.0000
  O   O8        1.0  0.87300  0.67300  0.57500  1.0000
  O   O9        1.0  0.73500  0.12600  0.62700  1.0000
  O   O10       1.0  0.45600  0.40800  0.71300  1.0000
  O   O11       1.0  0.23900  0.84000  0.77700  1.0000
  O   O12       1.0  0.93700  0.51500  0.80800  1.0000
  O   O13       1.0  0.79500  0.87600  0.87100  1.0000
  O   O14       1.0  0.60400  0.27700  0.92400  1.0000
  S   S1        1.0  0.03890  0.25200  0.23600  1.0000
  S   S2        1.0  0.33300  0.69700  0.23800  1.0000
  S   S3        1.0  0.66700  0.30300  0.76200  1.0000
  S   S4        1.0  0.96100  0.74800  0.76400  1.0000
