data_image0
_chemical_formula_structural       Au8Pb4Yb8
_chemical_formula_sum              "Au8 Pb4 Yb8"
_cell_length_a       8.08633
_cell_length_b       8.08633
_cell_length_c       7.43204
_cell_angle_alpha    90
_cell_angle_beta     90
_cell_angle_gamma    90

_space_group_name_H-M_alt    "P 1"
_space_group_IT_number       1

loop_
  _space_group_symop_operation_xyz
  'x, y, z'

loop_
  _atom_site_type_symbol
  _atom_site_label
  _atom_site_symmetry_multiplicity
  _atom_site_fract_x
  _atom_site_fract_y
  _atom_site_fract_z
  _atom_site_occupancy
  Au  Au1       1.0  0.37500  0.37500  0.23800  1.0000
  Au  Au2       1.0  0.62500  0.62500  0.23800  1.0000
  Au  Au3       1.0  0.87500  0.12500  0.26200  1.0000
  Au  Au4       1.0  0.12500  0.87500  0.26200  1.0000
  Au  Au5       1.0  0.87500  0.12500  0.73800  1.0000
  Au  Au6       1.0  0.12500  0.87500  0.73800  1.0000
  Au  Au7       1.0  0.37500  0.37500  0.76200  1.0000
  Au  Au8       1.0  0.62500  0.62500  0.76200  1.0000
  Pb  Pb1       1.0  0.50000  0.00000  0.25000  1.0000
  Pb  Pb2       1.0  0.00000  0.50000  0.25000  1.0000
  Pb  Pb3       1.0  0.50000  0.00000  0.75000  1.0000
  Pb  Pb4       1.0  0.00000  0.50000  0.75000  1.0000
  Yb  Yb1       1.0  0.16500  0.16500  0.00000  1.0000
  Yb  Yb2       1.0  0.67800  0.32200  0.00000  1.0000
  Yb  Yb3       1.0  0.32200  0.67800  0.00000  1.0000
  Yb  Yb4       1.0  0.83500  0.83500  0.00000  1.0000
  Yb  Yb5       1.0  0.17800  0.17800  0.50000  1.0000
  Yb  Yb6       1.0  0.66500  0.33500  0.50000  1.0000
  Yb  Yb7       1.0  0.33500  0.66500  0.50000  1.0000
  Yb  Yb8       1.0  0.82200  0.82200  0.50000  1.0000
