data_image0
_chemical_formula_structural       Cl4O12Re4
_chemical_formula_sum              "Cl4 O12 Re4"
_cell_length_a       5.53686
_cell_length_b       8.83067
_cell_length_c       7.49019
_cell_angle_alpha    90
_cell_angle_beta     94.8175
_cell_angle_gamma    90

_space_group_name_H-M_alt    "P 1"
_space_group_IT_number       1

loop_
  _space_group_symop_operation_xyz
  'x, y, z'

loop_
  _atom_site_type_symbol
  _atom_site_label
  _atom_site_symmetry_multiplicity
  _atom_site_fract_x
  _atom_site_fract_y
  _atom_site_fract_z
  _atom_site_occupancy
  Cl  Cl1       1.0  0.87500  0.43300  0.23100  1.0000
  Cl  Cl2       1.0  0.62500  0.93300  0.26900  1.0000
  Cl  Cl3       1.0  0.37500  0.06660  0.73100  1.0000
  Cl  Cl4       1.0  0.12500  0.56700  0.76900  1.0000
  O   O1        1.0  0.12400  0.83700  0.04340  1.0000
  O   O2        1.0  0.36400  0.27200  0.09250  1.0000
  O   O3        1.0  0.39600  0.59400  0.18500  1.0000
  O   O4        1.0  0.10400  0.09440  0.31500  1.0000
  O   O5        1.0  0.13600  0.77200  0.40700  1.0000
  O   O6        1.0  0.37600  0.33700  0.45700  1.0000
  O   O7        1.0  0.62400  0.66300  0.54300  1.0000
  O   O8        1.0  0.86400  0.22800  0.59300  1.0000
  O   O9        1.0  0.89600  0.90600  0.68500  1.0000
  O   O10       1.0  0.60400  0.40600  0.81500  1.0000
  O   O11       1.0  0.63600  0.72800  0.90700  1.0000
  O   O12       1.0  0.87600  0.16300  0.95700  1.0000
  Re  Re1       1.0  0.31000  0.77800  0.22700  1.0000
  Re  Re2       1.0  0.19000  0.27800  0.27300  1.0000
  Re  Re3       1.0  0.81000  0.72200  0.72700  1.0000
  Re  Re4       1.0  0.69000  0.22200  0.77300  1.0000
