data_image0
_chemical_formula_structural       Al8Tm12
_chemical_formula_sum              "Al8 Tm12"
_cell_length_a       8.11566
_cell_length_b       8.11566
_cell_length_c       7.50001
_cell_angle_alpha    90
_cell_angle_beta     90
_cell_angle_gamma    90

_space_group_name_H-M_alt    "P 1"
_space_group_IT_number       1

loop_
  _space_group_symop_operation_xyz
  'x, y, z'

loop_
  _atom_site_type_symbol
  _atom_site_label
  _atom_site_symmetry_multiplicity
  _atom_site_fract_x
  _atom_site_fract_y
  _atom_site_fract_z
  _atom_site_occupancy
  Al  Al1       1.0  0.11900  0.11900  0.19600  1.0000
  Al  Al2       1.0  0.88100  0.88100  0.19600  1.0000
  Al  Al3       1.0  0.61900  0.38100  0.30400  1.0000
  Al  Al4       1.0  0.38100  0.61900  0.30400  1.0000
  Al  Al5       1.0  0.61900  0.38100  0.69600  1.0000
  Al  Al6       1.0  0.38100  0.61900  0.69600  1.0000
  Al  Al7       1.0  0.11900  0.11900  0.80400  1.0000
  Al  Al8       1.0  0.88100  0.88100  0.80400  1.0000
  Tm  Tm1       1.0  0.79700  0.20300  0.00000  1.0000
  Tm  Tm2       1.0  0.35000  0.35000  0.00000  1.0000
  Tm  Tm3       1.0  0.65000  0.65000  0.00000  1.0000
  Tm  Tm4       1.0  0.20300  0.79700  0.00000  1.0000
  Tm  Tm5       1.0  0.50000  0.00000  0.25000  1.0000
  Tm  Tm6       1.0  0.00000  0.50000  0.25000  1.0000
  Tm  Tm7       1.0  0.85000  0.15000  0.50000  1.0000
  Tm  Tm8       1.0  0.29700  0.29700  0.50000  1.0000
  Tm  Tm9       1.0  0.70300  0.70300  0.50000  1.0000
  Tm  Tm10      1.0  0.15000  0.85000  0.50000  1.0000
  Tm  Tm11      1.0  0.50000  0.00000  0.75000  1.0000
  Tm  Tm12      1.0  0.00000  0.50000  0.75000  1.0000
