data_image0
_chemical_formula_structural       Ca12O4Si4
_chemical_formula_sum              "Ca12 O4 Si4"
_cell_length_a       6.65661
_cell_length_b       6.6385
_cell_length_c       9.39107
_cell_angle_alpha    90
_cell_angle_beta     90
_cell_angle_gamma    90

_space_group_name_H-M_alt    "P 1"
_space_group_IT_number       1

loop_
  _space_group_symop_operation_xyz
  'x, y, z'

loop_
  _atom_site_type_symbol
  _atom_site_label
  _atom_site_symmetry_multiplicity
  _atom_site_fract_x
  _atom_site_fract_y
  _atom_site_fract_z
  _atom_site_occupancy
  Ca  Ca1       1.0  0.75600  0.24400  0.01690  1.0000
  Ca  Ca2       1.0  0.74400  0.74400  0.01690  1.0000
  Ca  Ca3       1.0  0.46700  0.00032  0.25000  1.0000
  Ca  Ca4       1.0  0.03330  0.50000  0.25000  1.0000
  Ca  Ca5       1.0  0.75600  0.24400  0.48300  1.0000
  Ca  Ca6       1.0  0.74400  0.74400  0.48300  1.0000
  Ca  Ca7       1.0  0.25600  0.25600  0.51700  1.0000
  Ca  Ca8       1.0  0.24400  0.75600  0.51700  1.0000
  Ca  Ca9       1.0  0.96700  0.50000  0.75000  1.0000
  Ca  Ca10      1.0  0.53300  0.00000  0.75000  1.0000
  Ca  Ca11      1.0  0.25600  0.25600  0.98300  1.0000
  Ca  Ca12      1.0  0.24400  0.75600  0.98300  1.0000
  O   O1        1.0  0.50000  0.00000  0.00000  1.0000
  O   O2        1.0  0.00000  0.50000  0.00000  1.0000
  O   O3        1.0  0.50000  0.00000  0.50000  1.0000
  O   O4        1.0  0.00000  0.50000  0.50000  1.0000
  Si  Si1       1.0  0.50000  0.49700  0.25000  1.0000
  Si  Si2       1.0  0.00000  0.99700  0.25000  1.0000
  Si  Si3       1.0  0.00037  0.00269  0.75000  1.0000
  Si  Si4       1.0  0.50000  0.50300  0.75000  1.0000
