data_image0
_chemical_formula_structural       Ge10Ir6Tb4
_chemical_formula_sum              "Ge10 Ir6 Tb4"
_cell_length_a       6.0292
_cell_length_b       8.38949
_cell_length_c       8.38949
_cell_angle_alpha    89.4306
_cell_angle_beta     111.059
_cell_angle_gamma    111.059

_space_group_name_H-M_alt    "P 1"
_space_group_IT_number       1

loop_
  _space_group_symop_operation_xyz
  'x, y, z'

loop_
  _atom_site_type_symbol
  _atom_site_label
  _atom_site_symmetry_multiplicity
  _atom_site_fract_x
  _atom_site_fract_y
  _atom_site_fract_z
  _atom_site_occupancy
  Ge  Ge1       1.0  0.16200  0.26000  0.06290  1.0000
  Ge  Ge2       1.0  0.25000  0.77600  0.22400  1.0000
  Ge  Ge3       1.0  0.75000  0.77600  0.22400  1.0000
  Ge  Ge4       1.0  0.66200  0.06290  0.26000  1.0000
  Ge  Ge5       1.0  0.25000  0.50000  0.50000  1.0000
  Ge  Ge6       1.0  0.75000  0.50000  0.50000  1.0000
  Ge  Ge7       1.0  0.33800  0.93700  0.74000  1.0000
  Ge  Ge8       1.0  0.25000  0.22400  0.77600  1.0000
  Ge  Ge9       1.0  0.75000  0.22400  0.77600  1.0000
  Ge  Ge10      1.0  0.83800  0.74000  0.93700  1.0000
  Ir  Ir1       1.0  0.25000  0.00000  0.00000  1.0000
  Ir  Ir2       1.0  0.75000  0.00000  0.00000  1.0000
  Ir  Ir3       1.0  0.38800  0.53000  0.24700  1.0000
  Ir  Ir4       1.0  0.11200  0.75300  0.47000  1.0000
  Ir  Ir5       1.0  0.88800  0.24700  0.53000  1.0000
  Ir  Ir6       1.0  0.61200  0.47000  0.75300  1.0000
  Tb  Tb1       1.0  0.77400  0.40800  0.14000  1.0000
  Tb  Tb2       1.0  0.27400  0.14000  0.40800  1.0000
  Tb  Tb3       1.0  0.72600  0.86000  0.59200  1.0000
  Tb  Tb4       1.0  0.22600  0.59200  0.86000  1.0000
