data_image0
_chemical_formula_structural       C2N4O8Pr4Si2
_chemical_formula_sum              "C2 N4 O8 Pr4 Si2"
_cell_length_a       6.45921
_cell_length_b       6.70055
_cell_length_c       6.7403
_cell_angle_alpha    85.437
_cell_angle_beta     72.5889
_cell_angle_gamma    73.8546

_space_group_name_H-M_alt    "P 1"
_space_group_IT_number       1

loop_
  _space_group_symop_operation_xyz
  'x, y, z'

loop_
  _atom_site_type_symbol
  _atom_site_label
  _atom_site_symmetry_multiplicity
  _atom_site_fract_x
  _atom_site_fract_y
  _atom_site_fract_z
  _atom_site_occupancy
  C   C1        1.0  0.56400  0.18000  0.30400  1.0000
  C   C2        1.0  0.43600  0.82000  0.69600  1.0000
  N   N1        1.0  0.47800  0.06890  0.23500  1.0000
  N   N2        1.0  0.64100  0.29900  0.37500  1.0000
  N   N3        1.0  0.35900  0.70100  0.62500  1.0000
  N   N4        1.0  0.52200  0.93100  0.76500  1.0000
  O   O1        1.0  0.90700  0.77900  0.01550  1.0000
  O   O2        1.0  0.27700  0.51700  0.11300  1.0000
  O   O3        1.0  0.11400  0.86900  0.30300  1.0000
  O   O4        1.0  0.86000  0.61200  0.37300  1.0000
  O   O5        1.0  0.14000  0.38800  0.62700  1.0000
  O   O6        1.0  0.88600  0.13100  0.69700  1.0000
  O   O7        1.0  0.72300  0.48300  0.88700  1.0000
  O   O8        1.0  0.09280  0.22100  0.98500  1.0000
  Pr  Pr1       1.0  0.54300  0.68200  0.21400  1.0000
  Pr  Pr2       1.0  0.06380  0.23800  0.33300  1.0000
  Pr  Pr3       1.0  0.93600  0.76200  0.66700  1.0000
  Pr  Pr4       1.0  0.45700  0.31800  0.78600  1.0000
  Si  Si1       1.0  0.04190  0.70500  0.18500  1.0000
  Si  Si2       1.0  0.95800  0.29500  0.81500  1.0000
