data_image0
_chemical_formula_structural       Ge4Pb4S12
_chemical_formula_sum              "Ge4 Pb4 S12"
_cell_length_a       7.41987
_cell_length_b       10.5546
_cell_length_c       6.93766
_cell_angle_alpha    90
_cell_angle_beta     105.267
_cell_angle_gamma    90

_space_group_name_H-M_alt    "P 1"
_space_group_IT_number       1

loop_
  _space_group_symop_operation_xyz
  'x, y, z'

loop_
  _atom_site_type_symbol
  _atom_site_label
  _atom_site_symmetry_multiplicity
  _atom_site_fract_x
  _atom_site_fract_y
  _atom_site_fract_z
  _atom_site_occupancy
  Ge  Ge1       1.0  0.68400  0.20800  0.00929  1.0000
  Ge  Ge2       1.0  0.31600  0.70800  0.49100  1.0000
  Ge  Ge3       1.0  0.68400  0.29200  0.50900  1.0000
  Ge  Ge4       1.0  0.31600  0.79200  0.99100  1.0000
  Pb  Pb1       1.0  0.86800  0.58000  0.22200  1.0000
  Pb  Pb2       1.0  0.13200  0.08050  0.27800  1.0000
  Pb  Pb3       1.0  0.86800  0.92000  0.72200  1.0000
  Pb  Pb4       1.0  0.13200  0.42000  0.77800  1.0000
  S   S1        1.0  0.77100  0.00909  0.08240  1.0000
  S   S2        1.0  0.94200  0.32400  0.08830  1.0000
  S   S3        1.0  0.49000  0.27800  0.19300  1.0000
  S   S4        1.0  0.51000  0.77800  0.30700  1.0000
  S   S5        1.0  0.05850  0.82400  0.41200  1.0000
  S   S6        1.0  0.22900  0.50900  0.41800  1.0000
  S   S7        1.0  0.77100  0.49100  0.58200  1.0000
  S   S8        1.0  0.94200  0.17600  0.58800  1.0000
  S   S9        1.0  0.49000  0.22200  0.69300  1.0000
  S   S10       1.0  0.51000  0.72200  0.80700  1.0000
  S   S11       1.0  0.05850  0.67600  0.91200  1.0000
  S   S12       1.0  0.22900  0.99100  0.91800  1.0000
