data_image0
_chemical_formula_structural       Ce2Ho6S12
_chemical_formula_sum              "Ce2 Ho6 S12"
_cell_length_a       11.3389
_cell_length_b       11.0774
_cell_length_c       3.99594
_cell_angle_alpha    90
_cell_angle_beta     90
_cell_angle_gamma    108.772

_space_group_name_H-M_alt    "P 1"
_space_group_IT_number       1

loop_
  _space_group_symop_operation_xyz
  'x, y, z'

loop_
  _atom_site_type_symbol
  _atom_site_label
  _atom_site_symmetry_multiplicity
  _atom_site_fract_x
  _atom_site_fract_y
  _atom_site_fract_z
  _atom_site_occupancy
  Ce  Ce1       1.0  0.19600  0.55000  0.25000  1.0000
  Ce  Ce2       1.0  0.80400  0.45000  0.75000  1.0000
  Ho  Ho1       1.0  0.00094  0.17900  0.25000  1.0000
  Ho  Ho2       1.0  0.58800  0.66100  0.25000  1.0000
  Ho  Ho3       1.0  0.33300  0.94300  0.25000  1.0000
  Ho  Ho4       1.0  0.66700  0.05660  0.75000  1.0000
  Ho  Ho5       1.0  0.41200  0.33900  0.75000  1.0000
  Ho  Ho6       1.0  0.99900  0.82100  0.75000  1.0000
  S   S1        1.0  0.77100  0.23200  0.25000  1.0000
  S   S2        1.0  0.25100  0.30200  0.25000  1.0000
  S   S3        1.0  0.59200  0.41700  0.25000  1.0000
  S   S4        1.0  0.96400  0.62100  0.25000  1.0000
  S   S5        1.0  0.55700  0.89400  0.25000  1.0000
  S   S6        1.0  0.11100  0.97900  0.25000  1.0000
  S   S7        1.0  0.88900  0.02150  0.75000  1.0000
  S   S8        1.0  0.44300  0.10600  0.75000  1.0000
  S   S9        1.0  0.03600  0.37900  0.75000  1.0000
  S   S10       1.0  0.40800  0.58300  0.75000  1.0000
  S   S11       1.0  0.74900  0.69800  0.75000  1.0000
  S   S12       1.0  0.22900  0.76800  0.75000  1.0000
