data_image0
_chemical_formula_structural       Cr4S12Th4
_chemical_formula_sum              "Cr4 S12 Th4"
_cell_length_a       7.43469
_cell_length_b       8.89176
_cell_length_c       6.21169
_cell_angle_alpha    90
_cell_angle_beta     90
_cell_angle_gamma    90

_space_group_name_H-M_alt    "P 1"
_space_group_IT_number       1

loop_
  _space_group_symop_operation_xyz
  'x, y, z'

loop_
  _atom_site_type_symbol
  _atom_site_label
  _atom_site_symmetry_multiplicity
  _atom_site_fract_x
  _atom_site_fract_y
  _atom_site_fract_z
  _atom_site_occupancy
  Cr  Cr1       1.0  0.00000  0.00000  0.00000  1.0000
  Cr  Cr2       1.0  0.00000  0.50000  0.00000  1.0000
  Cr  Cr3       1.0  0.50000  0.00000  0.50000  1.0000
  Cr  Cr4       1.0  0.50000  0.50000  0.50000  1.0000
  S   S1        1.0  0.96100  0.75000  0.13500  1.0000
  S   S2        1.0  0.67100  0.05470  0.17300  1.0000
  S   S3        1.0  0.67100  0.44500  0.17300  1.0000
  S   S4        1.0  0.17100  0.05470  0.32700  1.0000
  S   S5        1.0  0.17100  0.44500  0.32700  1.0000
  S   S6        1.0  0.46100  0.75000  0.36500  1.0000
  S   S7        1.0  0.53900  0.25000  0.63500  1.0000
  S   S8        1.0  0.82900  0.55500  0.67300  1.0000
  S   S9        1.0  0.82900  0.94500  0.67300  1.0000
  S   S10       1.0  0.32900  0.55500  0.82700  1.0000
  S   S11       1.0  0.32900  0.94500  0.82700  1.0000
  S   S12       1.0  0.03930  0.25000  0.86500  1.0000
  Th  Th1       1.0  0.38200  0.25000  0.05120  1.0000
  Th  Th2       1.0  0.88200  0.25000  0.44900  1.0000
  Th  Th3       1.0  0.11800  0.75000  0.55100  1.0000
  Th  Th4       1.0  0.61800  0.75000  0.94900  1.0000
