data_image0
_chemical_formula_structural       Cr4Se12U4
_chemical_formula_sum              "Cr4 Se12 U4"
_cell_length_a       7.41456
_cell_length_b       9.32854
_cell_length_c       6.39734
_cell_angle_alpha    90
_cell_angle_beta     90
_cell_angle_gamma    90

_space_group_name_H-M_alt    "P 1"
_space_group_IT_number       1

loop_
  _space_group_symop_operation_xyz
  'x, y, z'

loop_
  _atom_site_type_symbol
  _atom_site_label
  _atom_site_symmetry_multiplicity
  _atom_site_fract_x
  _atom_site_fract_y
  _atom_site_fract_z
  _atom_site_occupancy
  Cr  Cr1       1.0  0.00000  0.00000  0.00000  1.0000
  Cr  Cr2       1.0  0.00000  0.50000  0.00000  1.0000
  Cr  Cr3       1.0  0.50000  0.00000  0.50000  1.0000
  Cr  Cr4       1.0  0.50000  0.50000  0.50000  1.0000
  Se  Se1       1.0  0.95800  0.75000  0.15200  1.0000
  Se  Se2       1.0  0.67600  0.05810  0.16000  1.0000
  Se  Se3       1.0  0.67600  0.44200  0.16000  1.0000
  Se  Se4       1.0  0.17600  0.05810  0.34000  1.0000
  Se  Se5       1.0  0.17600  0.44200  0.34000  1.0000
  Se  Se6       1.0  0.45800  0.75000  0.34800  1.0000
  Se  Se7       1.0  0.54200  0.25000  0.65200  1.0000
  Se  Se8       1.0  0.82400  0.55800  0.66000  1.0000
  Se  Se9       1.0  0.82400  0.94200  0.66000  1.0000
  Se  Se10      1.0  0.32400  0.55800  0.84000  1.0000
  Se  Se11      1.0  0.32400  0.94200  0.84000  1.0000
  Se  Se12      1.0  0.04170  0.25000  0.84800  1.0000
  U   U1        1.0  0.37500  0.25000  0.06200  1.0000
  U   U2        1.0  0.87500  0.25000  0.43800  1.0000
  U   U3        1.0  0.12500  0.75000  0.56200  1.0000
  U   U4        1.0  0.62500  0.75000  0.93800  1.0000
