data_image0
_chemical_formula_structural       Ca4P4Se12
_chemical_formula_sum              "Ca4 P4 Se12"
_cell_length_a       9.71856
_cell_length_b       7.58796
_cell_length_c       6.92202
_cell_angle_alpha    90
_cell_angle_beta     92.1536
_cell_angle_gamma    90

_space_group_name_H-M_alt    "P 1"
_space_group_IT_number       1

loop_
  _space_group_symop_operation_xyz
  'x, y, z'

loop_
  _atom_site_type_symbol
  _atom_site_label
  _atom_site_symmetry_multiplicity
  _atom_site_fract_x
  _atom_site_fract_y
  _atom_site_fract_z
  _atom_site_occupancy
  Ca  Ca1       1.0  0.75300  0.61300  0.03850  1.0000
  Ca  Ca2       1.0  0.74700  0.11300  0.46100  1.0000
  Ca  Ca3       1.0  0.25300  0.88700  0.53900  1.0000
  Ca  Ca4       1.0  0.24700  0.38700  0.96100  1.0000
  P   P1        1.0  0.43600  0.89300  0.06440  1.0000
  P   P2        1.0  0.06400  0.39300  0.43600  1.0000
  P   P3        1.0  0.93600  0.60700  0.56400  1.0000
  P   P4        1.0  0.56400  0.10700  0.93600  1.0000
  Se  Se1       1.0  0.23400  0.01250  0.12200  1.0000
  Se  Se2       1.0  0.56300  0.31200  0.16300  1.0000
  Se  Se3       1.0  0.94900  0.29600  0.17400  1.0000
  Se  Se4       1.0  0.55100  0.79600  0.32600  1.0000
  Se  Se5       1.0  0.93700  0.81200  0.33700  1.0000
  Se  Se6       1.0  0.26600  0.51300  0.37800  1.0000
  Se  Se7       1.0  0.73400  0.48700  0.62200  1.0000
  Se  Se8       1.0  0.06340  0.18800  0.66300  1.0000
  Se  Se9       1.0  0.44900  0.20400  0.67400  1.0000
  Se  Se10      1.0  0.05060  0.70400  0.82600  1.0000
  Se  Se11      1.0  0.43700  0.68800  0.83700  1.0000
  Se  Se12      1.0  0.76600  0.98700  0.87800  1.0000
