data_image0
_chemical_formula_structural       Ca2Fe2O12Si4
_chemical_formula_sum              "Ca2 Fe2 O12 Si4"
_cell_length_a       5.24564
_cell_length_b       6.67059
_cell_length_c       6.67059
_cell_angle_alpha    94.9905
_cell_angle_beta     101.357
_cell_angle_gamma    78.6435

_space_group_name_H-M_alt    "P 1"
_space_group_IT_number       1

loop_
  _space_group_symop_operation_xyz
  'x, y, z'

loop_
  _atom_site_type_symbol
  _atom_site_label
  _atom_site_symmetry_multiplicity
  _atom_site_fract_x
  _atom_site_fract_y
  _atom_site_fract_z
  _atom_site_occupancy
  Ca  Ca1       1.0  0.75000  0.30400  0.30400  1.0000
  Ca  Ca2       1.0  0.25000  0.69600  0.69600  1.0000
  Fe  Fe1       1.0  0.25000  0.09200  0.09200  1.0000
  Fe  Fe2       1.0  0.75000  0.90800  0.90800  1.0000
  O   O1        1.0  0.14300  0.79100  0.02370  1.0000
  O   O2        1.0  0.33000  0.39100  0.11200  1.0000
  O   O3        1.0  0.64300  0.97600  0.20900  1.0000
  O   O4        1.0  0.99000  0.62700  0.32800  1.0000
  O   O5        1.0  0.49000  0.67200  0.37300  1.0000
  O   O6        1.0  0.17000  0.11200  0.39100  1.0000
  O   O7        1.0  0.83000  0.88800  0.60900  1.0000
  O   O8        1.0  0.51000  0.32800  0.62700  1.0000
  O   O9        1.0  0.01010  0.37300  0.67200  1.0000
  O   O10       1.0  0.35700  0.02370  0.79100  1.0000
  O   O11       1.0  0.67000  0.60900  0.88800  1.0000
  O   O12       1.0  0.85700  0.20900  0.97600  1.0000
  Si  Si1       1.0  0.23000  0.62000  0.19300  1.0000
  Si  Si2       1.0  0.73000  0.80700  0.38000  1.0000
  Si  Si3       1.0  0.27000  0.19300  0.62000  1.0000
  Si  Si4       1.0  0.77000  0.38000  0.80700  1.0000
