data_image0
_chemical_formula_structural       B6Tc14
_chemical_formula_sum              "B6 Tc14"
_cell_length_a       7.50685
_cell_length_b       7.50687
_cell_length_c       4.86154
_cell_angle_alpha    90
_cell_angle_beta     90
_cell_angle_gamma    120

_space_group_name_H-M_alt    "P 1"
_space_group_IT_number       1

loop_
  _space_group_symop_operation_xyz
  'x, y, z'

loop_
  _atom_site_type_symbol
  _atom_site_label
  _atom_site_symmetry_multiplicity
  _atom_site_fract_x
  _atom_site_fract_y
  _atom_site_fract_z
  _atom_site_occupancy
  B   B1        1.0  0.81100  0.62100  0.34000  1.0000
  B   B2        1.0  0.37900  0.18900  0.34000  1.0000
  B   B3        1.0  0.81100  0.18900  0.34000  1.0000
  B   B4        1.0  0.18900  0.37900  0.84000  1.0000
  B   B5        1.0  0.18900  0.81100  0.84000  1.0000
  B   B6        1.0  0.62100  0.81100  0.84000  1.0000
  Tc  Tc1       1.0  0.54600  0.45400  0.04860  1.0000
  Tc  Tc2       1.0  0.90900  0.45400  0.04860  1.0000
  Tc  Tc3       1.0  0.54600  0.09130  0.04860  1.0000
  Tc  Tc4       1.0  0.33300  0.66700  0.08250  1.0000
  Tc  Tc5       1.0  0.12400  0.24700  0.25400  1.0000
  Tc  Tc6       1.0  0.12400  0.87600  0.25400  1.0000
  Tc  Tc7       1.0  0.75300  0.87600  0.25400  1.0000
  Tc  Tc8       1.0  0.09130  0.54600  0.54900  1.0000
  Tc  Tc9       1.0  0.45400  0.54600  0.54900  1.0000
  Tc  Tc10      1.0  0.45400  0.90900  0.54900  1.0000
  Tc  Tc11      1.0  0.66700  0.33300  0.58300  1.0000
  Tc  Tc12      1.0  0.24700  0.12400  0.75400  1.0000
  Tc  Tc13      1.0  0.87600  0.12400  0.75400  1.0000
  Tc  Tc14      1.0  0.87600  0.75300  0.75400  1.0000
