data_image0
_chemical_formula_structural       Dy4S12Sc4
_chemical_formula_sum              "Dy4 S12 Sc4"
_cell_length_a       7.01248
_cell_length_b       6.36679
_cell_length_c       9.50887
_cell_angle_alpha    90
_cell_angle_beta     90
_cell_angle_gamma    90

_space_group_name_H-M_alt    "P 1"
_space_group_IT_number       1

loop_
  _space_group_symop_operation_xyz
  'x, y, z'

loop_
  _atom_site_type_symbol
  _atom_site_label
  _atom_site_symmetry_multiplicity
  _atom_site_fract_x
  _atom_site_fract_y
  _atom_site_fract_z
  _atom_site_occupancy
  Dy  Dy1       1.0  0.10200  0.04160  0.00882  1.0000
  Dy  Dy2       1.0  0.60200  0.45800  0.00882  1.0000
  Dy  Dy3       1.0  0.39800  0.54200  0.50900  1.0000
  Dy  Dy4       1.0  0.89800  0.95800  0.50900  1.0000
  S   S1        1.0  0.95200  0.64500  0.00896  1.0000
  S   S2        1.0  0.45200  0.85500  0.00896  1.0000
  S   S3        1.0  0.81500  0.17600  0.18800  1.0000
  S   S4        1.0  0.31500  0.32400  0.18800  1.0000
  S   S5        1.0  0.68400  0.67500  0.33000  1.0000
  S   S6        1.0  0.18400  0.82500  0.33000  1.0000
  S   S7        1.0  0.54800  0.14500  0.50900  1.0000
  S   S8        1.0  0.04760  0.35500  0.50900  1.0000
  S   S9        1.0  0.68500  0.67600  0.68800  1.0000
  S   S10       1.0  0.18500  0.82400  0.68800  1.0000
  S   S11       1.0  0.81600  0.17500  0.83000  1.0000
  S   S12       1.0  0.31600  0.32500  0.83000  1.0000
  Sc  Sc1       1.0  0.50000  0.99996  0.25900  1.0000
  Sc  Sc2       1.0  0.00000  0.50000  0.25900  1.0000
  Sc  Sc3       1.0  0.50000  0.00004  0.75900  1.0000
  Sc  Sc4       1.0  0.00027  0.50000  0.75900  1.0000
