data_image0
_chemical_formula_structural       Dy6Ga2S12
_chemical_formula_sum              "Dy6 Ga2 S12"
_cell_length_a       6.46528
_cell_length_b       8.51588
_cell_length_c       8.51588
_cell_angle_alpha    102.538
_cell_angle_beta     90
_cell_angle_gamma    90

_space_group_name_H-M_alt    "P 1"
_space_group_IT_number       1

loop_
  _space_group_symop_operation_xyz
  'x, y, z'

loop_
  _atom_site_type_symbol
  _atom_site_label
  _atom_site_symmetry_multiplicity
  _atom_site_fract_x
  _atom_site_fract_y
  _atom_site_fract_z
  _atom_site_occupancy
  Dy  Dy1       1.0  0.72600  0.28400  0.08610  1.0000
  Dy  Dy2       1.0  0.22600  0.08610  0.28400  1.0000
  Dy  Dy3       1.0  0.13700  0.59800  0.40200  1.0000
  Dy  Dy4       1.0  0.63700  0.40200  0.59800  1.0000
  Dy  Dy5       1.0  0.72600  0.91400  0.71600  1.0000
  Dy  Dy6       1.0  0.22600  0.71600  0.91400  1.0000
  Ga  Ga1       1.0  0.76200  0.80000  0.20000  1.0000
  Ga  Ga2       1.0  0.26200  0.20000  0.80000  1.0000
  S   S1        1.0  0.90700  0.96100  0.03940  1.0000
  S   S2        1.0  0.94200  0.56700  0.10000  1.0000
  S   S3        1.0  0.41000  0.78300  0.21700  1.0000
  S   S4        1.0  0.43100  0.36800  0.30900  1.0000
  S   S5        1.0  0.93100  0.30900  0.36800  1.0000
  S   S6        1.0  0.94200  0.90000  0.43300  1.0000
  S   S7        1.0  0.44200  0.10000  0.56700  1.0000
  S   S8        1.0  0.43100  0.69100  0.63200  1.0000
  S   S9        1.0  0.93100  0.63200  0.69100  1.0000
  S   S10       1.0  0.91000  0.21700  0.78300  1.0000
  S   S11       1.0  0.44200  0.43300  0.90000  1.0000
  S   S12       1.0  0.40700  0.03940  0.96100  1.0000
