data_image0
_chemical_formula_structural       Ce14Pt6
_chemical_formula_sum              "Ce14 Pt6"
_cell_length_a       10.3522
_cell_length_b       10.3522
_cell_length_c       6.51671
_cell_angle_alpha    90
_cell_angle_beta     90
_cell_angle_gamma    120

_space_group_name_H-M_alt    "P 1"
_space_group_IT_number       1

loop_
  _space_group_symop_operation_xyz
  'x, y, z'

loop_
  _atom_site_type_symbol
  _atom_site_label
  _atom_site_symmetry_multiplicity
  _atom_site_fract_x
  _atom_site_fract_y
  _atom_site_fract_z
  _atom_site_occupancy
  Ce  Ce1       1.0  0.33300  0.66700  0.03820  1.0000
  Ce  Ce2       1.0  0.53800  0.46200  0.04910  1.0000
  Ce  Ce3       1.0  0.92500  0.46200  0.04910  1.0000
  Ce  Ce4       1.0  0.53800  0.07520  0.04910  1.0000
  Ce  Ce5       1.0  0.12600  0.87400  0.25100  1.0000
  Ce  Ce6       1.0  0.74700  0.87400  0.25100  1.0000
  Ce  Ce7       1.0  0.12600  0.25300  0.25100  1.0000
  Ce  Ce8       1.0  0.66700  0.33300  0.53800  1.0000
  Ce  Ce9       1.0  0.07520  0.53800  0.54900  1.0000
  Ce  Ce10      1.0  0.46200  0.53800  0.54900  1.0000
  Ce  Ce11      1.0  0.46200  0.92500  0.54900  1.0000
  Ce  Ce12      1.0  0.25300  0.12600  0.75100  1.0000
  Ce  Ce13      1.0  0.87400  0.12600  0.75100  1.0000
  Ce  Ce14      1.0  0.87400  0.74700  0.75100  1.0000
  Pt  Pt1       1.0  0.81100  0.62200  0.30100  1.0000
  Pt  Pt2       1.0  0.37800  0.18900  0.30100  1.0000
  Pt  Pt3       1.0  0.81100  0.18900  0.30100  1.0000
  Pt  Pt4       1.0  0.18900  0.37800  0.80100  1.0000
  Pt  Pt5       1.0  0.18900  0.81100  0.80100  1.0000
  Pt  Pt6       1.0  0.62200  0.81100  0.80100  1.0000
