data_image0
_chemical_formula_structural       B8Os4W8
_chemical_formula_sum              "B8 Os4 W8"
_cell_length_a       9.67677
_cell_length_b       7.60299
_cell_length_c       3.08392
_cell_angle_alpha    90
_cell_angle_beta     90
_cell_angle_gamma    90

_space_group_name_H-M_alt    "P 1"
_space_group_IT_number       1

loop_
  _space_group_symop_operation_xyz
  'x, y, z'

loop_
  _atom_site_type_symbol
  _atom_site_label
  _atom_site_symmetry_multiplicity
  _atom_site_fract_x
  _atom_site_fract_y
  _atom_site_fract_z
  _atom_site_occupancy
  B   B1        1.0  0.76800  0.37800  0.00000  1.0000
  B   B2        1.0  0.96000  0.38600  0.00000  1.0000
  B   B3        1.0  0.03960  0.61400  0.00000  1.0000
  B   B4        1.0  0.23200  0.62200  0.00000  1.0000
  B   B5        1.0  0.46000  0.11400  0.50000  1.0000
  B   B6        1.0  0.26800  0.12200  0.50000  1.0000
  B   B7        1.0  0.73200  0.87800  0.50000  1.0000
  B   B8        1.0  0.54000  0.88600  0.50000  1.0000
  Os  Os1       1.0  0.10700  0.11700  0.00000  1.0000
  Os  Os2       1.0  0.89300  0.88300  0.00000  1.0000
  Os  Os3       1.0  0.60700  0.38300  0.50000  1.0000
  Os  Os4       1.0  0.39300  0.61700  0.50000  1.0000
  W   W1        1.0  0.63900  0.07520  0.00000  1.0000
  W   W2        1.0  0.36900  0.30600  0.00000  1.0000
  W   W3        1.0  0.63100  0.69400  0.00000  1.0000
  W   W4        1.0  0.36100  0.92500  0.00000  1.0000
  W   W5        1.0  0.86900  0.19400  0.50000  1.0000
  W   W6        1.0  0.13900  0.42500  0.50000  1.0000
  W   W7        1.0  0.86100  0.57500  0.50000  1.0000
  W   W8        1.0  0.13100  0.80600  0.50000  1.0000
