data_image0
_chemical_formula_structural       Cr4Cs4I12
_chemical_formula_sum              "Cr4 Cs4 I12"
_cell_length_a       8.25985
_cell_length_b       14.1392
_cell_length_c       6.99654
_cell_angle_alpha    90
_cell_angle_beta     90
_cell_angle_gamma    90

_space_group_name_H-M_alt    "P 1"
_space_group_IT_number       1

loop_
  _space_group_symop_operation_xyz
  'x, y, z'

loop_
  _atom_site_type_symbol
  _atom_site_label
  _atom_site_symmetry_multiplicity
  _atom_site_fract_x
  _atom_site_fract_y
  _atom_site_fract_z
  _atom_site_occupancy
  Cr  Cr1       1.0  0.00000  0.00000  0.00000  1.0000
  Cr  Cr2       1.0  0.50000  0.50000  0.00000  1.0000
  Cr  Cr3       1.0  0.00000  0.00000  0.50000  1.0000
  Cr  Cr4       1.0  0.50000  0.50000  0.50000  1.0000
  Cs  Cs1       1.0  0.00000  0.33500  0.25000  1.0000
  Cs  Cs2       1.0  0.50000  0.83500  0.25000  1.0000
  Cs  Cs3       1.0  0.50000  0.16500  0.75000  1.0000
  Cs  Cs4       1.0  0.00000  0.66500  0.75000  1.0000
  I   I1        1.0  0.24400  0.08340  0.21900  1.0000
  I   I2        1.0  0.25600  0.58300  0.21900  1.0000
  I   I3        1.0  0.50000  0.34400  0.25000  1.0000
  I   I4        1.0  0.00000  0.84400  0.25000  1.0000
  I   I5        1.0  0.75600  0.08340  0.28100  1.0000
  I   I6        1.0  0.74400  0.58300  0.28100  1.0000
  I   I7        1.0  0.25600  0.41700  0.71900  1.0000
  I   I8        1.0  0.24400  0.91700  0.71900  1.0000
  I   I9        1.0  0.00000  0.15600  0.75000  1.0000
  I   I10       1.0  0.50000  0.65600  0.75000  1.0000
  I   I11       1.0  0.74400  0.41700  0.78100  1.0000
  I   I12       1.0  0.75600  0.91700  0.78100  1.0000
