data_image0
_chemical_formula_structural       B8Mo8Os4
_chemical_formula_sum              "B8 Mo8 Os4"
_cell_length_a       9.64217
_cell_length_b       7.59581
_cell_length_c       3.07719
_cell_angle_alpha    90
_cell_angle_beta     90
_cell_angle_gamma    90

_space_group_name_H-M_alt    "P 1"
_space_group_IT_number       1

loop_
  _space_group_symop_operation_xyz
  'x, y, z'

loop_
  _atom_site_type_symbol
  _atom_site_label
  _atom_site_symmetry_multiplicity
  _atom_site_fract_x
  _atom_site_fract_y
  _atom_site_fract_z
  _atom_site_occupancy
  B   B1        1.0  0.76700  0.37900  0.00000  1.0000
  B   B2        1.0  0.96000  0.38700  0.00000  1.0000
  B   B3        1.0  0.03990  0.61300  0.00000  1.0000
  B   B4        1.0  0.23300  0.62100  0.00000  1.0000
  B   B5        1.0  0.46000  0.11300  0.50000  1.0000
  B   B6        1.0  0.26700  0.12100  0.50000  1.0000
  B   B7        1.0  0.73300  0.87900  0.50000  1.0000
  B   B8        1.0  0.54000  0.88700  0.50000  1.0000
  Mo  Mo1       1.0  0.63900  0.07730  0.00000  1.0000
  Mo  Mo2       1.0  0.37000  0.30500  0.00000  1.0000
  Mo  Mo3       1.0  0.63000  0.69500  0.00000  1.0000
  Mo  Mo4       1.0  0.36100  0.92300  0.00000  1.0000
  Mo  Mo5       1.0  0.87000  0.19500  0.50000  1.0000
  Mo  Mo6       1.0  0.13900  0.42300  0.50000  1.0000
  Mo  Mo7       1.0  0.86100  0.57700  0.50000  1.0000
  Mo  Mo8       1.0  0.13000  0.80500  0.50000  1.0000
  Os  Os1       1.0  0.10700  0.11700  0.00000  1.0000
  Os  Os2       1.0  0.89300  0.88300  0.00000  1.0000
  Os  Os3       1.0  0.60700  0.38300  0.50000  1.0000
  Os  Os4       1.0  0.39300  0.61700  0.50000  1.0000
