data_image0
_chemical_formula_structural       Cr2Ge4Na2O12
_chemical_formula_sum              "Cr2 Ge4 Na2 O12"
_cell_length_a       5.46323
_cell_length_b       6.64693
_cell_length_c       6.64693
_cell_angle_alpha    97.0074
_cell_angle_beta     102.99
_cell_angle_gamma    77.0098

_space_group_name_H-M_alt    "P 1"
_space_group_IT_number       1

loop_
  _space_group_symop_operation_xyz
  'x, y, z'

loop_
  _atom_site_type_symbol
  _atom_site_label
  _atom_site_symmetry_multiplicity
  _atom_site_fract_x
  _atom_site_fract_y
  _atom_site_fract_z
  _atom_site_occupancy
  Cr  Cr1       1.0  0.25000  0.08750  0.08750  1.0000
  Cr  Cr2       1.0  0.75000  0.91200  0.91200  1.0000
  Ge  Ge1       1.0  0.22900  0.61200  0.19300  1.0000
  Ge  Ge2       1.0  0.72900  0.80700  0.38800  1.0000
  Ge  Ge3       1.0  0.27100  0.19300  0.61200  1.0000
  Ge  Ge4       1.0  0.77100  0.38800  0.80700  1.0000
  Na  Na1       1.0  0.75000  0.30400  0.30400  1.0000
  Na  Na2       1.0  0.25000  0.69600  0.69600  1.0000
  O   O1        1.0  0.13100  0.81000  0.01970  1.0000
  O   O2        1.0  0.31500  0.36600  0.07890  1.0000
  O   O3        1.0  0.63100  0.98000  0.19000  1.0000
  O   O4        1.0  0.00622  0.61800  0.35000  1.0000
  O   O5        1.0  0.18500  0.07890  0.36600  1.0000
  O   O6        1.0  0.50600  0.65000  0.38200  1.0000
  O   O7        1.0  0.49400  0.35000  0.61800  1.0000
  O   O8        1.0  0.81500  0.92100  0.63400  1.0000
  O   O9        1.0  0.99400  0.38200  0.65000  1.0000
  O   O10       1.0  0.36900  0.01970  0.81000  1.0000
  O   O11       1.0  0.68500  0.63400  0.92100  1.0000
  O   O12       1.0  0.86900  0.19000  0.98000  1.0000
