data_image0
_chemical_formula_structural       O12Sr4U2Zn2
_chemical_formula_sum              "O12 Sr4 U2 Zn2"
_cell_length_a       5.80613
_cell_length_b       5.84061
_cell_length_c       8.19689
_cell_angle_alpha    90
_cell_angle_beta     90.1982
_cell_angle_gamma    90

_space_group_name_H-M_alt    "P 1"
_space_group_IT_number       1

loop_
  _space_group_symop_operation_xyz
  'x, y, z'

loop_
  _atom_site_type_symbol
  _atom_site_label
  _atom_site_symmetry_multiplicity
  _atom_site_fract_x
  _atom_site_fract_y
  _atom_site_fract_z
  _atom_site_occupancy
  O   O1        1.0  0.70900  0.29500  0.03940  1.0000
  O   O2        1.0  0.79600  0.78900  0.04260  1.0000
  O   O3        1.0  0.07930  0.47900  0.25000  1.0000
  O   O4        1.0  0.42100  0.97900  0.25000  1.0000
  O   O5        1.0  0.70400  0.28900  0.45700  1.0000
  O   O6        1.0  0.79100  0.79500  0.46100  1.0000
  O   O7        1.0  0.20900  0.20500  0.53900  1.0000
  O   O8        1.0  0.29600  0.71100  0.54300  1.0000
  O   O9        1.0  0.57900  0.02120  0.75000  1.0000
  O   O10       1.0  0.92100  0.52100  0.75000  1.0000
  O   O11       1.0  0.20400  0.21100  0.95700  1.0000
  O   O12       1.0  0.29100  0.70500  0.96100  1.0000
  Sr  Sr1       1.0  0.50700  0.53900  0.24800  1.0000
  Sr  Sr2       1.0  0.99300  0.03900  0.25200  1.0000
  Sr  Sr3       1.0  0.00721  0.96100  0.74800  1.0000
  Sr  Sr4       1.0  0.49300  0.46100  0.75200  1.0000
  U   U1        1.0  0.00000  0.50000  0.00000  1.0000
  U   U2        1.0  0.50000  0.00000  0.50000  1.0000
  Zn  Zn1       1.0  0.50000  0.00000  0.00000  1.0000
  Zn  Zn2       1.0  0.00000  0.50000  0.50000  1.0000
