data_image0
_chemical_formula_structural       C8Re4Tb8
_chemical_formula_sum              "C8 Re4 Tb8"
_cell_length_a       6.59499
_cell_length_b       5.14532
_cell_length_c       9.90555
_cell_angle_alpha    90
_cell_angle_beta     90
_cell_angle_gamma    90

_space_group_name_H-M_alt    "P 1"
_space_group_IT_number       1

loop_
  _space_group_symop_operation_xyz
  'x, y, z'

loop_
  _atom_site_type_symbol
  _atom_site_label
  _atom_site_symmetry_multiplicity
  _atom_site_fract_x
  _atom_site_fract_y
  _atom_site_fract_z
  _atom_site_occupancy
  C   C1        1.0  0.82100  0.75000  0.04830  1.0000
  C   C2        1.0  0.54300  0.25000  0.24100  1.0000
  C   C3        1.0  0.04280  0.25000  0.25900  1.0000
  C   C4        1.0  0.32100  0.75000  0.45200  1.0000
  C   C5        1.0  0.67900  0.25000  0.54800  1.0000
  C   C6        1.0  0.95700  0.75000  0.74100  1.0000
  C   C7        1.0  0.45700  0.75000  0.75900  1.0000
  C   C8        1.0  0.17900  0.25000  0.95200  1.0000
  Re  Re1       1.0  0.27700  0.25000  0.13500  1.0000
  Re  Re2       1.0  0.77700  0.25000  0.36500  1.0000
  Re  Re3       1.0  0.22300  0.75000  0.63500  1.0000
  Re  Re4       1.0  0.72300  0.75000  0.86500  1.0000
  Tb  Tb1       1.0  0.81800  0.25000  0.05490  1.0000
  Tb  Tb2       1.0  0.53000  0.75000  0.21600  1.0000
  Tb  Tb3       1.0  0.03020  0.75000  0.28400  1.0000
  Tb  Tb4       1.0  0.31800  0.25000  0.44500  1.0000
  Tb  Tb5       1.0  0.68200  0.75000  0.55500  1.0000
  Tb  Tb6       1.0  0.97000  0.25000  0.71600  1.0000
  Tb  Tb7       1.0  0.47000  0.25000  0.78400  1.0000
  Tb  Tb8       1.0  0.18200  0.75000  0.94500  1.0000
