data_image0
_chemical_formula_structural       Dy4Ge10Ir6
_chemical_formula_sum              "Dy4 Ge10 Ir6"
_cell_length_a       6.00986
_cell_length_b       8.37994
_cell_length_c       8.37994
_cell_angle_alpha    104.371
_cell_angle_beta     111.013
_cell_angle_gamma    68.9866

_space_group_name_H-M_alt    "P 1"
_space_group_IT_number       1

loop_
  _space_group_symop_operation_xyz
  'x, y, z'

loop_
  _atom_site_type_symbol
  _atom_site_label
  _atom_site_symmetry_multiplicity
  _atom_site_fract_x
  _atom_site_fract_y
  _atom_site_fract_z
  _atom_site_occupancy
  Dy  Dy1       1.0  0.86600  0.40800  0.13900  1.0000
  Dy  Dy2       1.0  0.63400  0.13900  0.40800  1.0000
  Dy  Dy3       1.0  0.36600  0.86100  0.59200  1.0000
  Dy  Dy4       1.0  0.13400  0.59200  0.86100  1.0000
  Ge  Ge1       1.0  0.40200  0.26100  0.06440  1.0000
  Ge  Ge2       1.0  0.47300  0.77700  0.22300  1.0000
  Ge  Ge3       1.0  0.97300  0.77700  0.22300  1.0000
  Ge  Ge4       1.0  0.09800  0.06440  0.26100  1.0000
  Ge  Ge5       1.0  0.25000  0.50000  0.50000  1.0000
  Ge  Ge6       1.0  0.75000  0.50000  0.50000  1.0000
  Ge  Ge7       1.0  0.90200  0.93600  0.73900  1.0000
  Ge  Ge8       1.0  0.02710  0.22300  0.77700  1.0000
  Ge  Ge9       1.0  0.52700  0.22300  0.77700  1.0000
  Ge  Ge10      1.0  0.59800  0.73900  0.93600  1.0000
  Ir  Ir1       1.0  0.25000  0.00000  0.00000  1.0000
  Ir  Ir2       1.0  0.75000  0.00000  0.00000  1.0000
  Ir  Ir3       1.0  0.35800  0.53100  0.24600  1.0000
  Ir  Ir4       1.0  0.85800  0.75400  0.46900  1.0000
  Ir  Ir5       1.0  0.14200  0.24600  0.53100  1.0000
  Ir  Ir6       1.0  0.64200  0.46900  0.75400  1.0000
