data_image0
_chemical_formula_structural       Dy14Rh6
_chemical_formula_sum              "Dy14 Rh6"
_cell_length_a       9.77926
_cell_length_b       9.77925
_cell_length_c       6.13861
_cell_angle_alpha    90
_cell_angle_beta     90
_cell_angle_gamma    120

_space_group_name_H-M_alt    "P 1"
_space_group_IT_number       1

loop_
  _space_group_symop_operation_xyz
  'x, y, z'

loop_
  _atom_site_type_symbol
  _atom_site_label
  _atom_site_symmetry_multiplicity
  _atom_site_fract_x
  _atom_site_fract_y
  _atom_site_fract_z
  _atom_site_occupancy
  Dy  Dy1       1.0  0.33300  0.66700  0.03580  1.0000
  Dy  Dy2       1.0  0.54100  0.08240  0.04670  1.0000
  Dy  Dy3       1.0  0.54100  0.45900  0.04670  1.0000
  Dy  Dy4       1.0  0.91800  0.45900  0.04670  1.0000
  Dy  Dy5       1.0  0.12300  0.87700  0.24500  1.0000
  Dy  Dy6       1.0  0.75300  0.87700  0.24500  1.0000
  Dy  Dy7       1.0  0.12300  0.24700  0.24500  1.0000
  Dy  Dy8       1.0  0.66700  0.33300  0.53600  1.0000
  Dy  Dy9       1.0  0.45900  0.91800  0.54700  1.0000
  Dy  Dy10      1.0  0.08240  0.54100  0.54700  1.0000
  Dy  Dy11      1.0  0.45900  0.54100  0.54700  1.0000
  Dy  Dy12      1.0  0.24700  0.12300  0.74500  1.0000
  Dy  Dy13      1.0  0.87700  0.12300  0.74500  1.0000
  Dy  Dy14      1.0  0.87700  0.75300  0.74500  1.0000
  Rh  Rh1       1.0  0.37900  0.19000  0.31100  1.0000
  Rh  Rh2       1.0  0.81000  0.19000  0.31100  1.0000
  Rh  Rh3       1.0  0.81000  0.62100  0.31100  1.0000
  Rh  Rh4       1.0  0.19000  0.81000  0.81100  1.0000
  Rh  Rh5       1.0  0.62100  0.81000  0.81100  1.0000
  Rh  Rh6       1.0  0.19000  0.37900  0.81100  1.0000
