data_image0
_chemical_formula_structural       Cr2Nb6S12
_chemical_formula_sum              "Cr2 Nb6 S12"
_cell_length_a       5.79182
_cell_length_b       5.79182
_cell_length_c       12.092
_cell_angle_alpha    90
_cell_angle_beta     90
_cell_angle_gamma    120.002

_space_group_name_H-M_alt    "P 1"
_space_group_IT_number       1

loop_
  _space_group_symop_operation_xyz
  'x, y, z'

loop_
  _atom_site_type_symbol
  _atom_site_label
  _atom_site_symmetry_multiplicity
  _atom_site_fract_x
  _atom_site_fract_y
  _atom_site_fract_z
  _atom_site_occupancy
  Cr  Cr1       1.0  0.33300  0.66700  0.25000  1.0000
  Cr  Cr2       1.0  0.66700  0.33300  0.75000  1.0000
  Nb  Nb1       1.0  0.99998  0.99998  0.00000  1.0000
  Nb  Nb2       1.0  0.66700  0.33300  0.00256  1.0000
  Nb  Nb3       1.0  0.66700  0.33300  0.49700  1.0000
  Nb  Nb4       1.0  0.00000  0.00000  0.50000  1.0000
  Nb  Nb5       1.0  0.33300  0.66700  0.50300  1.0000
  Nb  Nb6       1.0  0.33300  0.66700  0.99700  1.0000
  S   S1        1.0  0.33200  0.99800  0.13100  1.0000
  S   S2        1.0  0.66700  0.66800  0.13100  1.0000
  S   S3        1.0  0.00174  0.33300  0.13100  1.0000
  S   S4        1.0  0.66700  0.99800  0.36900  1.0000
  S   S5        1.0  0.33200  0.33300  0.36900  1.0000
  S   S6        1.0  0.00174  0.66800  0.36900  1.0000
  S   S7        1.0  0.66800  0.00174  0.63100  1.0000
  S   S8        1.0  0.33300  0.33200  0.63100  1.0000
  S   S9        1.0  0.99800  0.66700  0.63100  1.0000
  S   S10       1.0  0.33300  0.00174  0.86900  1.0000
  S   S11       1.0  0.66800  0.66700  0.86900  1.0000
  S   S12       1.0  0.99800  0.33200  0.86900  1.0000
