data_image0
_chemical_formula_structural       Ba4S12Sn4
_chemical_formula_sum              "Ba4 S12 Sn4"
_cell_length_a       8.57086
_cell_length_b       3.98599
_cell_length_c       14.7706
_cell_angle_alpha    90
_cell_angle_beta     90
_cell_angle_gamma    90

_space_group_name_H-M_alt    "P 1"
_space_group_IT_number       1

loop_
  _space_group_symop_operation_xyz
  'x, y, z'

loop_
  _atom_site_type_symbol
  _atom_site_label
  _atom_site_symmetry_multiplicity
  _atom_site_fract_x
  _atom_site_fract_y
  _atom_site_fract_z
  _atom_site_occupancy
  Ba  Ba1       1.0  0.58000  0.75000  0.17500  1.0000
  Ba  Ba2       1.0  0.08040  0.75000  0.32500  1.0000
  Ba  Ba3       1.0  0.92000  0.25000  0.67500  1.0000
  Ba  Ba4       1.0  0.42000  0.25000  0.82500  1.0000
  S   S1        1.0  0.65800  0.25000  0.00223  1.0000
  S   S2        1.0  0.97300  0.75000  0.10000  1.0000
  S   S3        1.0  0.29200  0.25000  0.20900  1.0000
  S   S4        1.0  0.79200  0.25000  0.29100  1.0000
  S   S5        1.0  0.47300  0.75000  0.40000  1.0000
  S   S6        1.0  0.15800  0.25000  0.49800  1.0000
  S   S7        1.0  0.84200  0.75000  0.50200  1.0000
  S   S8        1.0  0.52700  0.25000  0.60000  1.0000
  S   S9        1.0  0.20800  0.75000  0.70900  1.0000
  S   S10       1.0  0.70800  0.75000  0.79100  1.0000
  S   S11       1.0  0.02700  0.25000  0.90000  1.0000
  S   S12       1.0  0.34200  0.75000  0.99800  1.0000
  Sn  Sn1       1.0  0.17000  0.25000  0.05720  1.0000
  Sn  Sn2       1.0  0.67000  0.25000  0.44300  1.0000
  Sn  Sn3       1.0  0.33000  0.75000  0.55700  1.0000
  Sn  Sn4       1.0  0.83000  0.75000  0.94300  1.0000
