data_image0
_chemical_formula_structural       Ge10Ni6Pr4
_chemical_formula_sum              "Ge10 Ni6 Pr4"
_cell_length_a       5.99538
_cell_length_b       8.28403
_cell_length_c       8.28403
_cell_angle_alpha    91.7295
_cell_angle_beta     111.215
_cell_angle_gamma    111.215

_space_group_name_H-M_alt    "P 1"
_space_group_IT_number       1

loop_
  _space_group_symop_operation_xyz
  'x, y, z'

loop_
  _atom_site_type_symbol
  _atom_site_label
  _atom_site_symmetry_multiplicity
  _atom_site_fract_x
  _atom_site_fract_y
  _atom_site_fract_z
  _atom_site_occupancy
  Ge  Ge1       1.0  0.15200  0.25500  0.04980  1.0000
  Ge  Ge2       1.0  0.25000  0.76200  0.23800  1.0000
  Ge  Ge3       1.0  0.75000  0.76200  0.23800  1.0000
  Ge  Ge4       1.0  0.65200  0.04980  0.25500  1.0000
  Ge  Ge5       1.0  0.25000  0.50000  0.50000  1.0000
  Ge  Ge6       1.0  0.75000  0.50000  0.50000  1.0000
  Ge  Ge7       1.0  0.34800  0.95000  0.74500  1.0000
  Ge  Ge8       1.0  0.25000  0.23800  0.76200  1.0000
  Ge  Ge9       1.0  0.75000  0.23800  0.76200  1.0000
  Ge  Ge10      1.0  0.84800  0.74500  0.95000  1.0000
  Ni  Ni1       1.0  0.25000  0.00000  0.00000  1.0000
  Ni  Ni2       1.0  0.75000  0.00000  0.00000  1.0000
  Ni  Ni3       1.0  0.39000  0.52300  0.25600  1.0000
  Ni  Ni4       1.0  0.11000  0.74400  0.47700  1.0000
  Ni  Ni5       1.0  0.89000  0.25600  0.52300  1.0000
  Ni  Ni6       1.0  0.61000  0.47700  0.74400  1.0000
  Pr  Pr1       1.0  0.76100  0.39300  0.12900  1.0000
  Pr  Pr2       1.0  0.26100  0.12900  0.39300  1.0000
  Pr  Pr3       1.0  0.73900  0.87100  0.60700  1.0000
  Pr  Pr4       1.0  0.23900  0.60700  0.87100  1.0000
