data_image0
_chemical_formula_structural       Ca4Ga4Li4N8
_chemical_formula_sum              "Ca4 Ga4 Li4 N8"
_cell_length_a       5.7724
_cell_length_b       6.91742
_cell_length_c       5.89558
_cell_angle_alpha    90
_cell_angle_beta     89.9871
_cell_angle_gamma    90

_space_group_name_H-M_alt    "P 1"
_space_group_IT_number       1

loop_
  _space_group_symop_operation_xyz
  'x, y, z'

loop_
  _atom_site_type_symbol
  _atom_site_label
  _atom_site_symmetry_multiplicity
  _atom_site_fract_x
  _atom_site_fract_y
  _atom_site_fract_z
  _atom_site_occupancy
  Ca  Ca1       1.0  0.02210  0.37300  0.24200  1.0000
  Ca  Ca2       1.0  0.97800  0.87300  0.25800  1.0000
  Ca  Ca3       1.0  0.02210  0.12700  0.74200  1.0000
  Ca  Ca4       1.0  0.97800  0.62700  0.75800  1.0000
  Ga  Ga1       1.0  0.62400  0.14000  0.07880  1.0000
  Ga  Ga2       1.0  0.37600  0.64000  0.42100  1.0000
  Ga  Ga3       1.0  0.62400  0.36000  0.57900  1.0000
  Ga  Ga4       1.0  0.37600  0.86000  0.92100  1.0000
  Li  Li1       1.0  0.63300  0.60500  0.08970  1.0000
  Li  Li2       1.0  0.36700  0.10500  0.41000  1.0000
  Li  Li3       1.0  0.63300  0.89500  0.59000  1.0000
  Li  Li4       1.0  0.36700  0.39500  0.91000  1.0000
  N   N1        1.0  0.27700  0.11300  0.07000  1.0000
  N   N2        1.0  0.25900  0.63600  0.09700  1.0000
  N   N3        1.0  0.74100  0.13600  0.40300  1.0000
  N   N4        1.0  0.72300  0.61300  0.43000  1.0000
  N   N5        1.0  0.27700  0.38700  0.57000  1.0000
  N   N6        1.0  0.25900  0.86400  0.59700  1.0000
  N   N7        1.0  0.74100  0.36400  0.90300  1.0000
  N   N8        1.0  0.72300  0.88700  0.93000  1.0000
