data_image0
_chemical_formula_structural       Ce2Lu6S12
_chemical_formula_sum              "Ce2 Lu6 S12"
_cell_length_a       11.1872
_cell_length_b       10.9633
_cell_length_c       3.94101
_cell_angle_alpha    90
_cell_angle_beta     90
_cell_angle_gamma    108.955

_space_group_name_H-M_alt    "P 1"
_space_group_IT_number       1

loop_
  _space_group_symop_operation_xyz
  'x, y, z'

loop_
  _atom_site_type_symbol
  _atom_site_label
  _atom_site_symmetry_multiplicity
  _atom_site_fract_x
  _atom_site_fract_y
  _atom_site_fract_z
  _atom_site_occupancy
  Ce  Ce1       1.0  0.19700  0.55100  0.25000  1.0000
  Ce  Ce2       1.0  0.80300  0.44900  0.75000  1.0000
  Lu  Lu1       1.0  0.00038  0.17800  0.25000  1.0000
  Lu  Lu2       1.0  0.58800  0.66200  0.25000  1.0000
  Lu  Lu3       1.0  0.33400  0.94500  0.25000  1.0000
  Lu  Lu4       1.0  0.66600  0.05540  0.75000  1.0000
  Lu  Lu5       1.0  0.41200  0.33800  0.75000  1.0000
  Lu  Lu6       1.0  0.00000  0.82200  0.75000  1.0000
  S   S1        1.0  0.76900  0.22900  0.25000  1.0000
  S   S2        1.0  0.25100  0.30000  0.25000  1.0000
  S   S3        1.0  0.59000  0.41800  0.25000  1.0000
  S   S4        1.0  0.96400  0.62400  0.25000  1.0000
  S   S5        1.0  0.55700  0.89300  0.25000  1.0000
  S   S6        1.0  0.11200  0.97800  0.25000  1.0000
  S   S7        1.0  0.88800  0.02200  0.75000  1.0000
  S   S8        1.0  0.44300  0.10700  0.75000  1.0000
  S   S9        1.0  0.03560  0.37600  0.75000  1.0000
  S   S10       1.0  0.41000  0.58200  0.75000  1.0000
  S   S11       1.0  0.74900  0.70000  0.75000  1.0000
  S   S12       1.0  0.23100  0.77100  0.75000  1.0000
