data_image0
_chemical_formula_structural       B4S12Sm4
_chemical_formula_sum              "B4 S12 Sm4"
_cell_length_a       7.42302
_cell_length_b       6.05783
_cell_length_c       8.88109
_cell_angle_alpha    90
_cell_angle_beta     90
_cell_angle_gamma    90

_space_group_name_H-M_alt    "P 1"
_space_group_IT_number       1

loop_
  _space_group_symop_operation_xyz
  'x, y, z'

loop_
  _atom_site_type_symbol
  _atom_site_label
  _atom_site_symmetry_multiplicity
  _atom_site_fract_x
  _atom_site_fract_y
  _atom_site_fract_z
  _atom_site_occupancy
  B   B1        1.0  0.64500  0.59900  0.42800  1.0000
  B   B2        1.0  0.14500  0.90100  0.42800  1.0000
  B   B3        1.0  0.85500  0.09890  0.92800  1.0000
  B   B4        1.0  0.35500  0.40100  0.92800  1.0000
  S   S1        1.0  0.32600  0.16800  0.05600  1.0000
  S   S2        1.0  0.82600  0.33200  0.05600  1.0000
  S   S3        1.0  0.49800  0.61000  0.26700  1.0000
  S   S4        1.0  0.99800  0.89000  0.26700  1.0000
  S   S5        1.0  0.29600  0.13500  0.45700  1.0000
  S   S6        1.0  0.79600  0.36500  0.45700  1.0000
  S   S7        1.0  0.17400  0.66800  0.55600  1.0000
  S   S8        1.0  0.67400  0.83200  0.55600  1.0000
  S   S9        1.0  0.00209  0.11000  0.76700  1.0000
  S   S10       1.0  0.50200  0.39000  0.76700  1.0000
  S   S11       1.0  0.20400  0.63500  0.95700  1.0000
  S   S12       1.0  0.70400  0.86500  0.95700  1.0000
  Sm  Sm1       1.0  0.61800  0.06230  0.25800  1.0000
  Sm  Sm2       1.0  0.11800  0.43800  0.25800  1.0000
  Sm  Sm3       1.0  0.88200  0.56200  0.75800  1.0000
  Sm  Sm4       1.0  0.38200  0.93800  0.75800  1.0000
