data_image0
_chemical_formula_structural       AlF6Na3
_chemical_formula_sum              "Al1 F6 Na3"
_cell_length_a       5.4538
_cell_length_b       5.45137
_cell_length_c       5.45137
_cell_angle_alpha    120.022
_cell_angle_beta     59.9853
_cell_angle_gamma    120.015

_space_group_name_H-M_alt    "P 1"
_space_group_IT_number       1

loop_
  _space_group_symop_operation_xyz
  'x, y, z'

loop_
  _atom_site_type_symbol
  _atom_site_label
  _atom_site_symmetry_multiplicity
  _atom_site_fract_x
  _atom_site_fract_y
  _atom_site_fract_z
  _atom_site_occupancy
  Al  Al1       1.0  0.00000  0.00000  0.00000  1.0000
  F   F1        1.0  0.76800  0.76800  0.23200  1.0000
  F   F2        1.0  0.23100  0.23200  0.23200  1.0000
  F   F3        1.0  0.76900  0.23200  0.23200  1.0000
  F   F4        1.0  0.23100  0.76800  0.76800  1.0000
  F   F5        1.0  0.76900  0.76800  0.76800  1.0000
  F   F6        1.0  0.23200  0.23200  0.76800  1.0000
  Na  Na1       1.0  0.24600  0.74600  0.25400  1.0000
  Na  Na2       1.0  0.50000  0.50000  0.50000  1.0000
  Na  Na3       1.0  0.75400  0.25400  0.74600  1.0000
