data_image0
_chemical_formula_structural       La4Na2O12Ru2
_chemical_formula_sum              "La4 Na2 O12 Ru2"
_cell_length_a       5.57842
_cell_length_b       5.92927
_cell_length_c       7.98623
_cell_angle_alpha    90
_cell_angle_beta     90.58
_cell_angle_gamma    90

_space_group_name_H-M_alt    "P 1"
_space_group_IT_number       1

loop_
  _space_group_symop_operation_xyz
  'x, y, z'

loop_
  _atom_site_type_symbol
  _atom_site_label
  _atom_site_symmetry_multiplicity
  _atom_site_fract_x
  _atom_site_fract_y
  _atom_site_fract_z
  _atom_site_occupancy
  La  La1       1.0  0.01670  0.56700  0.24800  1.0000
  La  La2       1.0  0.48300  0.06700  0.25200  1.0000
  La  La3       1.0  0.51700  0.93300  0.74800  1.0000
  La  La4       1.0  0.98300  0.43300  0.75200  1.0000
  Na  Na1       1.0  0.00000  0.00000  0.00000  1.0000
  Na  Na2       1.0  0.50000  0.50000  0.50000  1.0000
  O   O1        1.0  0.20900  0.32400  0.05020  1.0000
  O   O2        1.0  0.33100  0.78200  0.06180  1.0000
  O   O3        1.0  0.61000  0.45800  0.23300  1.0000
  O   O4        1.0  0.89000  0.95800  0.26700  1.0000
  O   O5        1.0  0.16900  0.28200  0.43800  1.0000
  O   O6        1.0  0.29100  0.82400  0.45000  1.0000
  O   O7        1.0  0.70900  0.17600  0.55000  1.0000
  O   O8        1.0  0.83100  0.71800  0.56200  1.0000
  O   O9        1.0  0.11000  0.04230  0.73300  1.0000
  O   O10       1.0  0.39000  0.54200  0.76700  1.0000
  O   O11       1.0  0.66900  0.21800  0.93800  1.0000
  O   O12       1.0  0.79100  0.67600  0.95000  1.0000
  Ru  Ru1       1.0  0.50000  0.50000  0.00000  1.0000
  Ru  Ru2       1.0  0.00000  0.00000  0.50000  1.0000
