data_image0
_chemical_formula_structural       F12Fe2Na6
_chemical_formula_sum              "F12 Fe2 Na6"
_cell_length_a       5.32094
_cell_length_b       5.63568
_cell_length_c       7.69209
_cell_angle_alpha    90
_cell_angle_beta     90.7471
_cell_angle_gamma    90

_space_group_name_H-M_alt    "P 1"
_space_group_IT_number       1

loop_
  _space_group_symop_operation_xyz
  'x, y, z'

loop_
  _atom_site_type_symbol
  _atom_site_label
  _atom_site_symmetry_multiplicity
  _atom_site_fract_x
  _atom_site_fract_y
  _atom_site_fract_z
  _atom_site_occupancy
  F   F1        1.0  0.12100  0.43100  0.01600  1.0000
  F   F2        1.0  0.41600  0.77700  0.17700  1.0000
  F   F3        1.0  0.54600  0.31000  0.19200  1.0000
  F   F4        1.0  0.95200  0.66400  0.30700  1.0000
  F   F5        1.0  0.08240  0.19900  0.32400  1.0000
  F   F6        1.0  0.37800  0.54500  0.48300  1.0000
  F   F7        1.0  0.62200  0.04540  0.51700  1.0000
  F   F8        1.0  0.91800  0.69900  0.67600  1.0000
  F   F9        1.0  0.04840  0.16400  0.69300  1.0000
  F   F10       1.0  0.45400  0.81000  0.80800  1.0000
  F   F11       1.0  0.58400  0.27700  0.82300  1.0000
  F   F12       1.0  0.87900  0.93100  0.98400  1.0000
  Fe  Fe1       1.0  0.24900  0.48800  0.25000  1.0000
  Fe  Fe2       1.0  0.75100  0.98800  0.75000  1.0000
  Na  Na1       1.0  0.72800  0.55700  0.00434  1.0000
  Na  Na2       1.0  0.74900  0.98800  0.25000  1.0000
  Na  Na3       1.0  0.77100  0.41800  0.49700  1.0000
  Na  Na4       1.0  0.22900  0.91800  0.50300  1.0000
  Na  Na5       1.0  0.25100  0.48800  0.75000  1.0000
  Na  Na6       1.0  0.27200  0.05730  0.99600  1.0000
