data_image0
_chemical_formula_structural       Ce14Pd6
_chemical_formula_sum              "Ce14 Pd6"
_cell_length_a       10.3566
_cell_length_b       10.3567
_cell_length_c       6.54129
_cell_angle_alpha    90
_cell_angle_beta     90
_cell_angle_gamma    120

_space_group_name_H-M_alt    "P 1"
_space_group_IT_number       1

loop_
  _space_group_symop_operation_xyz
  'x, y, z'

loop_
  _atom_site_type_symbol
  _atom_site_label
  _atom_site_symmetry_multiplicity
  _atom_site_fract_x
  _atom_site_fract_y
  _atom_site_fract_z
  _atom_site_occupancy
  Ce  Ce1       1.0  0.33300  0.66700  0.04460  1.0000
  Ce  Ce2       1.0  0.53800  0.46200  0.04560  1.0000
  Ce  Ce3       1.0  0.92400  0.46200  0.04560  1.0000
  Ce  Ce4       1.0  0.53800  0.07630  0.04560  1.0000
  Ce  Ce5       1.0  0.12600  0.87400  0.25200  1.0000
  Ce  Ce6       1.0  0.74900  0.87400  0.25200  1.0000
  Ce  Ce7       1.0  0.12600  0.25100  0.25200  1.0000
  Ce  Ce8       1.0  0.66700  0.33300  0.54500  1.0000
  Ce  Ce9       1.0  0.07630  0.53800  0.54600  1.0000
  Ce  Ce10      1.0  0.46200  0.53800  0.54600  1.0000
  Ce  Ce11      1.0  0.46200  0.92400  0.54600  1.0000
  Ce  Ce12      1.0  0.25100  0.12600  0.75200  1.0000
  Ce  Ce13      1.0  0.87400  0.12600  0.75200  1.0000
  Ce  Ce14      1.0  0.87400  0.74900  0.75200  1.0000
  Pd  Pd1       1.0  0.81100  0.62200  0.30200  1.0000
  Pd  Pd2       1.0  0.37800  0.18900  0.30200  1.0000
  Pd  Pd3       1.0  0.81100  0.18900  0.30200  1.0000
  Pd  Pd4       1.0  0.18900  0.37800  0.80200  1.0000
  Pd  Pd5       1.0  0.18900  0.81100  0.80200  1.0000
  Pd  Pd6       1.0  0.62200  0.81100  0.80200  1.0000
