data_image0
_chemical_formula_structural       Mn12Zn8
_chemical_formula_sum              "Mn12 Zn8"
_cell_length_a       6.47541
_cell_length_b       6.47541
_cell_length_c       6.47541
_cell_angle_alpha    90
_cell_angle_beta     90
_cell_angle_gamma    90

_space_group_name_H-M_alt    "P 1"
_space_group_IT_number       1

loop_
  _space_group_symop_operation_xyz
  'x, y, z'

loop_
  _atom_site_type_symbol
  _atom_site_label
  _atom_site_symmetry_multiplicity
  _atom_site_fract_x
  _atom_site_fract_y
  _atom_site_fract_z
  _atom_site_occupancy
  Mn  Mn1       1.0  0.87500  0.70300  0.04710  1.0000
  Mn  Mn2       1.0  0.20300  0.45300  0.12500  1.0000
  Mn  Mn3       1.0  0.45300  0.12500  0.20300  1.0000
  Mn  Mn4       1.0  0.54700  0.62500  0.29700  1.0000
  Mn  Mn5       1.0  0.79700  0.95300  0.37500  1.0000
  Mn  Mn6       1.0  0.12500  0.20300  0.45300  1.0000
  Mn  Mn7       1.0  0.62500  0.29700  0.54700  1.0000
  Mn  Mn8       1.0  0.29700  0.54700  0.62500  1.0000
  Mn  Mn9       1.0  0.04710  0.87500  0.70300  1.0000
  Mn  Mn10      1.0  0.95300  0.37500  0.79700  1.0000
  Mn  Mn11      1.0  0.70300  0.04710  0.87500  1.0000
  Mn  Mn12      1.0  0.37500  0.79700  0.95300  1.0000
  Zn  Zn1       1.0  0.06070  0.06070  0.06070  1.0000
  Zn  Zn2       1.0  0.81100  0.31100  0.18900  1.0000
  Zn  Zn3       1.0  0.18900  0.81100  0.31100  1.0000
  Zn  Zn4       1.0  0.93900  0.56100  0.43900  1.0000
  Zn  Zn5       1.0  0.43900  0.93900  0.56100  1.0000
  Zn  Zn6       1.0  0.68900  0.68900  0.68900  1.0000
  Zn  Zn7       1.0  0.31100  0.18900  0.81100  1.0000
  Zn  Zn8       1.0  0.56100  0.43900  0.93900  1.0000
