data_image0
_chemical_formula_structural       Cr4La4Se12
_chemical_formula_sum              "Cr4 La4 Se12"
_cell_length_a       8.19119
_cell_length_b       4.00045
_cell_length_c       13.7599
_cell_angle_alpha    90
_cell_angle_beta     90
_cell_angle_gamma    90

_space_group_name_H-M_alt    "P 1"
_space_group_IT_number       1

loop_
  _space_group_symop_operation_xyz
  'x, y, z'

loop_
  _atom_site_type_symbol
  _atom_site_label
  _atom_site_symmetry_multiplicity
  _atom_site_fract_x
  _atom_site_fract_y
  _atom_site_fract_z
  _atom_site_occupancy
  Cr  Cr1       1.0  0.66300  0.75000  0.05200  1.0000
  Cr  Cr2       1.0  0.16300  0.75000  0.44800  1.0000
  Cr  Cr3       1.0  0.83700  0.25000  0.55200  1.0000
  Cr  Cr4       1.0  0.33700  0.25000  0.94800  1.0000
  La  La1       1.0  0.09370  0.25000  0.17100  1.0000
  La  La2       1.0  0.59400  0.25000  0.32900  1.0000
  La  La3       1.0  0.40600  0.75000  0.67100  1.0000
  La  La4       1.0  0.90600  0.75000  0.82900  1.0000
  Se  Se1       1.0  0.15800  0.75000  0.00435  1.0000
  Se  Se2       1.0  0.48800  0.25000  0.10600  1.0000
  Se  Se3       1.0  0.81000  0.75000  0.21300  1.0000
  Se  Se4       1.0  0.31000  0.75000  0.28700  1.0000
  Se  Se5       1.0  0.98800  0.25000  0.39400  1.0000
  Se  Se6       1.0  0.65800  0.75000  0.49600  1.0000
  Se  Se7       1.0  0.34200  0.25000  0.50400  1.0000
  Se  Se8       1.0  0.01170  0.75000  0.60600  1.0000
  Se  Se9       1.0  0.69000  0.25000  0.71300  1.0000
  Se  Se10      1.0  0.19000  0.25000  0.78700  1.0000
  Se  Se11      1.0  0.51200  0.75000  0.89400  1.0000
  Se  Se12      1.0  0.84200  0.25000  0.99600  1.0000
