data_image0
_chemical_formula_structural       C8Ho8Re4
_chemical_formula_sum              "C8 Ho8 Re4"
_cell_length_a       6.55516
_cell_length_b       5.08109
_cell_length_c       9.8188
_cell_angle_alpha    90
_cell_angle_beta     90
_cell_angle_gamma    90

_space_group_name_H-M_alt    "P 1"
_space_group_IT_number       1

loop_
  _space_group_symop_operation_xyz
  'x, y, z'

loop_
  _atom_site_type_symbol
  _atom_site_label
  _atom_site_symmetry_multiplicity
  _atom_site_fract_x
  _atom_site_fract_y
  _atom_site_fract_z
  _atom_site_occupancy
  C   C1        1.0  0.82400  0.75000  0.05130  1.0000
  C   C2        1.0  0.54500  0.25000  0.24100  1.0000
  C   C3        1.0  0.04480  0.25000  0.25900  1.0000
  C   C4        1.0  0.32400  0.75000  0.44900  1.0000
  C   C5        1.0  0.67600  0.25000  0.55100  1.0000
  C   C6        1.0  0.95500  0.75000  0.74100  1.0000
  C   C7        1.0  0.45500  0.75000  0.75900  1.0000
  C   C8        1.0  0.17600  0.25000  0.94900  1.0000
  Ho  Ho1       1.0  0.82000  0.25000  0.05610  1.0000
  Ho  Ho2       1.0  0.53100  0.75000  0.21700  1.0000
  Ho  Ho3       1.0  0.03130  0.75000  0.28300  1.0000
  Ho  Ho4       1.0  0.32000  0.25000  0.44400  1.0000
  Ho  Ho5       1.0  0.68000  0.75000  0.55600  1.0000
  Ho  Ho6       1.0  0.96900  0.25000  0.71700  1.0000
  Ho  Ho7       1.0  0.46900  0.25000  0.78300  1.0000
  Ho  Ho8       1.0  0.18000  0.75000  0.94400  1.0000
  Re  Re1       1.0  0.27800  0.25000  0.13300  1.0000
  Re  Re2       1.0  0.77800  0.25000  0.36700  1.0000
  Re  Re3       1.0  0.22200  0.75000  0.63300  1.0000
  Re  Re4       1.0  0.72200  0.75000  0.86700  1.0000
