data_image0
_chemical_formula_structural       C8Dy8Re4
_chemical_formula_sum              "C8 Dy8 Re4"
_cell_length_a       6.56665
_cell_length_b       5.11383
_cell_length_c       9.85473
_cell_angle_alpha    90
_cell_angle_beta     90
_cell_angle_gamma    90

_space_group_name_H-M_alt    "P 1"
_space_group_IT_number       1

loop_
  _space_group_symop_operation_xyz
  'x, y, z'

loop_
  _atom_site_type_symbol
  _atom_site_label
  _atom_site_symmetry_multiplicity
  _atom_site_fract_x
  _atom_site_fract_y
  _atom_site_fract_z
  _atom_site_occupancy
  C   C1        1.0  0.82400  0.75000  0.05010  1.0000
  C   C2        1.0  0.54500  0.25000  0.24100  1.0000
  C   C3        1.0  0.04540  0.25000  0.25900  1.0000
  C   C4        1.0  0.32400  0.75000  0.45000  1.0000
  C   C5        1.0  0.67600  0.25000  0.55000  1.0000
  C   C6        1.0  0.95500  0.75000  0.74100  1.0000
  C   C7        1.0  0.45500  0.75000  0.75900  1.0000
  C   C8        1.0  0.17600  0.25000  0.95000  1.0000
  Dy  Dy1       1.0  0.81900  0.25000  0.05560  1.0000
  Dy  Dy2       1.0  0.53200  0.75000  0.21600  1.0000
  Dy  Dy3       1.0  0.03180  0.75000  0.28400  1.0000
  Dy  Dy4       1.0  0.31900  0.25000  0.44400  1.0000
  Dy  Dy5       1.0  0.68100  0.75000  0.55600  1.0000
  Dy  Dy6       1.0  0.96800  0.25000  0.71600  1.0000
  Dy  Dy7       1.0  0.46800  0.25000  0.78400  1.0000
  Dy  Dy8       1.0  0.18100  0.75000  0.94400  1.0000
  Re  Re1       1.0  0.27900  0.25000  0.13400  1.0000
  Re  Re2       1.0  0.77900  0.25000  0.36600  1.0000
  Re  Re3       1.0  0.22100  0.75000  0.63400  1.0000
  Re  Re4       1.0  0.72100  0.75000  0.86600  1.0000
