data_image0
_chemical_formula_structural       Ge10Ru6Tb4
_chemical_formula_sum              "Ge10 Ru6 Tb4"
_cell_length_a       5.78764
_cell_length_b       8.4746
_cell_length_c       8.4746
_cell_angle_alpha    94.9909
_cell_angle_beta     109.966
_cell_angle_gamma    109.966

_space_group_name_H-M_alt    "P 1"
_space_group_IT_number       1

loop_
  _space_group_symop_operation_xyz
  'x, y, z'

loop_
  _atom_site_type_symbol
  _atom_site_label
  _atom_site_symmetry_multiplicity
  _atom_site_fract_x
  _atom_site_fract_y
  _atom_site_fract_z
  _atom_site_occupancy
  Ge  Ge1       1.0  0.17500  0.26400  0.08580  1.0000
  Ge  Ge2       1.0  0.25000  0.79200  0.20800  1.0000
  Ge  Ge3       1.0  0.75000  0.79200  0.20800  1.0000
  Ge  Ge4       1.0  0.67500  0.08580  0.26400  1.0000
  Ge  Ge5       1.0  0.25000  0.50000  0.50000  1.0000
  Ge  Ge6       1.0  0.75000  0.50000  0.50000  1.0000
  Ge  Ge7       1.0  0.32500  0.91400  0.73600  1.0000
  Ge  Ge8       1.0  0.25000  0.20800  0.79200  1.0000
  Ge  Ge9       1.0  0.75000  0.20800  0.79200  1.0000
  Ge  Ge10      1.0  0.82500  0.73600  0.91400  1.0000
  Ru  Ru1       1.0  0.25000  0.00000  0.00000  1.0000
  Ru  Ru2       1.0  0.75000  0.00000  0.00000  1.0000
  Ru  Ru3       1.0  0.40800  0.55500  0.26100  1.0000
  Ru  Ru4       1.0  0.09180  0.73900  0.44500  1.0000
  Ru  Ru5       1.0  0.90800  0.26100  0.55500  1.0000
  Ru  Ru6       1.0  0.59200  0.44500  0.73900  1.0000
  Tb  Tb1       1.0  0.76800  0.40600  0.13000  1.0000
  Tb  Tb2       1.0  0.26800  0.13000  0.40600  1.0000
  Tb  Tb3       1.0  0.73200  0.87000  0.59400  1.0000
  Tb  Tb4       1.0  0.23200  0.59400  0.87000  1.0000
