data_image0
_chemical_formula_structural       F12Mn4Na4
_chemical_formula_sum              "F12 Mn4 Na4"
_cell_length_a       5.66605
_cell_length_b       7.79019
_cell_length_c       5.37678
_cell_angle_alpha    90
_cell_angle_beta     90
_cell_angle_gamma    90

_space_group_name_H-M_alt    "P 1"
_space_group_IT_number       1

loop_
  _space_group_symop_operation_xyz
  'x, y, z'

loop_
  _atom_site_type_symbol
  _atom_site_label
  _atom_site_symmetry_multiplicity
  _atom_site_fract_x
  _atom_site_fract_y
  _atom_site_fract_z
  _atom_site_occupancy
  F   F1        1.0  0.44000  0.25000  0.13300  1.0000
  F   F2        1.0  0.19100  0.56800  0.18300  1.0000
  F   F3        1.0  0.19100  0.93200  0.18300  1.0000
  F   F4        1.0  0.69100  0.56800  0.31700  1.0000
  F   F5        1.0  0.69100  0.93200  0.31700  1.0000
  F   F6        1.0  0.94000  0.25000  0.36700  1.0000
  F   F7        1.0  0.05960  0.75000  0.63300  1.0000
  F   F8        1.0  0.30900  0.06760  0.68300  1.0000
  F   F9        1.0  0.30900  0.43200  0.68300  1.0000
  F   F10       1.0  0.80900  0.06760  0.81700  1.0000
  F   F11       1.0  0.80900  0.43200  0.81700  1.0000
  F   F12       1.0  0.56000  0.75000  0.86700  1.0000
  Mn  Mn1       1.0  0.50000  0.00000  0.00000  1.0000
  Mn  Mn2       1.0  0.50000  0.50000  0.00000  1.0000
  Mn  Mn3       1.0  0.00000  0.00000  0.50000  1.0000
  Mn  Mn4       1.0  0.00000  0.50000  0.50000  1.0000
  Na  Na1       1.0  0.93100  0.75000  0.02000  1.0000
  Na  Na2       1.0  0.43100  0.75000  0.48000  1.0000
  Na  Na3       1.0  0.56900  0.25000  0.52000  1.0000
  Na  Na4       1.0  0.06920  0.25000  0.98000  1.0000
