data_image0
_chemical_formula_structural       Li2Nd4O12Os2
_chemical_formula_sum              "Li2 Nd4 O12 Os2"
_cell_length_a       5.41799
_cell_length_b       5.75442
_cell_length_c       7.72324
_cell_angle_alpha    90
_cell_angle_beta     90.5355
_cell_angle_gamma    90

_space_group_name_H-M_alt    "P 1"
_space_group_IT_number       1

loop_
  _space_group_symop_operation_xyz
  'x, y, z'

loop_
  _atom_site_type_symbol
  _atom_site_label
  _atom_site_symmetry_multiplicity
  _atom_site_fract_x
  _atom_site_fract_y
  _atom_site_fract_z
  _atom_site_occupancy
  Li  Li1       1.0  0.00000  0.00000  0.00000  1.0000
  Li  Li2       1.0  0.50000  0.50000  0.50000  1.0000
  Nd  Nd1       1.0  0.01630  0.56900  0.24900  1.0000
  Nd  Nd2       1.0  0.48400  0.06870  0.25100  1.0000
  Nd  Nd3       1.0  0.51600  0.93100  0.74900  1.0000
  Nd  Nd4       1.0  0.98400  0.43100  0.75100  1.0000
  O   O1        1.0  0.20300  0.31000  0.04700  1.0000
  O   O2        1.0  0.31600  0.79000  0.05120  1.0000
  O   O3        1.0  0.59600  0.47100  0.24600  1.0000
  O   O4        1.0  0.90400  0.97100  0.25400  1.0000
  O   O5        1.0  0.18400  0.29000  0.44900  1.0000
  O   O6        1.0  0.29700  0.81000  0.45300  1.0000
  O   O7        1.0  0.70300  0.19000  0.54700  1.0000
  O   O8        1.0  0.81600  0.71000  0.55100  1.0000
  O   O9        1.0  0.09600  0.02910  0.74600  1.0000
  O   O10       1.0  0.40400  0.52900  0.75400  1.0000
  O   O11       1.0  0.68400  0.21000  0.94900  1.0000
  O   O12       1.0  0.79700  0.69000  0.95300  1.0000
  Os  Os1       1.0  0.50000  0.50000  1.00000  1.0000
  Os  Os2       1.0  1.00000  0.00000  0.50000  1.0000
