data_image0
_chemical_formula_structural       Au16Zr4
_chemical_formula_sum              "Au16 Zr4"
_cell_length_a       5.06841
_cell_length_b       4.91021
_cell_length_c       14.4923
_cell_angle_alpha    90
_cell_angle_beta     90
_cell_angle_gamma    90

_space_group_name_H-M_alt    "P 1"
_space_group_IT_number       1

loop_
  _space_group_symop_operation_xyz
  'x, y, z'

loop_
  _atom_site_type_symbol
  _atom_site_label
  _atom_site_symmetry_multiplicity
  _atom_site_fract_x
  _atom_site_fract_y
  _atom_site_fract_z
  _atom_site_occupancy
  Au  Au1       1.0  0.16300  0.25000  0.00020  1.0000
  Au  Au2       1.0  0.34000  0.75000  0.10100  1.0000
  Au  Au3       1.0  0.82700  0.75000  0.19700  1.0000
  Au  Au4       1.0  0.16000  0.25000  0.20100  1.0000
  Au  Au5       1.0  0.66000  0.25000  0.29900  1.0000
  Au  Au6       1.0  0.32700  0.75000  0.30300  1.0000
  Au  Au7       1.0  0.84000  0.75000  0.39900  1.0000
  Au  Au8       1.0  0.66300  0.25000  0.50000  1.0000
  Au  Au9       1.0  0.33700  0.75000  0.50000  1.0000
  Au  Au10      1.0  0.16000  0.25000  0.60100  1.0000
  Au  Au11      1.0  0.67300  0.25000  0.69700  1.0000
  Au  Au12      1.0  0.34000  0.75000  0.70100  1.0000
  Au  Au13      1.0  0.84000  0.75000  0.79900  1.0000
  Au  Au14      1.0  0.17300  0.25000  0.80300  1.0000
  Au  Au15      1.0  0.66000  0.25000  0.89900  1.0000
  Au  Au16      1.0  0.83700  0.75000  0.00000  1.0000
  Zr  Zr1       1.0  0.65800  0.25000  0.09800  1.0000
  Zr  Zr2       1.0  0.15800  0.25000  0.40200  1.0000
  Zr  Zr3       1.0  0.84200  0.75000  0.59800  1.0000
  Zr  Zr4       1.0  0.34200  0.75000  0.90200  1.0000
