data_image0
_chemical_formula_structural       C8Gd8Re4
_chemical_formula_sum              "C8 Gd8 Re4"
_cell_length_a       6.61691
_cell_length_b       5.18021
_cell_length_c       9.95196
_cell_angle_alpha    90
_cell_angle_beta     90
_cell_angle_gamma    90

_space_group_name_H-M_alt    "P 1"
_space_group_IT_number       1

loop_
  _space_group_symop_operation_xyz
  'x, y, z'

loop_
  _atom_site_type_symbol
  _atom_site_label
  _atom_site_symmetry_multiplicity
  _atom_site_fract_x
  _atom_site_fract_y
  _atom_site_fract_z
  _atom_site_occupancy
  C   C1        1.0  0.82000  0.75000  0.04680  1.0000
  C   C2        1.0  0.54100  0.25000  0.24100  1.0000
  C   C3        1.0  0.04120  0.25000  0.25900  1.0000
  C   C4        1.0  0.32000  0.75000  0.45300  1.0000
  C   C5        1.0  0.68000  0.25000  0.54700  1.0000
  C   C6        1.0  0.95900  0.75000  0.74100  1.0000
  C   C7        1.0  0.45900  0.75000  0.75900  1.0000
  C   C8        1.0  0.18000  0.25000  0.95300  1.0000
  Gd  Gd1       1.0  0.81700  0.25000  0.05420  1.0000
  Gd  Gd2       1.0  0.52900  0.75000  0.21500  1.0000
  Gd  Gd3       1.0  0.02940  0.75000  0.28500  1.0000
  Gd  Gd4       1.0  0.31700  0.25000  0.44600  1.0000
  Gd  Gd5       1.0  0.68300  0.75000  0.55400  1.0000
  Gd  Gd6       1.0  0.97100  0.25000  0.71500  1.0000
  Gd  Gd7       1.0  0.47100  0.25000  0.78500  1.0000
  Gd  Gd8       1.0  0.18300  0.75000  0.94600  1.0000
  Re  Re1       1.0  0.27600  0.25000  0.13600  1.0000
  Re  Re2       1.0  0.77600  0.25000  0.36400  1.0000
  Re  Re3       1.0  0.22400  0.75000  0.63600  1.0000
  Re  Re4       1.0  0.72400  0.75000  0.86400  1.0000
