data_image0
_chemical_formula_structural       C8Nd8Re4
_chemical_formula_sum              "C8 Nd8 Re4"
_cell_length_a       6.71657
_cell_length_b       5.35083
_cell_length_c       10.2004
_cell_angle_alpha    90
_cell_angle_beta     90
_cell_angle_gamma    90

_space_group_name_H-M_alt    "P 1"
_space_group_IT_number       1

loop_
  _space_group_symop_operation_xyz
  'x, y, z'

loop_
  _atom_site_type_symbol
  _atom_site_label
  _atom_site_symmetry_multiplicity
  _atom_site_fract_x
  _atom_site_fract_y
  _atom_site_fract_z
  _atom_site_occupancy
  C   C1        1.0  0.81400  0.75000  0.03840  1.0000
  C   C2        1.0  0.53300  0.25000  0.24200  1.0000
  C   C3        1.0  0.03300  0.25000  0.25800  1.0000
  C   C4        1.0  0.31400  0.75000  0.46200  1.0000
  C   C5        1.0  0.68600  0.25000  0.53800  1.0000
  C   C6        1.0  0.96700  0.75000  0.74200  1.0000
  C   C7        1.0  0.46700  0.75000  0.75800  1.0000
  C   C8        1.0  0.18600  0.25000  0.96200  1.0000
  Nd  Nd1       1.0  0.81100  0.25000  0.05080  1.0000
  Nd  Nd2       1.0  0.52500  0.75000  0.21400  1.0000
  Nd  Nd3       1.0  0.02540  0.75000  0.28600  1.0000
  Nd  Nd4       1.0  0.31100  0.25000  0.44900  1.0000
  Nd  Nd5       1.0  0.68900  0.75000  0.55100  1.0000
  Nd  Nd6       1.0  0.97500  0.25000  0.71400  1.0000
  Nd  Nd7       1.0  0.47500  0.25000  0.78600  1.0000
  Nd  Nd8       1.0  0.18900  0.75000  0.94900  1.0000
  Re  Re1       1.0  0.26900  0.25000  0.14200  1.0000
  Re  Re2       1.0  0.76900  0.25000  0.35800  1.0000
  Re  Re3       1.0  0.23100  0.75000  0.64200  1.0000
  Re  Re4       1.0  0.73100  0.75000  0.85800  1.0000
