data_image0
_chemical_formula_structural       Dy4Ge10Ru6
_chemical_formula_sum              "Dy4 Ge10 Ru6"
_cell_length_a       5.7713
_cell_length_b       8.47247
_cell_length_c       8.47247
_cell_angle_alpha    95.1608
_cell_angle_beta     109.913
_cell_angle_gamma    109.913

_space_group_name_H-M_alt    "P 1"
_space_group_IT_number       1

loop_
  _space_group_symop_operation_xyz
  'x, y, z'

loop_
  _atom_site_type_symbol
  _atom_site_label
  _atom_site_symmetry_multiplicity
  _atom_site_fract_x
  _atom_site_fract_y
  _atom_site_fract_z
  _atom_site_occupancy
  Dy  Dy1       1.0  0.76900  0.40800  0.12900  1.0000
  Dy  Dy2       1.0  0.26900  0.12900  0.40800  1.0000
  Dy  Dy3       1.0  0.73100  0.87100  0.59200  1.0000
  Dy  Dy4       1.0  0.23100  0.59200  0.87100  1.0000
  Ge  Ge1       1.0  0.17600  0.26400  0.08870  1.0000
  Ge  Ge2       1.0  0.25000  0.79300  0.20700  1.0000
  Ge  Ge3       1.0  0.75000  0.79300  0.20700  1.0000
  Ge  Ge4       1.0  0.67600  0.08870  0.26400  1.0000
  Ge  Ge5       1.0  0.25000  0.50000  0.50000  1.0000
  Ge  Ge6       1.0  0.75000  0.50000  0.50000  1.0000
  Ge  Ge7       1.0  0.32400  0.91100  0.73600  1.0000
  Ge  Ge8       1.0  0.25000  0.20700  0.79300  1.0000
  Ge  Ge9       1.0  0.75000  0.20700  0.79300  1.0000
  Ge  Ge10      1.0  0.82400  0.73600  0.91100  1.0000
  Ru  Ru1       1.0  0.25000  0.00000  0.00000  1.0000
  Ru  Ru2       1.0  0.75000  0.00000  0.00000  1.0000
  Ru  Ru3       1.0  0.40900  0.55700  0.26100  1.0000
  Ru  Ru4       1.0  0.09080  0.73900  0.44300  1.0000
  Ru  Ru5       1.0  0.90900  0.26100  0.55700  1.0000
  Ru  Ru6       1.0  0.59100  0.44300  0.73900  1.0000
