data_image0
_chemical_formula_structural       Cl2K2O6
_chemical_formula_sum              "Cl2 K2 O6"
_cell_length_a       4.57655
_cell_length_b       5.53119
_cell_length_c       6.86422
_cell_angle_alpha    90
_cell_angle_beta     107.958
_cell_angle_gamma    90

_space_group_name_H-M_alt    "P 1"
_space_group_IT_number       1

loop_
  _space_group_symop_operation_xyz
  'x, y, z'

loop_
  _atom_site_type_symbol
  _atom_site_label
  _atom_site_symmetry_multiplicity
  _atom_site_fract_x
  _atom_site_fract_y
  _atom_site_fract_z
  _atom_site_occupancy
  Cl  Cl1       1.0  0.05490  0.25000  0.17400  1.0000
  Cl  Cl2       1.0  0.94500  0.75000  0.82600  1.0000
  K   K1        1.0  0.64600  0.75000  0.29100  1.0000
  K   K2        1.0  0.35400  0.25000  0.70900  1.0000
  O   O1        1.0  0.71000  0.25000  0.11200  1.0000
  O   O2        1.0  0.16200  0.03200  0.30700  1.0000
  O   O3        1.0  0.16200  0.46800  0.30700  1.0000
  O   O4        1.0  0.83800  0.53200  0.69300  1.0000
  O   O5        1.0  0.83800  0.96800  0.69300  1.0000
  O   O6        1.0  0.29000  0.75000  0.88800  1.0000
