data_image0
_chemical_formula_structural       B4Pr4S12
_chemical_formula_sum              "B4 Pr4 S12"
_cell_length_a       7.69135
_cell_length_b       6.02225
_cell_length_c       8.99475
_cell_angle_alpha    90
_cell_angle_beta     90
_cell_angle_gamma    90

_space_group_name_H-M_alt    "P 1"
_space_group_IT_number       1

loop_
  _space_group_symop_operation_xyz
  'x, y, z'

loop_
  _atom_site_type_symbol
  _atom_site_label
  _atom_site_symmetry_multiplicity
  _atom_site_fract_x
  _atom_site_fract_y
  _atom_site_fract_z
  _atom_site_occupancy
  B   B1        1.0  0.64600  0.09630  0.10400  1.0000
  B   B2        1.0  0.14600  0.40400  0.10400  1.0000
  B   B3        1.0  0.85400  0.59600  0.60400  1.0000
  B   B4        1.0  0.35400  0.90400  0.60400  1.0000
  Pr  Pr1       1.0  0.88600  0.07070  0.43300  1.0000
  Pr  Pr2       1.0  0.38600  0.42900  0.43300  1.0000
  Pr  Pr3       1.0  0.61400  0.57100  0.93300  1.0000
  Pr  Pr4       1.0  0.11400  0.92900  0.93300  1.0000
  S   S1        1.0  0.29700  0.63400  0.13500  1.0000
  S   S2        1.0  0.79700  0.86600  0.13500  1.0000
  S   S3        1.0  0.17200  0.16500  0.22700  1.0000
  S   S4        1.0  0.67200  0.33500  0.22700  1.0000
  S   S5        1.0  0.99800  0.59500  0.44600  1.0000
  S   S6        1.0  0.49800  0.90500  0.44600  1.0000
  S   S7        1.0  0.20300  0.13400  0.63500  1.0000
  S   S8        1.0  0.70300  0.36600  0.63500  1.0000
  S   S9        1.0  0.32800  0.66500  0.72700  1.0000
  S   S10       1.0  0.82800  0.83500  0.72700  1.0000
  S   S11       1.0  0.50200  0.09550  0.94600  1.0000
  S   S12       1.0  0.00196  0.40500  0.94600  1.0000
