data_image0
_chemical_formula_structural       Rh4S12U4
_chemical_formula_sum              "Rh4 S12 U4"
_cell_length_a       7.09413
_cell_length_b       8.4353
_cell_length_c       6.0447
_cell_angle_alpha    90
_cell_angle_beta     90
_cell_angle_gamma    90

_space_group_name_H-M_alt    "P 1"
_space_group_IT_number       1

loop_
  _space_group_symop_operation_xyz
  'x, y, z'

loop_
  _atom_site_type_symbol
  _atom_site_label
  _atom_site_symmetry_multiplicity
  _atom_site_fract_x
  _atom_site_fract_y
  _atom_site_fract_z
  _atom_site_occupancy
  Rh  Rh1       1.0  0.00000  0.00000  0.00000  1.0000
  Rh  Rh2       1.0  0.00000  0.50000  0.00000  1.0000
  Rh  Rh3       1.0  0.50000  0.00000  0.50000  1.0000
  Rh  Rh4       1.0  0.50000  0.50000  0.50000  1.0000
  S   S1        1.0  0.32100  0.55400  0.15600  1.0000
  S   S2        1.0  0.32100  0.94600  0.15600  1.0000
  S   S3        1.0  0.05810  0.25000  0.16800  1.0000
  S   S4        1.0  0.55800  0.25000  0.33200  1.0000
  S   S5        1.0  0.82100  0.55400  0.34400  1.0000
  S   S6        1.0  0.82100  0.94600  0.34400  1.0000
  S   S7        1.0  0.17900  0.05440  0.65600  1.0000
  S   S8        1.0  0.17900  0.44600  0.65600  1.0000
  S   S9        1.0  0.44200  0.75000  0.66800  1.0000
  S   S10       1.0  0.94200  0.75000  0.83200  1.0000
  S   S11       1.0  0.67900  0.05440  0.84400  1.0000
  S   S12       1.0  0.67900  0.44600  0.84400  1.0000
  U   U1        1.0  0.62600  0.75000  0.06570  1.0000
  U   U2        1.0  0.12600  0.75000  0.43400  1.0000
  U   U3        1.0  0.87400  0.25000  0.56600  1.0000
  U   U4        1.0  0.37400  0.25000  0.93400  1.0000
