data_image0
_chemical_formula_structural       Ge10Pr4Rh6
_chemical_formula_sum              "Ge10 Pr4 Rh6"
_cell_length_a       6.08972
_cell_length_b       8.49282
_cell_length_c       8.49282
_cell_angle_alpha    91.2924
_cell_angle_beta     111.009
_cell_angle_gamma    111.009

_space_group_name_H-M_alt    "P 1"
_space_group_IT_number       1

loop_
  _space_group_symop_operation_xyz
  'x, y, z'

loop_
  _atom_site_type_symbol
  _atom_site_label
  _atom_site_symmetry_multiplicity
  _atom_site_fract_x
  _atom_site_fract_y
  _atom_site_fract_z
  _atom_site_occupancy
  Ge  Ge1       1.0  0.15900  0.26000  0.05930  1.0000
  Ge  Ge2       1.0  0.25000  0.77600  0.22400  1.0000
  Ge  Ge3       1.0  0.75000  0.77600  0.22400  1.0000
  Ge  Ge4       1.0  0.65900  0.05930  0.26000  1.0000
  Ge  Ge5       1.0  0.25000  0.50000  0.50000  1.0000
  Ge  Ge6       1.0  0.75000  0.50000  0.50000  1.0000
  Ge  Ge7       1.0  0.34100  0.94100  0.74000  1.0000
  Ge  Ge8       1.0  0.25000  0.22400  0.77600  1.0000
  Ge  Ge9       1.0  0.75000  0.22400  0.77600  1.0000
  Ge  Ge10      1.0  0.84100  0.74000  0.94100  1.0000
  Pr  Pr1       1.0  0.76800  0.40000  0.13500  1.0000
  Pr  Pr2       1.0  0.26800  0.13500  0.40000  1.0000
  Pr  Pr3       1.0  0.73200  0.86500  0.60000  1.0000
  Pr  Pr4       1.0  0.23200  0.60000  0.86500  1.0000
  Rh  Rh1       1.0  0.25000  0.00000  0.00000  1.0000
  Rh  Rh2       1.0  0.75000  0.00000  0.00000  1.0000
  Rh  Rh3       1.0  0.39300  0.53400  0.25300  1.0000
  Rh  Rh4       1.0  0.10700  0.74700  0.46600  1.0000
  Rh  Rh5       1.0  0.89300  0.25300  0.53400  1.0000
  Rh  Rh6       1.0  0.60700  0.46600  0.74700  1.0000
