data_image0
_chemical_formula_structural       B6Re14
_chemical_formula_sum              "B6 Re14"
_cell_length_a       7.53427
_cell_length_b       7.53428
_cell_length_c       4.90898
_cell_angle_alpha    90
_cell_angle_beta     90
_cell_angle_gamma    120

_space_group_name_H-M_alt    "P 1"
_space_group_IT_number       1

loop_
  _space_group_symop_operation_xyz
  'x, y, z'

loop_
  _atom_site_type_symbol
  _atom_site_label
  _atom_site_symmetry_multiplicity
  _atom_site_fract_x
  _atom_site_fract_y
  _atom_site_fract_z
  _atom_site_occupancy
  B   B1        1.0  0.81000  0.62100  0.34000  1.0000
  B   B2        1.0  0.37900  0.19000  0.34000  1.0000
  B   B3        1.0  0.81000  0.19000  0.34000  1.0000
  B   B4        1.0  0.19000  0.37900  0.84000  1.0000
  B   B5        1.0  0.19000  0.81000  0.84000  1.0000
  B   B6        1.0  0.62100  0.81000  0.84000  1.0000
  Re  Re1       1.0  0.54600  0.09170  0.04910  1.0000
  Re  Re2       1.0  0.54600  0.45400  0.04910  1.0000
  Re  Re3       1.0  0.90800  0.45400  0.04910  1.0000
  Re  Re4       1.0  0.33300  0.66700  0.08640  1.0000
  Re  Re5       1.0  0.12300  0.24500  0.25200  1.0000
  Re  Re6       1.0  0.12300  0.87700  0.25200  1.0000
  Re  Re7       1.0  0.75500  0.87700  0.25200  1.0000
  Re  Re8       1.0  0.45400  0.90800  0.54900  1.0000
  Re  Re9       1.0  0.09170  0.54600  0.54900  1.0000
  Re  Re10      1.0  0.45400  0.54600  0.54900  1.0000
  Re  Re11      1.0  0.66700  0.33300  0.58600  1.0000
  Re  Re12      1.0  0.24500  0.12300  0.75200  1.0000
  Re  Re13      1.0  0.87700  0.12300  0.75200  1.0000
  Re  Re14      1.0  0.87700  0.75500  0.75200  1.0000
