data_image0
_chemical_formula_structural       K4O12P4
_chemical_formula_sum              "K4 O12 P4"
_cell_length_a       12.1892
_cell_length_b       4.44587
_cell_length_c       5.70612
_cell_angle_alpha    90
_cell_angle_beta     90
_cell_angle_gamma    90

_space_group_name_H-M_alt    "P 1"
_space_group_IT_number       1

loop_
  _space_group_symop_operation_xyz
  'x, y, z'

loop_
  _atom_site_type_symbol
  _atom_site_label
  _atom_site_symmetry_multiplicity
  _atom_site_fract_x
  _atom_site_fract_y
  _atom_site_fract_z
  _atom_site_occupancy
  K   K1        1.0  0.09520  0.26400  0.25000  1.0000
  K   K2        1.0  0.40500  0.76400  0.25000  1.0000
  K   K3        1.0  0.59500  0.23600  0.75000  1.0000
  K   K4        1.0  0.90500  0.73600  0.75000  1.0000
  O   O1        1.0  0.88700  0.24700  0.02340  1.0000
  O   O2        1.0  0.61300  0.74700  0.02340  1.0000
  O   O3        1.0  0.70700  0.33300  0.25000  1.0000
  O   O4        1.0  0.79300  0.83300  0.25000  1.0000
  O   O5        1.0  0.88700  0.24700  0.47700  1.0000
  O   O6        1.0  0.61300  0.74700  0.47700  1.0000
  O   O7        1.0  0.38700  0.25300  0.52300  1.0000
  O   O8        1.0  0.11300  0.75300  0.52300  1.0000
  O   O9        1.0  0.20700  0.16700  0.75000  1.0000
  O   O10       1.0  0.29300  0.66700  0.75000  1.0000
  O   O11       1.0  0.38700  0.25300  0.97700  1.0000
  O   O12       1.0  0.11300  0.75300  0.97700  1.0000
  P   P1        1.0  0.82900  0.18600  0.25000  1.0000
  P   P2        1.0  0.67100  0.68600  0.25000  1.0000
  P   P3        1.0  0.32900  0.31400  0.75000  1.0000
  P   P4        1.0  0.17100  0.81400  0.75000  1.0000
