data_image0
_chemical_formula_structural       Ce2S12Y6
_chemical_formula_sum              "Ce2 S12 Y6"
_cell_length_a       11.391
_cell_length_b       11.1259
_cell_length_c       4.01458
_cell_angle_alpha    90
_cell_angle_beta     90
_cell_angle_gamma    108.71

_space_group_name_H-M_alt    "P 1"
_space_group_IT_number       1

loop_
  _space_group_symop_operation_xyz
  'x, y, z'

loop_
  _atom_site_type_symbol
  _atom_site_label
  _atom_site_symmetry_multiplicity
  _atom_site_fract_x
  _atom_site_fract_y
  _atom_site_fract_z
  _atom_site_occupancy
  Ce  Ce1       1.0  0.19500  0.55000  0.25000  1.0000
  Ce  Ce2       1.0  0.80500  0.45000  0.75000  1.0000
  S   S1        1.0  0.77100  0.23300  0.25000  1.0000
  S   S2        1.0  0.25100  0.30300  0.25000  1.0000
  S   S3        1.0  0.59400  0.41700  0.25000  1.0000
  S   S4        1.0  0.96400  0.61900  0.25000  1.0000
  S   S5        1.0  0.55700  0.89400  0.25000  1.0000
  S   S6        1.0  0.11100  0.97900  0.25000  1.0000
  S   S7        1.0  0.88900  0.02130  0.75000  1.0000
  S   S8        1.0  0.44300  0.10600  0.75000  1.0000
  S   S9        1.0  0.03630  0.38100  0.75000  1.0000
  S   S10       1.0  0.40600  0.58300  0.75000  1.0000
  S   S11       1.0  0.74900  0.69700  0.75000  1.0000
  S   S12       1.0  0.22900  0.76700  0.75000  1.0000
  Y   Y1        1.0  0.00098  0.18000  0.25000  1.0000
  Y   Y2        1.0  0.58700  0.66100  0.25000  1.0000
  Y   Y3        1.0  0.33300  0.94300  0.25000  1.0000
  Y   Y4        1.0  0.66700  0.05700  0.75000  1.0000
  Y   Y5        1.0  0.41300  0.33900  0.75000  1.0000
  Y   Y6        1.0  0.99900  0.82000  0.75000  1.0000
