data_image0
_chemical_formula_structural       Cu16Ti4
_chemical_formula_sum              "Cu16 Ti4"
_cell_length_a       4.50226
_cell_length_b       4.32548
_cell_length_c       12.8843
_cell_angle_alpha    90
_cell_angle_beta     90
_cell_angle_gamma    90

_space_group_name_H-M_alt    "P 1"
_space_group_IT_number       1

loop_
  _space_group_symop_operation_xyz
  'x, y, z'

loop_
  _atom_site_type_symbol
  _atom_site_label
  _atom_site_symmetry_multiplicity
  _atom_site_fract_x
  _atom_site_fract_y
  _atom_site_fract_z
  _atom_site_occupancy
  Cu  Cu1       1.0  0.84000  0.75000  0.00297  1.0000
  Cu  Cu2       1.0  0.32300  0.75000  0.10400  1.0000
  Cu  Cu3       1.0  0.15200  0.25000  0.20100  1.0000
  Cu  Cu4       1.0  0.82700  0.75000  0.20100  1.0000
  Cu  Cu5       1.0  0.32700  0.75000  0.29900  1.0000
  Cu  Cu6       1.0  0.65200  0.25000  0.29900  1.0000
  Cu  Cu7       1.0  0.82300  0.75000  0.39600  1.0000
  Cu  Cu8       1.0  0.34000  0.75000  0.49700  1.0000
  Cu  Cu9       1.0  0.66000  0.25000  0.50300  1.0000
  Cu  Cu10      1.0  0.17700  0.25000  0.60400  1.0000
  Cu  Cu11      1.0  0.34800  0.75000  0.70100  1.0000
  Cu  Cu12      1.0  0.67300  0.25000  0.70100  1.0000
  Cu  Cu13      1.0  0.17300  0.25000  0.79900  1.0000
  Cu  Cu14      1.0  0.84800  0.75000  0.79900  1.0000
  Cu  Cu15      1.0  0.67700  0.25000  0.89600  1.0000
  Cu  Cu16      1.0  0.16000  0.25000  0.99700  1.0000
  Ti  Ti1       1.0  0.65300  0.25000  0.09680  1.0000
  Ti  Ti2       1.0  0.15300  0.25000  0.40300  1.0000
  Ti  Ti3       1.0  0.84700  0.75000  0.59700  1.0000
  Ti  Ti4       1.0  0.34700  0.75000  0.90300  1.0000
