data_image0
_chemical_formula_structural       Cr2Hg2O12Pb4
_chemical_formula_sum              "Cr2 Hg2 O12 Pb4"
_cell_length_a       6.50277
_cell_length_b       7.17591
_cell_length_c       7.56855
_cell_angle_alpha    91.2908
_cell_angle_beta     92.2254
_cell_angle_gamma    111.841

_space_group_name_H-M_alt    "P 1"
_space_group_IT_number       1

loop_
  _space_group_symop_operation_xyz
  'x, y, z'

loop_
  _atom_site_type_symbol
  _atom_site_label
  _atom_site_symmetry_multiplicity
  _atom_site_fract_x
  _atom_site_fract_y
  _atom_site_fract_z
  _atom_site_occupancy
  Cr  Cr1       1.0  0.70800  0.77000  0.14500  1.0000
  Cr  Cr2       1.0  0.29200  0.23000  0.85500  1.0000
  Hg  Hg1       1.0  0.31000  0.29500  0.36600  1.0000
  Hg  Hg2       1.0  0.69000  0.70500  0.63400  1.0000
  O   O1        1.0  0.31500  0.11900  0.04070  1.0000
  O   O2        1.0  0.84800  0.61600  0.11800  1.0000
  O   O3        1.0  0.45300  0.64800  0.21100  1.0000
  O   O4        1.0  0.84900  0.94800  0.29600  1.0000
  O   O5        1.0  0.05090  0.39100  0.36600  1.0000
  O   O6        1.0  0.57600  0.21400  0.37500  1.0000
  O   O7        1.0  0.42400  0.78600  0.62500  1.0000
  O   O8        1.0  0.94900  0.60900  0.63400  1.0000
  O   O9        1.0  0.15100  0.05170  0.70400  1.0000
  O   O10       1.0  0.54700  0.35200  0.78900  1.0000
  O   O11       1.0  0.15200  0.38400  0.88200  1.0000
  O   O12       1.0  0.68500  0.88100  0.95900  1.0000
  Pb  Pb1       1.0  0.77800  0.25600  0.13000  1.0000
  Pb  Pb2       1.0  0.18200  0.75300  0.39100  1.0000
  Pb  Pb3       1.0  0.81800  0.24700  0.60900  1.0000
  Pb  Pb4       1.0  0.22200  0.74400  0.87000  1.0000
