data_image0
_chemical_formula_structural       Er14Rh6
_chemical_formula_sum              "Er14 Rh6"
_cell_length_a       9.71101
_cell_length_b       9.711
_cell_length_c       6.07982
_cell_angle_alpha    90
_cell_angle_beta     90
_cell_angle_gamma    120

_space_group_name_H-M_alt    "P 1"
_space_group_IT_number       1

loop_
  _space_group_symop_operation_xyz
  'x, y, z'

loop_
  _atom_site_type_symbol
  _atom_site_label
  _atom_site_symmetry_multiplicity
  _atom_site_fract_x
  _atom_site_fract_y
  _atom_site_fract_z
  _atom_site_occupancy
  Er  Er1       1.0  0.33300  0.66700  0.03520  1.0000
  Er  Er2       1.0  0.54100  0.45900  0.04570  1.0000
  Er  Er3       1.0  0.91700  0.45900  0.04570  1.0000
  Er  Er4       1.0  0.54100  0.08270  0.04570  1.0000
  Er  Er5       1.0  0.12400  0.87600  0.24700  1.0000
  Er  Er6       1.0  0.75200  0.87600  0.24700  1.0000
  Er  Er7       1.0  0.12400  0.24800  0.24700  1.0000
  Er  Er8       1.0  0.66700  0.33300  0.53500  1.0000
  Er  Er9       1.0  0.08270  0.54100  0.54600  1.0000
  Er  Er10      1.0  0.45900  0.54100  0.54600  1.0000
  Er  Er11      1.0  0.45900  0.91700  0.54600  1.0000
  Er  Er12      1.0  0.24800  0.12400  0.74700  1.0000
  Er  Er13      1.0  0.87600  0.12400  0.74700  1.0000
  Er  Er14      1.0  0.87600  0.75200  0.74700  1.0000
  Rh  Rh1       1.0  0.81000  0.62100  0.31000  1.0000
  Rh  Rh2       1.0  0.37900  0.19000  0.31000  1.0000
  Rh  Rh3       1.0  0.81000  0.19000  0.31000  1.0000
  Rh  Rh4       1.0  0.19000  0.37900  0.81000  1.0000
  Rh  Rh5       1.0  0.19000  0.81000  0.81000  1.0000
  Rh  Rh6       1.0  0.62100  0.81000  0.81000  1.0000
