data_image0
_chemical_formula_structural       Er6Nd2S12
_chemical_formula_sum              "Er6 Nd2 S12"
_cell_length_a       11.2634
_cell_length_b       11.0172
_cell_length_c       3.96002
_cell_angle_alpha    90
_cell_angle_beta     90
_cell_angle_gamma    108.778

_space_group_name_H-M_alt    "P 1"
_space_group_IT_number       1

loop_
  _space_group_symop_operation_xyz
  'x, y, z'

loop_
  _atom_site_type_symbol
  _atom_site_label
  _atom_site_symmetry_multiplicity
  _atom_site_fract_x
  _atom_site_fract_y
  _atom_site_fract_z
  _atom_site_occupancy
  Er  Er1       1.0  0.00202  0.18000  0.25000  1.0000
  Er  Er2       1.0  0.58600  0.66100  0.25000  1.0000
  Er  Er3       1.0  0.33300  0.93900  0.25000  1.0000
  Er  Er4       1.0  0.66700  0.06100  0.75000  1.0000
  Er  Er5       1.0  0.41400  0.33900  0.75000  1.0000
  Er  Er6       1.0  0.99800  0.82000  0.75000  1.0000
  Nd  Nd1       1.0  0.19400  0.54800  0.25000  1.0000
  Nd  Nd2       1.0  0.80600  0.45200  0.75000  1.0000
  S   S1        1.0  0.77200  0.23700  0.25000  1.0000
  S   S2        1.0  0.25100  0.30400  0.25000  1.0000
  S   S3        1.0  0.59400  0.41800  0.25000  1.0000
  S   S4        1.0  0.96400  0.61800  0.25000  1.0000
  S   S5        1.0  0.56100  0.89600  0.25000  1.0000
  S   S6        1.0  0.11200  0.97800  0.25000  1.0000
  S   S7        1.0  0.88800  0.02230  0.75000  1.0000
  S   S8        1.0  0.43900  0.10400  0.75000  1.0000
  S   S9        1.0  0.03640  0.38200  0.75000  1.0000
  S   S10       1.0  0.40600  0.58200  0.75000  1.0000
  S   S11       1.0  0.74900  0.69600  0.75000  1.0000
  S   S12       1.0  0.22800  0.76300  0.75000  1.0000
