data_image0
_chemical_formula_structural       Ag2P4S12V2
_chemical_formula_sum              "Ag2 P4 S12 V2"
_cell_length_a       6.90831
_cell_length_b       10.7724
_cell_length_c       5.8874
_cell_angle_alpha    90
_cell_angle_beta     106.123
_cell_angle_gamma    90

_space_group_name_H-M_alt    "P 1"
_space_group_IT_number       1

loop_
  _space_group_symop_operation_xyz
  'x, y, z'

loop_
  _atom_site_type_symbol
  _atom_site_label
  _atom_site_symmetry_multiplicity
  _atom_site_fract_x
  _atom_site_fract_y
  _atom_site_fract_z
  _atom_site_occupancy
  Ag  Ag1       1.0  0.00000  0.43500  0.25000  1.0000
  Ag  Ag2       1.0  1.00000  0.56500  0.75000  1.0000
  P   P1        1.0  0.83300  0.75200  0.20300  1.0000
  P   P2        1.0  0.16700  0.75200  0.29700  1.0000
  P   P3        1.0  0.83300  0.24800  0.70300  1.0000
  P   P4        1.0  0.16700  0.24800  0.79700  1.0000
  S   S1        1.0  0.77400  0.92000  0.00630  1.0000
  S   S2        1.0  0.72000  0.60300  0.01690  1.0000
  S   S3        1.0  0.76800  0.22800  0.01720  1.0000
  S   S4        1.0  0.23200  0.22800  0.48300  1.0000
  S   S5        1.0  0.28000  0.60300  0.48300  1.0000
  S   S6        1.0  0.22600  0.92000  0.49400  1.0000
  S   S7        1.0  0.77400  0.07990  0.50600  1.0000
  S   S8        1.0  0.72000  0.39700  0.51700  1.0000
  S   S9        1.0  0.76800  0.77200  0.51700  1.0000
  S   S10       1.0  0.23200  0.77200  0.98300  1.0000
  S   S11       1.0  0.28000  0.39700  0.98300  1.0000
  S   S12       1.0  0.22600  0.07990  0.99400  1.0000
  V   V1        1.0  0.00000  0.06920  0.25000  1.0000
  V   V2        1.0  1.00000  0.93100  0.75000  1.0000
