data_image0
_chemical_formula_structural       I12La6NaOs
_chemical_formula_sum              "I12 La6 Na1 Os1"
_cell_length_a       10.1549
_cell_length_b       10.1549
_cell_length_c       10.1549
_cell_angle_alpha    107.185
_cell_angle_beta     107.185
_cell_angle_gamma    107.185

_space_group_name_H-M_alt    "P 1"
_space_group_IT_number       1

loop_
  _space_group_symop_operation_xyz
  'x, y, z'

loop_
  _atom_site_type_symbol
  _atom_site_label
  _atom_site_symmetry_multiplicity
  _atom_site_fract_x
  _atom_site_fract_y
  _atom_site_fract_z
  _atom_site_occupancy
  I   I1        1.0  0.22900  0.68400  0.07310  1.0000
  I   I2        1.0  0.45800  0.38200  0.15200  1.0000
  I   I3        1.0  0.68400  0.07310  0.22900  1.0000
  I   I4        1.0  0.92700  0.77100  0.31600  1.0000
  I   I5        1.0  0.15200  0.45800  0.38200  1.0000
  I   I6        1.0  0.38200  0.15200  0.45800  1.0000
  I   I7        1.0  0.61800  0.84800  0.54200  1.0000
  I   I8        1.0  0.84800  0.54200  0.61800  1.0000
  I   I9        1.0  0.07310  0.22900  0.68400  1.0000
  I   I10       1.0  0.31600  0.92700  0.77100  1.0000
  I   I11       1.0  0.54200  0.61800  0.84800  1.0000
  I   I12       1.0  0.77100  0.31600  0.92700  1.0000
  La  La1       1.0  0.10300  0.31000  0.03330  1.0000
  La  La2       1.0  0.31000  0.03330  0.10300  1.0000
  La  La3       1.0  0.03330  0.10300  0.31000  1.0000
  La  La4       1.0  0.96700  0.89700  0.69000  1.0000
  La  La5       1.0  0.69000  0.96700  0.89700  1.0000
  La  La6       1.0  0.89700  0.69000  0.96700  1.0000
  Na  Na1       1.0  0.50000  0.50000  0.50000  1.0000
  Os  Os1       1.0  0.00000  0.00000  0.00000  1.0000
