data_image0
_chemical_formula_structural       C8Lu8Re4
_chemical_formula_sum              "C8 Lu8 Re4"
_cell_length_a       6.4712
_cell_length_b       4.96913
_cell_length_c       9.66135
_cell_angle_alpha    90
_cell_angle_beta     90
_cell_angle_gamma    90

_space_group_name_H-M_alt    "P 1"
_space_group_IT_number       1

loop_
  _space_group_symop_operation_xyz
  'x, y, z'

loop_
  _atom_site_type_symbol
  _atom_site_label
  _atom_site_symmetry_multiplicity
  _atom_site_fract_x
  _atom_site_fract_y
  _atom_site_fract_z
  _atom_site_occupancy
  C   C1        1.0  0.82900  0.75000  0.05660  1.0000
  C   C2        1.0  0.55100  0.25000  0.24100  1.0000
  C   C3        1.0  0.05100  0.25000  0.25900  1.0000
  C   C4        1.0  0.32900  0.75000  0.44300  1.0000
  C   C5        1.0  0.67100  0.25000  0.55700  1.0000
  C   C6        1.0  0.94900  0.75000  0.74100  1.0000
  C   C7        1.0  0.44900  0.75000  0.75900  1.0000
  C   C8        1.0  0.17100  0.25000  0.94300  1.0000
  Lu  Lu1       1.0  0.82300  0.25000  0.05820  1.0000
  Lu  Lu2       1.0  0.53500  0.75000  0.21800  1.0000
  Lu  Lu3       1.0  0.03490  0.75000  0.28200  1.0000
  Lu  Lu4       1.0  0.32300  0.25000  0.44200  1.0000
  Lu  Lu5       1.0  0.67700  0.75000  0.55800  1.0000
  Lu  Lu6       1.0  0.96500  0.25000  0.71800  1.0000
  Lu  Lu7       1.0  0.46500  0.25000  0.78200  1.0000
  Lu  Lu8       1.0  0.17700  0.75000  0.94200  1.0000
  Re  Re1       1.0  0.28400  0.25000  0.12900  1.0000
  Re  Re2       1.0  0.78400  0.25000  0.37100  1.0000
  Re  Re3       1.0  0.21600  0.75000  0.62900  1.0000
  Re  Re4       1.0  0.71600  0.75000  0.87100  1.0000
