data_image0
_chemical_formula_structural       Cr4Se12Th4
_chemical_formula_sum              "Cr4 Se12 Th4"
_cell_length_a       7.74332
_cell_length_b       9.35918
_cell_length_c       6.51895
_cell_angle_alpha    90
_cell_angle_beta     90
_cell_angle_gamma    90

_space_group_name_H-M_alt    "P 1"
_space_group_IT_number       1

loop_
  _space_group_symop_operation_xyz
  'x, y, z'

loop_
  _atom_site_type_symbol
  _atom_site_label
  _atom_site_symmetry_multiplicity
  _atom_site_fract_x
  _atom_site_fract_y
  _atom_site_fract_z
  _atom_site_occupancy
  Cr  Cr1       1.0  0.00000  0.00000  0.00000  1.0000
  Cr  Cr2       1.0  0.00000  0.50000  0.00000  1.0000
  Cr  Cr3       1.0  0.50000  0.00000  0.50000  1.0000
  Cr  Cr4       1.0  0.50000  0.50000  0.50000  1.0000
  Se  Se1       1.0  0.96000  0.75000  0.14300  1.0000
  Se  Se2       1.0  0.67100  0.05590  0.16800  1.0000
  Se  Se3       1.0  0.67100  0.44400  0.16800  1.0000
  Se  Se4       1.0  0.17100  0.05590  0.33200  1.0000
  Se  Se5       1.0  0.17100  0.44400  0.33200  1.0000
  Se  Se6       1.0  0.46000  0.75000  0.35700  1.0000
  Se  Se7       1.0  0.54000  0.25000  0.64300  1.0000
  Se  Se8       1.0  0.82900  0.55600  0.66800  1.0000
  Se  Se9       1.0  0.82900  0.94400  0.66800  1.0000
  Se  Se10      1.0  0.32900  0.55600  0.83200  1.0000
  Se  Se11      1.0  0.32900  0.94400  0.83200  1.0000
  Se  Se12      1.0  0.03970  0.25000  0.85700  1.0000
  Th  Th1       1.0  0.37800  0.25000  0.05640  1.0000
  Th  Th2       1.0  0.87800  0.25000  0.44400  1.0000
  Th  Th3       1.0  0.12200  0.75000  0.55600  1.0000
  Th  Th4       1.0  0.62200  0.75000  0.94400  1.0000
