data_image0
_chemical_formula_structural       C12Np8
_chemical_formula_sum              "C12 Np8"
_cell_length_a       6.94952
_cell_length_b       6.94952
_cell_length_c       6.94952
_cell_angle_alpha    109.471
_cell_angle_beta     109.471
_cell_angle_gamma    109.471

_space_group_name_H-M_alt    "P 1"
_space_group_IT_number       1

loop_
  _space_group_symop_operation_xyz
  'x, y, z'

loop_
  _atom_site_type_symbol
  _atom_site_label
  _atom_site_symmetry_multiplicity
  _atom_site_fract_x
  _atom_site_fract_y
  _atom_site_fract_z
  _atom_site_occupancy
  C   C1        1.0  0.25000  0.28700  0.03650  1.0000
  C   C2        1.0  0.25000  0.46300  0.21300  1.0000
  C   C3        1.0  0.03650  0.78700  0.25000  1.0000
  C   C4        1.0  0.21300  0.96300  0.25000  1.0000
  C   C5        1.0  0.75000  0.03650  0.28700  1.0000
  C   C6        1.0  0.75000  0.21300  0.46300  1.0000
  C   C7        1.0  0.78700  0.75000  0.53700  1.0000
  C   C8        1.0  0.96300  0.75000  0.71300  1.0000
  C   C9        1.0  0.28700  0.53700  0.75000  1.0000
  C   C10       1.0  0.46300  0.71300  0.75000  1.0000
  C   C11       1.0  0.53700  0.25000  0.78700  1.0000
  C   C12       1.0  0.71300  0.25000  0.96300  1.0000
  Np  Np1       1.0  0.40200  0.00000  0.00000  1.0000
  Np  Np2       1.0  0.90200  0.00000  0.00000  1.0000
  Np  Np3       1.0  0.59800  0.59800  0.09780  1.0000
  Np  Np4       1.0  0.00000  0.50000  0.40200  1.0000
  Np  Np5       1.0  0.50000  0.90200  0.50000  1.0000
  Np  Np6       1.0  0.50000  0.40200  0.50000  1.0000
  Np  Np7       1.0  0.09780  0.09780  0.59800  1.0000
  Np  Np8       1.0  0.00000  0.50000  0.90200  1.0000
