data_image0
_chemical_formula_structural       Ir2Na2Nd4O12
_chemical_formula_sum              "Ir2 Na2 Nd4 O12"
_cell_length_a       5.48358
_cell_length_b       5.93983
_cell_length_c       7.89467
_cell_angle_alpha    90
_cell_angle_beta     91.049
_cell_angle_gamma    90

_space_group_name_H-M_alt    "P 1"
_space_group_IT_number       1

loop_
  _space_group_symop_operation_xyz
  'x, y, z'

loop_
  _atom_site_type_symbol
  _atom_site_label
  _atom_site_symmetry_multiplicity
  _atom_site_fract_x
  _atom_site_fract_y
  _atom_site_fract_z
  _atom_site_occupancy
  Ir  Ir1       1.0  0.50000  0.50000  0.00000  1.0000
  Ir  Ir2       1.0  0.00000  0.00000  0.50000  1.0000
  Na  Na1       1.0  0.00000  0.00000  0.00000  1.0000
  Na  Na2       1.0  0.50000  0.50000  0.50000  1.0000
  Nd  Nd1       1.0  0.02300  0.57500  0.24700  1.0000
  Nd  Nd2       1.0  0.47700  0.07490  0.25300  1.0000
  Nd  Nd3       1.0  0.52300  0.92500  0.74700  1.0000
  Nd  Nd4       1.0  0.97700  0.42500  0.75300  1.0000
  O   O1        1.0  0.20200  0.32300  0.05160  1.0000
  O   O2        1.0  0.33500  0.78400  0.06620  1.0000
  O   O3        1.0  0.62000  0.45200  0.23500  1.0000
  O   O4        1.0  0.88000  0.95200  0.26500  1.0000
  O   O5        1.0  0.16500  0.28400  0.43400  1.0000
  O   O6        1.0  0.29800  0.82300  0.44800  1.0000
  O   O7        1.0  0.70200  0.17700  0.55200  1.0000
  O   O8        1.0  0.83500  0.71600  0.56600  1.0000
  O   O9        1.0  0.12000  0.04750  0.73500  1.0000
  O   O10       1.0  0.38000  0.54800  0.76500  1.0000
  O   O11       1.0  0.66500  0.21600  0.93400  1.0000
  O   O12       1.0  0.79800  0.67700  0.94800  1.0000
