data_image0
_chemical_formula_structural       Dy4Rh6Sn10
_chemical_formula_sum              "Dy4 Rh6 Sn10"
_cell_length_a       4.43424
_cell_length_b       7.215
_cell_length_c       13.4248
_cell_angle_alpha    90
_cell_angle_beta     80.494
_cell_angle_gamma    90

_space_group_name_H-M_alt    "P 1"
_space_group_IT_number       1

loop_
  _space_group_symop_operation_xyz
  'x, y, z'

loop_
  _atom_site_type_symbol
  _atom_site_label
  _atom_site_symmetry_multiplicity
  _atom_site_fract_x
  _atom_site_fract_y
  _atom_site_fract_z
  _atom_site_occupancy
  Dy  Dy1       1.0  0.47600  0.73700  0.04770  1.0000
  Dy  Dy2       1.0  0.82800  0.25800  0.34300  1.0000
  Dy  Dy3       1.0  0.17200  0.75800  0.65700  1.0000
  Dy  Dy4       1.0  0.52400  0.23700  0.95200  1.0000
  Rh  Rh1       1.0  0.95000  0.01590  0.09970  1.0000
  Rh  Rh2       1.0  0.39400  0.48300  0.21200  1.0000
  Rh  Rh3       1.0  0.77700  0.76500  0.44500  1.0000
  Rh  Rh4       1.0  0.22300  0.26500  0.55500  1.0000
  Rh  Rh5       1.0  0.60600  0.98300  0.78800  1.0000
  Rh  Rh6       1.0  0.04980  0.51600  0.90000  1.0000
  Sn  Sn1       1.0  0.95200  0.40000  0.09530  1.0000
  Sn  Sn2       1.0  0.40300  0.10900  0.19300  1.0000
  Sn  Sn3       1.0  0.88000  0.73300  0.24000  1.0000
  Sn  Sn4       1.0  0.29500  0.54900  0.41000  1.0000
  Sn  Sn5       1.0  0.29100  0.97800  0.41900  1.0000
  Sn  Sn6       1.0  0.70900  0.47800  0.58100  1.0000
  Sn  Sn7       1.0  0.70500  0.04860  0.59000  1.0000
  Sn  Sn8       1.0  0.12000  0.23300  0.76000  1.0000
  Sn  Sn9       1.0  0.59700  0.60900  0.80700  1.0000
  Sn  Sn10      1.0  0.04760  0.90000  0.90500  1.0000
