data_image0
_chemical_formula_structural       Ce2S12Tm6
_chemical_formula_sum              "Ce2 S12 Tm6"
_cell_length_a       11.2605
_cell_length_b       11.0143
_cell_length_c       3.96777
_cell_angle_alpha    90
_cell_angle_beta     90
_cell_angle_gamma    108.838

_space_group_name_H-M_alt    "P 1"
_space_group_IT_number       1

loop_
  _space_group_symop_operation_xyz
  'x, y, z'

loop_
  _atom_site_type_symbol
  _atom_site_label
  _atom_site_symmetry_multiplicity
  _atom_site_fract_x
  _atom_site_fract_y
  _atom_site_fract_z
  _atom_site_occupancy
  Ce  Ce1       1.0  0.19700  0.55100  0.25000  1.0000
  Ce  Ce2       1.0  0.80300  0.44900  0.75000  1.0000
  S   S1        1.0  0.77000  0.23000  0.25000  1.0000
  S   S2        1.0  0.25100  0.30100  0.25000  1.0000
  S   S3        1.0  0.59100  0.41800  0.25000  1.0000
  S   S4        1.0  0.96400  0.62300  0.25000  1.0000
  S   S5        1.0  0.55700  0.89300  0.25000  1.0000
  S   S6        1.0  0.11100  0.97800  0.25000  1.0000
  S   S7        1.0  0.88900  0.02170  0.75000  1.0000
  S   S8        1.0  0.44300  0.10700  0.75000  1.0000
  S   S9        1.0  0.03570  0.37700  0.75000  1.0000
  S   S10       1.0  0.40900  0.58200  0.75000  1.0000
  S   S11       1.0  0.74900  0.69900  0.75000  1.0000
  S   S12       1.0  0.23000  0.77000  0.75000  1.0000
  Tm  Tm1       1.0  0.00079  0.17900  0.25000  1.0000
  Tm  Tm2       1.0  0.58800  0.66100  0.25000  1.0000
  Tm  Tm3       1.0  0.33400  0.94400  0.25000  1.0000
  Tm  Tm4       1.0  0.66600  0.05570  0.75000  1.0000
  Tm  Tm5       1.0  0.41200  0.33900  0.75000  1.0000
  Tm  Tm6       1.0  0.99900  0.82100  0.75000  1.0000
