data_image0
_chemical_formula_structural       Ce4Ir6Si10
_chemical_formula_sum              "Ce4 Ir6 Si10"
_cell_length_a       5.97129
_cell_length_b       8.30013
_cell_length_c       8.30013
_cell_angle_alpha    90.2817
_cell_angle_beta     111.082
_cell_angle_gamma    111.082

_space_group_name_H-M_alt    "P 1"
_space_group_IT_number       1

loop_
  _space_group_symop_operation_xyz
  'x, y, z'

loop_
  _atom_site_type_symbol
  _atom_site_label
  _atom_site_symmetry_multiplicity
  _atom_site_fract_x
  _atom_site_fract_y
  _atom_site_fract_z
  _atom_site_occupancy
  Ce  Ce1       1.0  0.76800  0.39800  0.13800  1.0000
  Ce  Ce2       1.0  0.26800  0.13800  0.39800  1.0000
  Ce  Ce3       1.0  0.73200  0.86200  0.60200  1.0000
  Ce  Ce4       1.0  0.23200  0.60200  0.86200  1.0000
  Ir  Ir1       1.0  0.25000  0.00000  0.00000  1.0000
  Ir  Ir2       1.0  0.75000  0.00000  0.00000  1.0000
  Ir  Ir3       1.0  0.38900  0.52700  0.25000  1.0000
  Ir  Ir4       1.0  0.11100  0.75000  0.47300  1.0000
  Ir  Ir5       1.0  0.88900  0.25000  0.52700  1.0000
  Ir  Ir6       1.0  0.61100  0.47300  0.75000  1.0000
  Si  Si1       1.0  0.15200  0.25900  0.04530  1.0000
  Si  Si2       1.0  0.25000  0.77200  0.22800  1.0000
  Si  Si3       1.0  0.75000  0.77200  0.22800  1.0000
  Si  Si4       1.0  0.65200  0.04530  0.25900  1.0000
  Si  Si5       1.0  0.25000  0.50000  0.50000  1.0000
  Si  Si6       1.0  0.75000  0.50000  0.50000  1.0000
  Si  Si7       1.0  0.34800  0.95500  0.74100  1.0000
  Si  Si8       1.0  0.25000  0.22800  0.77200  1.0000
  Si  Si9       1.0  0.75000  0.22800  0.77200  1.0000
  Si  Si10      1.0  0.84800  0.74100  0.95500  1.0000
