data_image0
_chemical_formula_structural       Ca2O12Sr4Te2
_chemical_formula_sum              "Ca2 O12 Sr4 Te2"
_cell_length_a       5.7942
_cell_length_b       5.84586
_cell_length_c       8.21156
_cell_angle_alpha    90
_cell_angle_beta     90.2116
_cell_angle_gamma    90

_space_group_name_H-M_alt    "P 1"
_space_group_IT_number       1

loop_
  _space_group_symop_operation_xyz
  'x, y, z'

loop_
  _atom_site_type_symbol
  _atom_site_label
  _atom_site_symmetry_multiplicity
  _atom_site_fract_x
  _atom_site_fract_y
  _atom_site_fract_z
  _atom_site_occupancy
  Ca  Ca1       1.0  0.00000  0.50000  0.00000  1.0000
  Ca  Ca2       1.0  0.50000  0.00000  0.50000  1.0000
  O   O1        1.0  0.76700  0.80700  0.03920  1.0000
  O   O2        1.0  0.68800  0.26900  0.04380  1.0000
  O   O3        1.0  0.42200  0.97800  0.22900  1.0000
  O   O4        1.0  0.07840  0.47800  0.27100  1.0000
  O   O5        1.0  0.81200  0.76900  0.45600  1.0000
  O   O6        1.0  0.73300  0.30700  0.46100  1.0000
  O   O7        1.0  0.26700  0.69300  0.53900  1.0000
  O   O8        1.0  0.18800  0.23100  0.54400  1.0000
  O   O9        1.0  0.92200  0.52200  0.72900  1.0000
  O   O10       1.0  0.57800  0.02200  0.77100  1.0000
  O   O11       1.0  0.31200  0.73100  0.95600  1.0000
  O   O12       1.0  0.23300  0.19300  0.96100  1.0000
  Sr  Sr1       1.0  0.99200  0.03620  0.25000  1.0000
  Sr  Sr2       1.0  0.50800  0.53600  0.25000  1.0000
  Sr  Sr3       1.0  0.49200  0.46400  0.75000  1.0000
  Sr  Sr4       1.0  0.00812  0.96400  0.75000  1.0000
  Te  Te1       1.0  0.50000  0.00000  1.00000  1.0000
  Te  Te2       1.0  0.00000  0.50000  0.50000  1.0000
