data_image0
_chemical_formula_structural       As8Zr12
_chemical_formula_sum              "As8 Zr12"
_cell_length_a       10.6036
_cell_length_b       3.76458
_cell_length_c       10.1869
_cell_angle_alpha    90
_cell_angle_beta     90
_cell_angle_gamma    90

_space_group_name_H-M_alt    "P 1"
_space_group_IT_number       1

loop_
  _space_group_symop_operation_xyz
  'x, y, z'

loop_
  _atom_site_type_symbol
  _atom_site_label
  _atom_site_symmetry_multiplicity
  _atom_site_fract_x
  _atom_site_fract_y
  _atom_site_fract_z
  _atom_site_occupancy
  As  As1       1.0  0.19400  0.75000  0.00051  1.0000
  As  As2       1.0  0.47100  0.25000  0.18000  1.0000
  As  As3       1.0  0.97100  0.25000  0.32000  1.0000
  As  As4       1.0  0.69400  0.75000  0.49900  1.0000
  As  As5       1.0  0.30600  0.25000  0.50100  1.0000
  As  As6       1.0  0.02850  0.75000  0.68000  1.0000
  As  As7       1.0  0.52900  0.75000  0.82000  1.0000
  As  As8       1.0  0.80600  0.25000  0.99900  1.0000
  Zr  Zr1       1.0  0.62400  0.75000  0.06700  1.0000
  Zr  Zr2       1.0  0.95500  0.75000  0.12500  1.0000
  Zr  Zr3       1.0  0.21500  0.25000  0.20500  1.0000
  Zr  Zr4       1.0  0.71500  0.25000  0.29500  1.0000
  Zr  Zr5       1.0  0.45500  0.75000  0.37500  1.0000
  Zr  Zr6       1.0  0.12400  0.75000  0.43300  1.0000
  Zr  Zr7       1.0  0.87600  0.25000  0.56700  1.0000
  Zr  Zr8       1.0  0.54500  0.25000  0.62500  1.0000
  Zr  Zr9       1.0  0.28500  0.75000  0.70500  1.0000
  Zr  Zr10      1.0  0.78500  0.75000  0.79500  1.0000
  Zr  Zr11      1.0  0.04480  0.25000  0.87500  1.0000
  Zr  Zr12      1.0  0.37600  0.25000  0.93300  1.0000
