data_image0
_chemical_formula_structural       Cr2Se12Ta6
_chemical_formula_sum              "Cr2 Se12 Ta6"
_cell_length_a       6.00325
_cell_length_b       6.00325
_cell_length_c       12.8573
_cell_angle_alpha    90
_cell_angle_beta     90
_cell_angle_gamma    120

_space_group_name_H-M_alt    "P 1"
_space_group_IT_number       1

loop_
  _space_group_symop_operation_xyz
  'x, y, z'

loop_
  _atom_site_type_symbol
  _atom_site_label
  _atom_site_symmetry_multiplicity
  _atom_site_fract_x
  _atom_site_fract_y
  _atom_site_fract_z
  _atom_site_occupancy
  Cr  Cr1       1.0  0.33300  0.66700  0.25000  1.0000
  Cr  Cr2       1.0  0.66700  0.33300  0.75000  1.0000
  Se  Se1       1.0  0.33400  0.00614  0.13100  1.0000
  Se  Se2       1.0  0.67200  0.66600  0.13100  1.0000
  Se  Se3       1.0  0.99400  0.32800  0.13100  1.0000
  Se  Se4       1.0  0.67200  0.00616  0.36900  1.0000
  Se  Se5       1.0  0.99400  0.66600  0.36900  1.0000
  Se  Se6       1.0  0.33400  0.32800  0.36900  1.0000
  Se  Se7       1.0  0.32800  0.33400  0.63100  1.0000
  Se  Se8       1.0  0.66600  0.99400  0.63100  1.0000
  Se  Se9       1.0  0.00616  0.67200  0.63100  1.0000
  Se  Se10      1.0  0.32800  0.99400  0.86900  1.0000
  Se  Se11      1.0  0.66600  0.67200  0.86900  1.0000
  Se  Se12      1.0  0.00614  0.33400  0.86900  1.0000
  Ta  Ta1       1.0  0.99999  0.99999  0.00000  1.0000
  Ta  Ta2       1.0  0.33300  0.66700  0.00046  1.0000
  Ta  Ta3       1.0  0.33300  0.66700  0.50000  1.0000
  Ta  Ta4       1.0  1.00000  1.00000  0.50000  1.0000
  Ta  Ta5       1.0  0.66700  0.33300  0.50000  1.0000
  Ta  Ta6       1.0  0.66700  0.33300  0.00000  1.0000
