data_image0
_chemical_formula_structural       Cr4I12Rb4
_chemical_formula_sum              "Cr4 I12 Rb4"
_cell_length_a       8.05264
_cell_length_b       8.05264
_cell_length_c       14.289
_cell_angle_alpha    95.0744
_cell_angle_beta     95.0744
_cell_angle_gamma    60.2247

_space_group_name_H-M_alt    "P 1"
_space_group_IT_number       1

loop_
  _space_group_symop_operation_xyz
  'x, y, z'

loop_
  _atom_site_type_symbol
  _atom_site_label
  _atom_site_symmetry_multiplicity
  _atom_site_fract_x
  _atom_site_fract_y
  _atom_site_fract_z
  _atom_site_occupancy
  Cr  Cr1       1.0  0.00116  0.99900  0.00000  1.0000
  Cr  Cr2       1.0  0.96700  0.03380  0.25000  1.0000
  Cr  Cr3       1.0  0.93500  0.06540  0.50000  1.0000
  Cr  Cr4       1.0  0.96600  0.03350  0.75000  1.0000
  I   I1        1.0  0.15400  0.67600  0.10400  1.0000
  I   I2        1.0  0.67800  0.16400  0.10800  1.0000
  I   I3        1.0  0.14700  0.18700  0.16200  1.0000
  I   I4        1.0  0.78600  0.88000  0.33800  1.0000
  I   I5        1.0  0.25700  0.90100  0.39200  1.0000
  I   I6        1.0  0.78200  0.38900  0.39700  1.0000
  I   I7        1.0  0.61100  0.21800  0.60300  1.0000
  I   I8        1.0  0.09940  0.74300  0.60800  1.0000
  I   I9        1.0  0.12000  0.21400  0.66200  1.0000
  I   I10       1.0  0.81300  0.85300  0.83800  1.0000
  I   I11       1.0  0.83600  0.32200  0.89200  1.0000
  I   I12       1.0  0.32400  0.84600  0.89600  1.0000
  Rb  Rb1       1.0  0.65100  0.67800  0.11800  1.0000
  Rb  Rb2       1.0  0.28800  0.38700  0.38000  1.0000
  Rb  Rb3       1.0  0.61300  0.71200  0.62000  1.0000
  Rb  Rb4       1.0  0.32200  0.34900  0.88200  1.0000
