data_image0
_chemical_formula_structural       Er6Pr2S12
_chemical_formula_sum              "Er6 Pr2 S12"
_cell_length_a       11.2756
_cell_length_b       11.0376
_cell_length_c       3.9718
_cell_angle_alpha    90
_cell_angle_beta     90
_cell_angle_gamma    108.715

_space_group_name_H-M_alt    "P 1"
_space_group_IT_number       1

loop_
  _space_group_symop_operation_xyz
  'x, y, z'

loop_
  _atom_site_type_symbol
  _atom_site_label
  _atom_site_symmetry_multiplicity
  _atom_site_fract_x
  _atom_site_fract_y
  _atom_site_fract_z
  _atom_site_occupancy
  Er  Er1       1.0  0.00186  0.18000  0.25000  1.0000
  Er  Er2       1.0  0.58700  0.66100  0.25000  1.0000
  Er  Er3       1.0  0.33300  0.94000  0.25000  1.0000
  Er  Er4       1.0  0.66700  0.06030  0.75000  1.0000
  Er  Er5       1.0  0.41300  0.33900  0.75000  1.0000
  Er  Er6       1.0  0.99800  0.82000  0.75000  1.0000
  Pr  Pr1       1.0  0.19500  0.54900  0.25000  1.0000
  Pr  Pr2       1.0  0.80500  0.45100  0.75000  1.0000
  S   S1        1.0  0.77200  0.23500  0.25000  1.0000
  S   S2        1.0  0.25100  0.30200  0.25000  1.0000
  S   S3        1.0  0.59300  0.41800  0.25000  1.0000
  S   S4        1.0  0.96400  0.62000  0.25000  1.0000
  S   S5        1.0  0.56000  0.89600  0.25000  1.0000
  S   S6        1.0  0.11200  0.97800  0.25000  1.0000
  S   S7        1.0  0.88800  0.02220  0.75000  1.0000
  S   S8        1.0  0.44000  0.10400  0.75000  1.0000
  S   S9        1.0  0.03630  0.38000  0.75000  1.0000
  S   S10       1.0  0.40700  0.58200  0.75000  1.0000
  S   S11       1.0  0.74900  0.69800  0.75000  1.0000
  S   S12       1.0  0.22800  0.76500  0.75000  1.0000
