data_image0
_chemical_formula_structural       Ce4Ni6Si10
_chemical_formula_sum              "Ce4 Ni6 Si10"
_cell_length_a       5.80216
_cell_length_b       8.06655
_cell_length_c       8.06655
_cell_angle_alpha    90.8823
_cell_angle_beta     111.078
_cell_angle_gamma    111.078

_space_group_name_H-M_alt    "P 1"
_space_group_IT_number       1

loop_
  _space_group_symop_operation_xyz
  'x, y, z'

loop_
  _atom_site_type_symbol
  _atom_site_label
  _atom_site_symmetry_multiplicity
  _atom_site_fract_x
  _atom_site_fract_y
  _atom_site_fract_z
  _atom_site_occupancy
  Ce  Ce1       1.0  0.76000  0.38900  0.13100  1.0000
  Ce  Ce2       1.0  0.26000  0.13100  0.38900  1.0000
  Ce  Ce3       1.0  0.74000  0.86900  0.61100  1.0000
  Ce  Ce4       1.0  0.24000  0.61100  0.86900  1.0000
  Ni  Ni1       1.0  0.25000  0.00000  0.00000  1.0000
  Ni  Ni2       1.0  0.75000  0.00000  0.00000  1.0000
  Ni  Ni3       1.0  0.38900  0.52200  0.25700  1.0000
  Ni  Ni4       1.0  0.11100  0.74300  0.47800  1.0000
  Ni  Ni5       1.0  0.88900  0.25700  0.52200  1.0000
  Ni  Ni6       1.0  0.61100  0.47800  0.74300  1.0000
  Si  Si1       1.0  0.14500  0.25500  0.03470  1.0000
  Si  Si2       1.0  0.25000  0.76200  0.23800  1.0000
  Si  Si3       1.0  0.75000  0.76200  0.23800  1.0000
  Si  Si4       1.0  0.64500  0.03470  0.25500  1.0000
  Si  Si5       1.0  0.25000  0.50000  0.50000  1.0000
  Si  Si6       1.0  0.75000  0.50000  0.50000  1.0000
  Si  Si7       1.0  0.35500  0.96500  0.74500  1.0000
  Si  Si8       1.0  0.25000  0.23800  0.76200  1.0000
  Si  Si9       1.0  0.75000  0.23800  0.76200  1.0000
  Si  Si10      1.0  0.85500  0.74500  0.96500  1.0000
