data_image0
_chemical_formula_structural       Er4S12Sc4
_chemical_formula_sum              "Er4 S12 Sc4"
_cell_length_a       6.97637
_cell_length_b       6.34027
_cell_length_c       9.50242
_cell_angle_alpha    90
_cell_angle_beta     90
_cell_angle_gamma    90

_space_group_name_H-M_alt    "P 1"
_space_group_IT_number       1

loop_
  _space_group_symop_operation_xyz
  'x, y, z'

loop_
  _atom_site_type_symbol
  _atom_site_label
  _atom_site_symmetry_multiplicity
  _atom_site_fract_x
  _atom_site_fract_y
  _atom_site_fract_z
  _atom_site_occupancy
  Er  Er1       1.0  0.10200  0.04240  0.00894  1.0000
  Er  Er2       1.0  0.60200  0.45800  0.00894  1.0000
  Er  Er3       1.0  0.39800  0.54200  0.50900  1.0000
  Er  Er4       1.0  0.89800  0.95800  0.50900  1.0000
  S   S1        1.0  0.95000  0.64800  0.00950  1.0000
  S   S2        1.0  0.45000  0.85200  0.00950  1.0000
  S   S3        1.0  0.81400  0.17400  0.18500  1.0000
  S   S4        1.0  0.31400  0.32600  0.18500  1.0000
  S   S5        1.0  0.68200  0.67600  0.33100  1.0000
  S   S6        1.0  0.18200  0.82400  0.33100  1.0000
  S   S7        1.0  0.55000  0.14800  0.51000  1.0000
  S   S8        1.0  0.05000  0.35200  0.51000  1.0000
  S   S9        1.0  0.68600  0.67400  0.68500  1.0000
  S   S10       1.0  0.18600  0.82600  0.68500  1.0000
  S   S11       1.0  0.81800  0.17600  0.83100  1.0000
  S   S12       1.0  0.31800  0.32400  0.83100  1.0000
  Sc  Sc1       1.0  0.49700  0.00184  0.26000  1.0000
  Sc  Sc2       1.0  0.99700  0.49800  0.26000  1.0000
  Sc  Sc3       1.0  0.00290  0.50200  0.76000  1.0000
  Sc  Sc4       1.0  0.50300  0.99800  0.76000  1.0000
