data_image0
_chemical_formula_structural       B4S12Tb4
_chemical_formula_sum              "B4 S12 Tb4"
_cell_length_a       7.23892
_cell_length_b       6.11823
_cell_length_c       8.74564
_cell_angle_alpha    90
_cell_angle_beta     90
_cell_angle_gamma    90

_space_group_name_H-M_alt    "P 1"
_space_group_IT_number       1

loop_
  _space_group_symop_operation_xyz
  'x, y, z'

loop_
  _atom_site_type_symbol
  _atom_site_label
  _atom_site_symmetry_multiplicity
  _atom_site_fract_x
  _atom_site_fract_y
  _atom_site_fract_z
  _atom_site_occupancy
  B   B1        1.0  0.64400  0.60200  0.04840  1.0000
  B   B2        1.0  0.14400  0.89800  0.04840  1.0000
  B   B3        1.0  0.85600  0.10200  0.54800  1.0000
  B   B4        1.0  0.35600  0.39800  0.54800  1.0000
  S   S1        1.0  0.29400  0.13500  0.01990  1.0000
  S   S2        1.0  0.79400  0.36500  0.01990  1.0000
  S   S3        1.0  0.49300  0.62400  0.21100  1.0000
  S   S4        1.0  0.99300  0.87600  0.21100  1.0000
  S   S5        1.0  0.32500  0.17100  0.41500  1.0000
  S   S6        1.0  0.82500  0.32900  0.41500  1.0000
  S   S7        1.0  0.20600  0.63500  0.52000  1.0000
  S   S8        1.0  0.70600  0.86500  0.52000  1.0000
  S   S9        1.0  0.00743  0.12400  0.71100  1.0000
  S   S10       1.0  0.50700  0.37600  0.71100  1.0000
  S   S11       1.0  0.17500  0.67100  0.91500  1.0000
  S   S12       1.0  0.67500  0.82900  0.91500  1.0000
  Tb  Tb1       1.0  0.62100  0.05520  0.21600  1.0000
  Tb  Tb2       1.0  0.12100  0.44500  0.21600  1.0000
  Tb  Tb3       1.0  0.87900  0.55500  0.71600  1.0000
  Tb  Tb4       1.0  0.37900  0.94500  0.71600  1.0000
