data_image0
_chemical_formula_structural       Er6La2S12
_chemical_formula_sum              "Er6 La2 S12"
_cell_length_a       11.2827
_cell_length_b       11.0617
_cell_length_c       3.98898
_cell_angle_alpha    90
_cell_angle_beta     90
_cell_angle_gamma    108.7

_space_group_name_H-M_alt    "P 1"
_space_group_IT_number       1

loop_
  _space_group_symop_operation_xyz
  'x, y, z'

loop_
  _atom_site_type_symbol
  _atom_site_label
  _atom_site_symmetry_multiplicity
  _atom_site_fract_x
  _atom_site_fract_y
  _atom_site_fract_z
  _atom_site_occupancy
  Er  Er1       1.0  0.00131  0.17900  0.25000  1.0000
  Er  Er2       1.0  0.58700  0.66100  0.25000  1.0000
  Er  Er3       1.0  0.33300  0.94100  0.25000  1.0000
  Er  Er4       1.0  0.66700  0.05870  0.75000  1.0000
  Er  Er5       1.0  0.41300  0.33900  0.75000  1.0000
  Er  Er6       1.0  0.99900  0.82100  0.75000  1.0000
  La  La1       1.0  0.19500  0.54900  0.25000  1.0000
  La  La2       1.0  0.80500  0.45100  0.75000  1.0000
  S   S1        1.0  0.77100  0.23300  0.25000  1.0000
  S   S2        1.0  0.25100  0.30200  0.25000  1.0000
  S   S3        1.0  0.59200  0.41800  0.25000  1.0000
  S   S4        1.0  0.96300  0.62200  0.25000  1.0000
  S   S5        1.0  0.56000  0.89500  0.25000  1.0000
  S   S6        1.0  0.11100  0.97800  0.25000  1.0000
  S   S7        1.0  0.88900  0.02230  0.75000  1.0000
  S   S8        1.0  0.44000  0.10500  0.75000  1.0000
  S   S9        1.0  0.03670  0.37800  0.75000  1.0000
  S   S10       1.0  0.40800  0.58200  0.75000  1.0000
  S   S11       1.0  0.74900  0.69800  0.75000  1.0000
  S   S12       1.0  0.22900  0.76700  0.75000  1.0000
