data_image0
_chemical_formula_structural       Bi8La6Pt6
_chemical_formula_sum              "Bi8 La6 Pt6"
_cell_length_a       8.85656
_cell_length_b       8.85656
_cell_length_c       8.85656
_cell_angle_alpha    109.471
_cell_angle_beta     109.471
_cell_angle_gamma    109.471

_space_group_name_H-M_alt    "P 1"
_space_group_IT_number       1

loop_
  _space_group_symop_operation_xyz
  'x, y, z'

loop_
  _atom_site_type_symbol
  _atom_site_label
  _atom_site_symmetry_multiplicity
  _atom_site_fract_x
  _atom_site_fract_y
  _atom_site_fract_z
  _atom_site_occupancy
  Bi  Bi1       1.0  0.50000  0.33100  0.00000  1.0000
  Bi  Bi2       1.0  0.50000  0.83100  0.00000  1.0000
  Bi  Bi3       1.0  0.16900  0.66900  0.16900  1.0000
  Bi  Bi4       1.0  0.00000  0.00000  0.33100  1.0000
  Bi  Bi5       1.0  0.33100  0.50000  0.50000  1.0000
  Bi  Bi6       1.0  0.83100  0.50000  0.50000  1.0000
  Bi  Bi7       1.0  0.66900  0.16900  0.66900  1.0000
  Bi  Bi8       1.0  0.00000  0.00000  0.83100  1.0000
  La  La1       1.0  0.87500  0.25000  0.12500  1.0000
  La  La2       1.0  0.37500  0.12500  0.25000  1.0000
  La  La3       1.0  0.62500  0.75000  0.37500  1.0000
  La  La4       1.0  0.25000  0.87500  0.62500  1.0000
  La  La5       1.0  0.12500  0.37500  0.75000  1.0000
  La  La6       1.0  0.75000  0.62500  0.87500  1.0000
  Pt  Pt1       1.0  0.25000  0.37500  0.12500  1.0000
  Pt  Pt2       1.0  0.87500  0.62500  0.25000  1.0000
  Pt  Pt3       1.0  0.75000  0.12500  0.37500  1.0000
  Pt  Pt4       1.0  0.37500  0.25000  0.62500  1.0000
  Pt  Pt5       1.0  0.62500  0.87500  0.75000  1.0000
  Pt  Pt6       1.0  0.12500  0.75000  0.87500  1.0000
