data_image0
_chemical_formula_structural       Hf12P8
_chemical_formula_sum              "Hf12 P8"
_cell_length_a       10.1859
_cell_length_b       3.58161
_cell_length_c       9.85981
_cell_angle_alpha    90
_cell_angle_beta     90
_cell_angle_gamma    90

_space_group_name_H-M_alt    "P 1"
_space_group_IT_number       1

loop_
  _space_group_symop_operation_xyz
  'x, y, z'

loop_
  _atom_site_type_symbol
  _atom_site_label
  _atom_site_symmetry_multiplicity
  _atom_site_fract_x
  _atom_site_fract_y
  _atom_site_fract_z
  _atom_site_occupancy
  Hf  Hf1       1.0  0.37600  0.25000  0.06470  1.0000
  Hf  Hf2       1.0  0.04590  0.25000  0.12600  1.0000
  Hf  Hf3       1.0  0.78400  0.75000  0.20300  1.0000
  Hf  Hf4       1.0  0.28400  0.75000  0.29700  1.0000
  Hf  Hf5       1.0  0.54600  0.25000  0.37400  1.0000
  Hf  Hf6       1.0  0.87600  0.25000  0.43500  1.0000
  Hf  Hf7       1.0  0.12400  0.75000  0.56500  1.0000
  Hf  Hf8       1.0  0.45400  0.75000  0.62600  1.0000
  Hf  Hf9       1.0  0.71600  0.25000  0.70300  1.0000
  Hf  Hf10      1.0  0.21600  0.25000  0.79700  1.0000
  Hf  Hf11      1.0  0.95400  0.75000  0.87400  1.0000
  Hf  Hf12      1.0  0.62400  0.75000  0.93500  1.0000
  P   P1        1.0  0.80700  0.25000  0.00024  1.0000
  P   P2        1.0  0.52700  0.75000  0.17900  1.0000
  P   P3        1.0  0.02720  0.75000  0.32100  1.0000
  P   P4        1.0  0.30700  0.25000  0.50000  1.0000
  P   P5        1.0  0.69300  0.75000  0.50000  1.0000
  P   P6        1.0  0.97300  0.25000  0.67900  1.0000
  P   P7        1.0  0.47300  0.25000  0.82100  1.0000
  P   P8        1.0  0.19300  0.75000  0.00000  1.0000
