data_image0
_chemical_formula_structural       Ce4Rh6Si10
_chemical_formula_sum              "Ce4 Rh6 Si10"
_cell_length_a       5.90935
_cell_length_b       8.31165
_cell_length_c       8.31165
_cell_angle_alpha    91.1931
_cell_angle_beta     110.823
_cell_angle_gamma    110.823

_space_group_name_H-M_alt    "P 1"
_space_group_IT_number       1

loop_
  _space_group_symop_operation_xyz
  'x, y, z'

loop_
  _atom_site_type_symbol
  _atom_site_label
  _atom_site_symmetry_multiplicity
  _atom_site_fract_x
  _atom_site_fract_y
  _atom_site_fract_z
  _atom_site_occupancy
  Ce  Ce1       1.0  0.76600  0.39700  0.13600  1.0000
  Ce  Ce2       1.0  0.26600  0.13600  0.39700  1.0000
  Ce  Ce3       1.0  0.73400  0.86400  0.60300  1.0000
  Ce  Ce4       1.0  0.23400  0.60300  0.86400  1.0000
  Rh  Rh1       1.0  0.25000  0.00000  0.00000  1.0000
  Rh  Rh2       1.0  0.75000  0.00000  0.00000  1.0000
  Rh  Rh3       1.0  0.39200  0.53000  0.25300  1.0000
  Rh  Rh4       1.0  0.10800  0.74700  0.47000  1.0000
  Rh  Rh5       1.0  0.89200  0.25300  0.53000  1.0000
  Rh  Rh6       1.0  0.60800  0.47000  0.74700  1.0000
  Si  Si1       1.0  0.15200  0.25900  0.04500  1.0000
  Si  Si2       1.0  0.25000  0.77500  0.22500  1.0000
  Si  Si3       1.0  0.75000  0.77500  0.22500  1.0000
  Si  Si4       1.0  0.65200  0.04500  0.25900  1.0000
  Si  Si5       1.0  0.25000  0.50000  0.50000  1.0000
  Si  Si6       1.0  0.75000  0.50000  0.50000  1.0000
  Si  Si7       1.0  0.34800  0.95500  0.74100  1.0000
  Si  Si8       1.0  0.25000  0.22500  0.77500  1.0000
  Si  Si9       1.0  0.75000  0.22500  0.77500  1.0000
  Si  Si10      1.0  0.84800  0.74100  0.95500  1.0000
