data_image0
_chemical_formula_structural       Cs2O13V5
_chemical_formula_sum              "Cs2 O13 V5"
_cell_length_a       7.72987
_cell_length_b       7.72987
_cell_length_c       7.88448
_cell_angle_alpha    119.353
_cell_angle_beta     119.353
_cell_angle_gamma    90

_space_group_name_H-M_alt    "P 1"
_space_group_IT_number       1

loop_
  _space_group_symop_operation_xyz
  'x, y, z'

loop_
  _atom_site_type_symbol
  _atom_site_label
  _atom_site_symmetry_multiplicity
  _atom_site_fract_x
  _atom_site_fract_y
  _atom_site_fract_z
  _atom_site_occupancy
  Cs  Cs1       1.0  0.75000  0.25000  0.50100  1.0000
  Cs  Cs2       1.0  0.25000  0.75000  0.50100  1.0000
  O   O1        1.0  0.28600  0.00901  0.01800  1.0000
  O   O2        1.0  0.73200  0.00901  0.01800  1.0000
  O   O3        1.0  0.00901  0.28600  0.01800  1.0000
  O   O4        1.0  0.00901  0.73200  0.01800  1.0000
  O   O5        1.0  0.44000  0.44000  0.22800  1.0000
  O   O6        1.0  0.78700  0.44000  0.22800  1.0000
  O   O7        1.0  0.44000  0.78700  0.22800  1.0000
  O   O8        1.0  0.78700  0.78700  0.22800  1.0000
  O   O9        1.0  0.80200  0.80200  0.60400  1.0000
  O   O10       1.0  0.17500  0.17500  0.74600  1.0000
  O   O11       1.0  0.57100  0.17500  0.74600  1.0000
  O   O12       1.0  0.17500  0.57100  0.74600  1.0000
  O   O13       1.0  0.57100  0.57100  0.74600  1.0000
  V   V1        1.0  0.65800  0.65800  0.31500  1.0000
  V   V2        1.0  0.22400  0.22400  0.99300  1.0000
  V   V3        1.0  0.77000  0.22400  0.99300  1.0000
  V   V4        1.0  0.22400  0.77000  0.99300  1.0000
  V   V5        1.0  0.77000  0.77000  0.99300  1.0000
