data_image0
_chemical_formula_structural       Ag2Ga2P4Se12
_chemical_formula_sum              "Ag2 Ga2 P4 Se12"
_cell_length_a       6.44763
_cell_length_b       6.44755
_cell_length_c       14.1915
_cell_angle_alpha    90.0007
_cell_angle_beta     89.9997
_cell_angle_gamma    120

_space_group_name_H-M_alt    "P 1"
_space_group_IT_number       1

loop_
  _space_group_symop_operation_xyz
  'x, y, z'

loop_
  _atom_site_type_symbol
  _atom_site_label
  _atom_site_symmetry_multiplicity
  _atom_site_fract_x
  _atom_site_fract_y
  _atom_site_fract_z
  _atom_site_occupancy
  Ag  Ag1       1.0  0.66700  0.33300  0.25000  1.0000
  Ag  Ag2       1.0  0.33300  0.66700  0.75000  1.0000
  Ga  Ga1       1.0  0.00001  0.00000  0.25000  1.0000
  Ga  Ga2       1.0  0.99999  1.00000  0.75000  1.0000
  P   P1        1.0  0.33300  0.66700  0.17000  1.0000
  P   P2        1.0  0.33300  0.66700  0.33000  1.0000
  P   P3        1.0  0.66700  0.33300  0.67000  1.0000
  P   P4        1.0  0.66700  0.33300  0.83000  1.0000
  Se  Se1       1.0  0.30000  0.31900  0.12800  1.0000
  Se  Se2       1.0  0.68100  0.98100  0.12800  1.0000
  Se  Se3       1.0  0.01890  0.70000  0.12800  1.0000
  Se  Se4       1.0  0.01890  0.31900  0.37200  1.0000
  Se  Se5       1.0  0.68100  0.70000  0.37200  1.0000
  Se  Se6       1.0  0.30000  0.98100  0.37200  1.0000
  Se  Se7       1.0  0.70000  0.01890  0.62800  1.0000
  Se  Se8       1.0  0.31900  0.30000  0.62800  1.0000
  Se  Se9       1.0  0.98100  0.68100  0.62800  1.0000
  Se  Se10      1.0  0.98100  0.30000  0.87200  1.0000
  Se  Se11      1.0  0.31900  0.01890  0.87200  1.0000
  Se  Se12      1.0  0.70000  0.68100  0.87200  1.0000
