data_image0
_chemical_formula_structural       Cr4F12O4
_chemical_formula_sum              "Cr4 F12 O4"
_cell_length_a       4.99191
_cell_length_b       4.99191
_cell_length_c       8.61547
_cell_angle_alpha    90
_cell_angle_beta     90
_cell_angle_gamma    90

_space_group_name_H-M_alt    "P 1"
_space_group_IT_number       1

loop_
  _space_group_symop_operation_xyz
  'x, y, z'

loop_
  _atom_site_type_symbol
  _atom_site_label
  _atom_site_symmetry_multiplicity
  _atom_site_fract_x
  _atom_site_fract_y
  _atom_site_fract_z
  _atom_site_occupancy
  Cr  Cr1       1.0  0.89900  0.57500  0.00063  1.0000
  Cr  Cr2       1.0  0.42500  0.89900  0.25100  1.0000
  Cr  Cr3       1.0  0.10100  0.42500  0.50100  1.0000
  Cr  Cr4       1.0  0.57500  0.10100  0.75100  1.0000
  F   F1        1.0  0.55900  0.68400  0.08690  1.0000
  F   F2        1.0  0.43100  0.17800  0.12600  1.0000
  F   F3        1.0  0.06170  0.81200  0.13200  1.0000
  F   F4        1.0  0.31600  0.55900  0.33700  1.0000
  F   F5        1.0  0.82200  0.43100  0.37600  1.0000
  F   F6        1.0  0.18800  0.06170  0.38200  1.0000
  F   F7        1.0  0.44100  0.31600  0.58700  1.0000
  F   F8        1.0  0.56900  0.82200  0.62600  1.0000
  F   F9        1.0  0.93800  0.18800  0.63200  1.0000
  F   F10       1.0  0.68400  0.44100  0.83700  1.0000
  F   F11       1.0  0.17800  0.56900  0.87600  1.0000
  F   F12       1.0  0.81200  0.93800  0.88200  1.0000
  O   O1        1.0  0.93000  0.31000  0.09560  1.0000
  O   O2        1.0  0.69000  0.93000  0.34600  1.0000
  O   O3        1.0  0.07000  0.69000  0.59600  1.0000
  O   O4        1.0  0.31000  0.07000  0.84600  1.0000
