data_image0
_chemical_formula_structural       Ge2H4K6N2O6
_chemical_formula_sum              "Ge2 H4 K6 N2 O6"
_cell_length_a       6.34237
_cell_length_b       6.61469
_cell_length_c       7.1847
_cell_angle_alpha    97.1174
_cell_angle_beta     101.837
_cell_angle_gamma    91.2538

_space_group_name_H-M_alt    "P 1"
_space_group_IT_number       1

loop_
  _space_group_symop_operation_xyz
  'x, y, z'

loop_
  _atom_site_type_symbol
  _atom_site_label
  _atom_site_symmetry_multiplicity
  _atom_site_fract_x
  _atom_site_fract_y
  _atom_site_fract_z
  _atom_site_occupancy
  Ge  Ge1       1.0  0.78800  0.70400  0.30800  1.0000
  Ge  Ge2       1.0  0.21200  0.29600  0.69200  1.0000
  H   H1        1.0  0.10900  0.10300  0.36500  1.0000
  H   H2        1.0  0.01940  0.33500  0.36600  1.0000
  H   H3        1.0  0.98100  0.66500  0.63400  1.0000
  H   H4        1.0  0.89100  0.89700  0.63500  1.0000
  K   K1        1.0  0.76500  0.08670  0.02900  1.0000
  K   K2        1.0  0.28300  0.47500  0.13000  1.0000
  K   K3        1.0  0.65200  0.19900  0.48200  1.0000
  K   K4        1.0  0.34800  0.80100  0.51800  1.0000
  K   K5        1.0  0.71700  0.52500  0.87000  1.0000
  K   K6        1.0  0.23500  0.91300  0.97100  1.0000
  N   N1        1.0  0.15400  0.25400  0.41600  1.0000
  N   N2        1.0  0.84600  0.74600  0.58400  1.0000
  O   O1        1.0  0.00802  0.78400  0.21200  1.0000
  O   O2        1.0  0.56300  0.85000  0.23600  1.0000
  O   O3        1.0  0.72600  0.44000  0.23800  1.0000
  O   O4        1.0  0.27400  0.56000  0.76200  1.0000
  O   O5        1.0  0.43700  0.15000  0.76400  1.0000
  O   O6        1.0  0.99200  0.21600  0.78800  1.0000
