data_image0
_chemical_formula_structural       C9La7Os4
_chemical_formula_sum              "C9 La7 Os4"
_cell_length_a       5.42417
_cell_length_b       6.59343
_cell_length_c       11.648
_cell_angle_alpha    92.2907
_cell_angle_beta     103.464
_cell_angle_gamma    114.289

_space_group_name_H-M_alt    "P 1"
_space_group_IT_number       1

loop_
  _space_group_symop_operation_xyz
  'x, y, z'

loop_
  _atom_site_type_symbol
  _atom_site_label
  _atom_site_symmetry_multiplicity
  _atom_site_fract_x
  _atom_site_fract_y
  _atom_site_fract_z
  _atom_site_occupancy
  C   C1        1.0  0.50000  0.00000  0.00000  1.0000
  C   C2        1.0  0.34000  0.53600  0.14500  1.0000
  C   C3        1.0  0.25700  0.33500  0.18000  1.0000
  C   C4        1.0  0.67500  0.05930  0.29100  1.0000
  C   C5        1.0  0.99500  0.60200  0.38700  1.0000
  C   C6        1.0  0.00529  0.39800  0.61300  1.0000
  C   C7        1.0  0.32500  0.94100  0.70900  1.0000
  C   C8        1.0  0.74300  0.66500  0.82000  1.0000
  C   C9        1.0  0.66000  0.46400  0.85500  1.0000
  La  La1       1.0  0.00000  0.00000  0.00000  1.0000
  La  La2       1.0  0.78300  0.41000  0.15700  1.0000
  La  La3       1.0  0.17400  0.02740  0.32100  1.0000
  La  La4       1.0  0.51900  0.65600  0.38200  1.0000
  La  La5       1.0  0.48100  0.34400  0.61800  1.0000
  La  La6       1.0  0.82600  0.97300  0.67900  1.0000
  La  La7       1.0  0.21700  0.59000  0.84300  1.0000
  Os  Os1       1.0  0.49900  0.85600  0.14100  1.0000
  Os  Os2       1.0  0.86200  0.29600  0.42800  1.0000
  Os  Os3       1.0  0.13800  0.70400  0.57200  1.0000
  Os  Os4       1.0  0.50100  0.14400  0.85900  1.0000
